MODEL 1
REMARK VINA RESULT:      -2.6      0.000      0.000
REMARK  4 active torsions:
REMARK  status: ('A' for Active; 'I' for Inactive)
REMARK    1  A    between atoms: S_11  and  C_7 
REMARK    2  A    between atoms: C_17  and  C_10 
REMARK    3  A    between atoms: C_16  and  S_11 
REMARK    4  A    between atoms: C_20  and  C_17 
ROOT
ATOM      1  N   UNL d   1      59.069  -2.728  29.008  0.00  0.00    -0.224 N 
ATOM      2  N   UNL d   1      60.320  -2.024  29.029  0.00  0.00    -0.241 N 
ATOM      3  C   UNL d   1      59.889  -2.706  28.862  0.00  0.00     0.343 A 
ATOM      4  C   UNL d   1      59.931  -1.364  29.342  0.00  0.00     0.160 A 
ATOM      5  C   UNL d   1      58.687  -2.068  29.319  0.00  0.00     0.273 A 
ATOM      6  C   UNL d   1      59.118  -1.385  29.486  0.00  0.00     0.115 A 
ATOM      7  C   UNL d   1      58.736  -0.724  29.798  0.00  0.00     0.120 A 
ATOM      8  N   UNL d   1      60.362  -0.673  29.512  0.00  0.00    -0.209 NA
ATOM      9  N   UNL d   1      59.163  -0.042  29.965  0.00  0.00    -0.220 NA
ATOM     10  C   UNL d   1      59.980  -0.013  29.823  0.00  0.00     0.165 A 
ATOM     11  O   UNL d   1      60.271  -3.371  28.549  0.00  0.00    -0.245 OA
ATOM     12  O   UNL d   1      57.874  -2.093  29.462  0.00  0.00    -0.266 OA
ATOM     13  C   UNL d   1      58.645  -3.411  28.839  0.00  0.00     0.107 C 
ATOM     14  C   UNL d   1      61.133  -2.002  28.885  0.00  0.00     0.105 C 
ENDROOT
BRANCH   7  15
ATOM     15  S   UNL d   1      57.923  -0.750  29.941  0.00  0.00    -0.068 SA
BRANCH  15  16
ATOM     16  C   UNL d   1      57.599  -0.317  30.565  0.00  0.00     0.031 A 
ATOM     17  C   UNL d   1      57.419  -0.607  31.315  0.00  0.00     0.006 A 
ATOM     18  C   UNL d   1      57.106   0.002  31.773  0.00  0.00     0.001 A 
ATOM     19  C   UNL d   1      57.094   0.682  31.294  0.00  0.00     0.001 A 
ATOM     20  C   UNL d   1      57.400   0.480  30.547  0.00  0.00     0.006 A 
ENDBRANCH  15  16
ENDBRANCH   7  15
BRANCH  10  21
ATOM     21  C   UNL d   1      60.407   0.674  29.992  0.00  0.00     0.039 C 
BRANCH  21  22
ATOM     22  C   UNL d   1      61.114   0.623  30.421  0.00  0.00     0.003 C 
ATOM     23  C   UNL d   1      61.111   0.677  31.236  0.00  0.00     0.000 C 
ENDBRANCH  21  22
ENDBRANCH  10  21
TORSDOF 4
ENDMDL
MODEL 2
REMARK VINA RESULT:      -1.4      1.791      3.833
REMARK  4 active torsions:
REMARK  status: ('A' for Active; 'I' for Inactive)
REMARK    1  A    between atoms: S_11  and  C_7 
REMARK    2  A    between atoms: C_17  and  C_10 
REMARK    3  A    between atoms: C_16  and  S_11 
REMARK    4  A    between atoms: C_20  and  C_17 
ROOT
ATOM      1  N   UNL d   1      57.455  -0.053  32.038  0.00  0.00    -0.224 N 
ATOM      2  N   UNL d   1      57.001  -1.257  31.399  0.00  0.00    -0.241 N 
ATOM      3  C   UNL d   1      56.933  -0.703  32.005  0.00  0.00     0.343 A 
ATOM      4  C   UNL d   1      57.590  -1.161  30.826  0.00  0.00     0.160 A 
ATOM      5  C   UNL d   1      58.039   0.036  31.465  0.00  0.00     0.273 A 
ATOM      6  C   UNL d   1      58.107  -0.518  30.858  0.00  0.00     0.115 A 
ATOM      7  C   UNL d   1      58.692  -0.428  30.284  0.00  0.00     0.120 A 
ATOM      8  N   UNL d   1      57.662  -1.718  30.212  0.00  0.00    -0.209 NA
ATOM      9  N   UNL d   1      58.762  -0.979  29.678  0.00  0.00    -0.220 NA
ATOM     10  C   UNL d   1      58.247  -1.628  29.638  0.00  0.00     0.165 A 
ATOM     11  O   UNL d   1      56.346  -0.791  32.583  0.00  0.00    -0.245 OA
ATOM     12  O   UNL d   1      58.554   0.681  31.500  0.00  0.00    -0.266 OA
ATOM     13  C   UNL d   1      57.381   0.495  32.645  0.00  0.00     0.107 C 
ATOM     14  C   UNL d   1      56.484  -1.901  31.367  0.00  0.00     0.105 C 
ENDROOT
BRANCH   7  15
ATOM     15  S   UNL d   1      59.207   0.217  30.320  0.00  0.00    -0.068 SA
BRANCH  15  16
ATOM     16  C   UNL d   1      59.795   0.309  29.747  0.00  0.00     0.031 A 
ATOM     17  C   UNL d   1      59.709   0.681  29.018  0.00  0.00     0.006 A 
ATOM     18  C   UNL d   1      60.426   0.653  28.613  0.00  0.00     0.001 A 
ATOM     19  C   UNL d   1      60.965   0.255  29.105  0.00  0.00     0.001 A 
ATOM     20  C   UNL d   1      60.571   0.043  29.807  0.00  0.00     0.006 A 
ENDBRANCH  15  16
ENDBRANCH   7  15
BRANCH  10  21
ATOM     21  C   UNL d   1      58.319  -2.181  29.028  0.00  0.00     0.039 C 
BRANCH  21  22
ATOM     22  C   UNL d   1      58.828  -2.829  29.119  0.00  0.00     0.003 C 
ATOM     23  C   UNL d   1      59.075  -3.258  28.469  0.00  0.00     0.000 C 
ENDBRANCH  21  22
ENDBRANCH  10  21
TORSDOF 4
ENDMDL
MODEL 3
REMARK VINA RESULT:       0.0      2.137      4.098
REMARK  4 active torsions:
REMARK  status: ('A' for Active; 'I' for Inactive)
REMARK    1  A    between atoms: S_11  and  C_7 
REMARK    2  A    between atoms: C_17  and  C_10 
REMARK    3  A    between atoms: C_16  and  S_11 
REMARK    4  A    between atoms: C_20  and  C_17 
ROOT
ATOM      1  N   UNL d   1      57.022  -0.078  33.011  0.00  0.00    -0.224 N 
ATOM      2  N   UNL d   1      56.580  -0.976  31.981  0.00  0.00    -0.241 N 
ATOM      3  C   UNL d   1      56.472  -0.635  32.723  0.00  0.00     0.343 A 
ATOM      4  C   UNL d   1      57.238  -0.762  31.527  0.00  0.00     0.160 A 
ATOM      5  C   UNL d   1      57.676   0.131  32.555  0.00  0.00     0.273 A 
ATOM      6  C   UNL d   1      57.784  -0.211  31.813  0.00  0.00     0.115 A 
ATOM      7  C   UNL d   1      58.438  -0.002  31.355  0.00  0.00     0.120 A 
ATOM      8  N   UNL d   1      57.351  -1.104  30.778  0.00  0.00    -0.209 NA
ATOM      9  N   UNL d   1      58.548  -0.341  30.615  0.00  0.00    -0.220 NA
ATOM     10  C   UNL d   1      58.004  -0.895  30.321  0.00  0.00     0.165 A 
ATOM     11  O   UNL d   1      55.816  -0.843  33.184  0.00  0.00    -0.245 OA
ATOM     12  O   UNL d   1      58.219   0.682  32.843  0.00  0.00    -0.266 OA
ATOM     13  C   UNL d   1      56.909   0.258  33.751  0.00  0.00     0.107 C 
ATOM     14  C   UNL d   1      56.034  -1.527  31.696  0.00  0.00     0.105 C 
ENDROOT
BRANCH   7  15
ATOM     15  S   UNL d   1      58.981   0.549  31.644  0.00  0.00    -0.068 SA
BRANCH  15  16
ATOM     16  C   UNL d   1      59.753   0.562  31.350  0.00  0.00     0.031 A 
ATOM     17  C   UNL d   1      59.970   0.663  30.562  0.00  0.00     0.006 A 
ATOM     18  C   UNL d   1      60.792   0.642  30.504  0.00  0.00     0.001 A 
ATOM     19  C   UNL d   1      61.085   0.526  31.273  0.00  0.00     0.001 A 
ATOM     20  C   UNL d   1      60.438   0.477  31.795  0.00  0.00     0.006 A 
ENDBRANCH  15  16
ENDBRANCH   7  15
BRANCH  10  21
ATOM     21  C   UNL d   1      58.118  -1.235  29.576  0.00  0.00     0.039 C 
BRANCH  21  22
ATOM     22  C   UNL d   1      58.541  -1.944  29.508  0.00  0.00     0.003 C 
ATOM     23  C   UNL d   1      58.788  -2.213  28.777  0.00  0.00     0.000 C 
ENDBRANCH  21  22
ENDBRANCH  10  21
TORSDOF 4
ENDMDL
