MODEL 1
REMARK VINA RESULT:      22.9      0.000      0.000
REMARK  4 active torsions:
REMARK  status: ('A' for Active; 'I' for Inactive)
REMARK    1  A    between atoms: C_2  and  C_1 
REMARK       I    between atoms: N_5  and  C_2 
REMARK    2  A    between atoms: C_10  and  N_5 
REMARK    3  A    between atoms: O_9  and  C_11 
REMARK    4  A    between atoms: C_12  and  O_9 
ROOT
ATOM      1  C   UNL d   1      45.777 -17.351  43.854  0.00  0.00     0.085 A 
ATOM      2  C   UNL d   1      45.788 -15.852  44.521  0.00  0.00     0.100 A 
ATOM      3  C   UNL d   1      46.375 -16.814  43.650  0.00  0.00     0.021 A 
ATOM      4  C   UNL d   1      45.188 -17.134  44.391  0.00  0.00     0.021 A 
ATOM      5  C   UNL d   1      46.379 -16.068  43.983  0.00  0.00     0.026 A 
ATOM      6  C   UNL d   1      45.202 -16.378  44.721  0.00  0.00     0.026 A 
ENDROOT
BRANCH   1   7
ATOM      7  N   UNL d   1      45.770 -18.104  43.520  0.00  0.00    -0.206 NA
ATOM      8  C   UNL d   1      46.040 -18.212  42.744  0.00  0.00     0.303 C 
ATOM      9  O   UNL d   1      46.312 -17.568  42.313  0.00  0.00    -0.263 OA
BRANCH   8  10
ATOM     10  C   UNL d   1      46.034 -18.965  42.409  0.00  0.00     0.176 A 
ATOM     11  C   UNL d   1      46.069 -19.679  42.823  0.00  0.00     0.110 A 
ATOM     12  N   UNL d   1      46.048 -20.294  42.276  0.00  0.00    -0.233 NA
ATOM     13  C   UNL d   1      46.115 -19.758  43.636  0.00  0.00     0.023 C 
ATOM     14  C   UNL d   1      46.000 -19.956  41.516  0.00  0.00     0.259 A 
ATOM     15  O   UNL d   1      45.992 -19.135  41.607  0.00  0.00    -0.296 OA
ENDBRANCH   8  10
ENDBRANCH   1   7
BRANCH   2  16
ATOM     16  O   UNL d   1      45.799 -15.095  44.854  0.00  0.00    -0.307 OA
BRANCH  16  17
ATOM     17  C   UNL d   1      45.480 -14.466  44.452  0.00  0.00     0.100 A 
ATOM     18  C   UNL d   1      44.662 -14.344  44.471  0.00  0.00     0.025 A 
ATOM     19  C   UNL d   1      44.342 -13.705  44.062  0.00  0.00     0.002 A 
ATOM     20  C   UNL d   1      44.829 -13.183  43.632  0.00  0.00     0.000 A 
ATOM     21  C   UNL d   1      45.660 -13.319  43.622  0.00  0.00     0.002 A 
ATOM     22  C   UNL d   1      45.959 -13.963  44.036  0.00  0.00     0.025 A 
ENDBRANCH  16  17
ENDBRANCH   2  16
TORSDOF 4
ENDMDL
