MODEL 1
REMARK VINA RESULT:      -1.3      0.000      0.000
REMARK  2 active torsions:
REMARK  status: ('A' for Active; 'I' for Inactive)
REMARK    1  A    between atoms: N_4  and  C_1 
REMARK    2  A    between atoms: C_11  and  C_3 
ROOT
ATOM      1  C   UNL d   1      33.042  20.738 -22.729  0.00  0.00     0.148 A 
ATOM      2  N   UNL d   1      33.164  21.252 -23.338  0.00  0.00    -0.228 NA
ATOM      3  C   UNL d   1      32.810  21.862 -21.865  0.00  0.00     0.004 A 
ATOM      4  C   UNL d   1      32.862  21.048 -21.981  0.00  0.00     0.037 A 
ATOM      5  C   UNL d   1      32.939  22.367 -22.509  0.00  0.00     0.018 A 
ATOM      6  C   UNL d   1      33.119  22.057 -23.257  0.00  0.00     0.083 A 
ATOM      7  C   UNL d   1      32.887  23.178 -22.392  0.00  0.00     0.002 A 
ATOM      8  C   UNL d   1      33.240  22.567 -23.865  0.00  0.00     0.019 A 
ATOM      9  C   UNL d   1      33.017  23.686 -23.037  0.00  0.00     0.000 A 
ATOM     10  C   UNL d   1      33.196  23.377 -23.785  0.00  0.00     0.002 A 
ENDROOT
BRANCH   1  11
ATOM     11  N   UNL d   1      33.087  19.940 -22.813  0.00  0.00    -0.286 N 
ATOM     12  C   UNL d   1      33.141  19.553 -23.547  0.00  0.00     0.101 A 
ATOM     13  C   UNL d   1      33.186  18.752 -23.634  0.00  0.00     0.100 A 
ATOM     14  N   UNL d   1      33.179  18.280 -22.952  0.00  0.00    -0.299 N 
ATOM     15  C   UNL d   1      33.126  18.638 -22.224  0.00  0.00     0.100 A 
ATOM     16  C   UNL d   1      33.224  17.469 -23.031  0.00  0.00     0.100 C 
ATOM     17  C   UNL d   1      33.079  19.469 -22.131  0.00  0.00     0.101 A 
ENDBRANCH   1  11
BRANCH   3  18
ATOM     18  C   UNL d   1      32.636  22.163 -21.139  0.00  0.00     0.000 A 
ATOM     19  C   UNL d   1      31.860  22.359 -20.940  0.00  0.00     0.000 A 
ATOM     20  C   UNL d   1      31.688  22.655 -20.225  0.00  0.00     0.000 A 
ATOM     21  C   UNL d   1      32.279  22.779 -19.655  0.00  0.00     0.000 A 
ATOM     22  C   UNL d   1      33.062  22.578 -19.864  0.00  0.00     0.000 A 
ATOM     23  C   UNL d   1      33.234  22.282 -20.578  0.00  0.00     0.000 A 
ENDBRANCH   3  18
TORSDOF 2
ENDMDL
MODEL 2
REMARK VINA RESULT:      -0.9      4.588      6.141
REMARK  2 active torsions:
REMARK  status: ('A' for Active; 'I' for Inactive)
REMARK    1  A    between atoms: N_4  and  C_1 
REMARK    2  A    between atoms: C_11  and  C_3 
ROOT
ATOM      1  C   UNL d   1      29.775  16.812 -24.108  0.00  0.00     0.148 A 
ATOM      2  N   UNL d   1      29.852  17.540 -24.446  0.00  0.00    -0.228 NA
ATOM      3  C   UNL d   1      31.207  16.716 -24.057  0.00  0.00     0.004 A 
ATOM      4  C   UNL d   1      30.463  16.394 -23.910  0.00  0.00     0.037 A 
ATOM      5  C   UNL d   1      31.257  17.466 -24.405  0.00  0.00     0.018 A 
ATOM      6  C   UNL d   1      30.569  17.884 -24.603  0.00  0.00     0.083 A 
ATOM      7  C   UNL d   1      31.999  17.785 -24.550  0.00  0.00     0.002 A 
ATOM      8  C   UNL d   1      30.644  18.609 -24.939  0.00  0.00     0.019 A 
ATOM      9  C   UNL d   1      32.051  18.538 -24.899  0.00  0.00     0.000 A 
ATOM     10  C   UNL d   1      31.363  18.956 -25.097  0.00  0.00     0.002 A 
ENDROOT
BRANCH   1  11
ATOM     11  N   UNL d   1      29.062  16.474 -23.954  0.00  0.00    -0.286 N 
ATOM     12  C   UNL d   1      28.768  15.808 -24.357  0.00  0.00     0.101 A 
ATOM     13  C   UNL d   1      28.052  15.467 -24.204  0.00  0.00     0.100 A 
ATOM     14  N   UNL d   1      27.577  15.796 -23.609  0.00  0.00    -0.299 N 
ATOM     15  C   UNL d   1      27.846  16.448 -23.204  0.00  0.00     0.100 A 
ATOM     16  C   UNL d   1      26.852  15.457 -23.449  0.00  0.00     0.100 C 
ATOM     17  C   UNL d   1      28.587  16.803 -23.360  0.00  0.00     0.101 A 
ENDBRANCH   1  11
BRANCH   3  18
ATOM     18  C   UNL d   1      31.875  16.310 -23.865  0.00  0.00     0.000 A 
ATOM     19  C   UNL d   1      32.168  16.321 -23.094  0.00  0.00     0.000 A 
ATOM     20  C   UNL d   1      32.825  15.921 -22.905  0.00  0.00     0.000 A 
ATOM     21  C   UNL d   1      33.241  15.479 -23.472  0.00  0.00     0.000 A 
ATOM     22  C   UNL d   1      32.939  15.473 -24.250  0.00  0.00     0.000 A 
ATOM     23  C   UNL d   1      32.282  15.872 -24.439  0.00  0.00     0.000 A 
ENDBRANCH   3  18
TORSDOF 2
ENDMDL
MODEL 3
REMARK VINA RESULT:       0.0      1.359      3.933
REMARK  2 active torsions:
REMARK  status: ('A' for Active; 'I' for Inactive)
REMARK    1  A    between atoms: N_4  and  C_1 
REMARK    2  A    between atoms: C_11  and  C_3 
ROOT
ATOM      1  C   UNL d   1      32.747  20.597 -22.291  0.00  0.00     0.148 A 
ATOM      2  N   UNL d   1      32.896  20.971 -22.989  0.00  0.00    -0.228 NA
ATOM      3  C   UNL d   1      32.773  19.343 -22.991  0.00  0.00     0.004 A 
ATOM      4  C   UNL d   1      32.684  19.770 -22.292  0.00  0.00     0.037 A 
ATOM      5  C   UNL d   1      32.926  19.754 -23.694  0.00  0.00     0.018 A 
ATOM      6  C   UNL d   1      32.989  20.580 -23.693  0.00  0.00     0.083 A 
ATOM      7  C   UNL d   1      33.014  19.327 -24.389  0.00  0.00     0.002 A 
ATOM      8  C   UNL d   1      33.138  20.955 -24.387  0.00  0.00     0.019 A 
ATOM      9  C   UNL d   1      33.168  19.737 -25.096  0.00  0.00     0.000 A 
ATOM     10  C   UNL d   1      33.231  20.564 -25.095  0.00  0.00     0.002 A 
ENDROOT
BRANCH   1  11
ATOM     11  N   UNL d   1      32.656  20.988 -21.595  0.00  0.00    -0.286 N 
ATOM     12  C   UNL d   1      32.054  21.543 -21.449  0.00  0.00     0.101 A 
ATOM     13  C   UNL d   1      31.961  21.937 -20.751  0.00  0.00     0.100 A 
ATOM     14  N   UNL d   1      32.495  21.782 -20.136  0.00  0.00    -0.299 N 
ATOM     15  C   UNL d   1      33.092  21.243 -20.257  0.00  0.00     0.100 A 
ATOM     16  C   UNL d   1      32.408  22.176 -19.427  0.00  0.00     0.100 C 
ATOM     17  C   UNL d   1      33.190  20.833 -20.981  0.00  0.00     0.101 A 
ENDBRANCH   1  11
BRANCH   3  18
ATOM     18  C   UNL d   1      32.712  18.540 -22.992  0.00  0.00     0.000 A 
ATOM     19  C   UNL d   1      32.125  18.163 -23.433  0.00  0.00     0.000 A 
ATOM     20  C   UNL d   1      32.065  17.374 -23.434  0.00  0.00     0.000 A 
ATOM     21  C   UNL d   1      32.587  16.899 -22.994  0.00  0.00     0.000 A 
ATOM     22  C   UNL d   1      33.178  17.288 -22.551  0.00  0.00     0.000 A 
ATOM     23  C   UNL d   1      33.238  18.078 -22.550  0.00  0.00     0.000 A 
ENDBRANCH   3  18
TORSDOF 2
ENDMDL
MODEL 4
REMARK VINA RESULT:       0.1      1.454      2.363
REMARK  2 active torsions:
REMARK  status: ('A' for Active; 'I' for Inactive)
REMARK    1  A    between atoms: N_4  and  C_1 
REMARK    2  A    between atoms: C_11  and  C_3 
ROOT
ATOM      1  C   UNL d   1      32.549  18.699 -23.626  0.00  0.00     0.148 A 
ATOM      2  N   UNL d   1      32.692  19.135 -24.289  0.00  0.00    -0.228 NA
ATOM      3  C   UNL d   1      32.769  19.878 -22.837  0.00  0.00     0.004 A 
ATOM      4  C   UNL d   1      32.588  19.076 -22.889  0.00  0.00     0.037 A 
ATOM      5  C   UNL d   1      32.912  20.303 -23.534  0.00  0.00     0.018 A 
ATOM      6  C   UNL d   1      32.873  19.925 -24.271  0.00  0.00     0.083 A 
ATOM      7  C   UNL d   1      33.092  21.101 -23.481  0.00  0.00     0.002 A 
ATOM      8  C   UNL d   1      33.015  20.358 -24.933  0.00  0.00     0.019 A 
ATOM      9  C   UNL d   1      33.236  21.529 -24.180  0.00  0.00     0.000 A 
ATOM     10  C   UNL d   1      33.196  21.151 -24.917  0.00  0.00     0.002 A 
ENDROOT
BRANCH   1  11
ATOM     11  N   UNL d   1      32.370  17.916 -23.647  0.00  0.00    -0.286 N 
ATOM     12  C   UNL d   1      32.939  17.308 -23.637  0.00  0.00     0.101 A 
ATOM     13  C   UNL d   1      32.761  16.521 -23.658  0.00  0.00     0.100 A 
ATOM     14  N   UNL d   1      31.964  16.298 -23.693  0.00  0.00    -0.299 N 
ATOM     15  C   UNL d   1      31.391  16.875 -23.704  0.00  0.00     0.100 A 
ATOM     16  C   UNL d   1      31.775  15.504 -23.714  0.00  0.00     0.100 C 
ATOM     17  C   UNL d   1      31.573  17.692 -23.682  0.00  0.00     0.101 A 
ENDBRANCH   1  11
BRANCH   3  18
ATOM     18  C   UNL d   1      32.807  20.245 -22.122  0.00  0.00     0.000 A 
ATOM     19  C   UNL d   1      32.455  20.982 -22.007  0.00  0.00     0.000 A 
ATOM     20  C   UNL d   1      32.492  21.342 -21.302  0.00  0.00     0.000 A 
ATOM     21  C   UNL d   1      32.885  20.995 -20.658  0.00  0.00     0.000 A 
ATOM     22  C   UNL d   1      33.240  20.249 -20.782  0.00  0.00     0.000 A 
ATOM     23  C   UNL d   1      33.202  19.888 -21.486  0.00  0.00     0.000 A 
ENDBRANCH   3  18
TORSDOF 2
ENDMDL
