MODEL 1
REMARK VINA RESULT:      62.0      0.000      0.000
REMARK  5 active torsions:
REMARK  status: ('A' for Active; 'I' for Inactive)
REMARK    1  A    between atoms: C_5  and  C_1 
REMARK    2  A    between atoms: C_12  and  C_5 
REMARK    3  A    between atoms: C_7  and  C_22 
REMARK       I    between atoms: N_21  and  C_12 
REMARK    4  A    between atoms: C_23  and  N_21 
REMARK    5  A    between atoms: C_22  and  C_23 
ROOT
ATOM      1  C   UNL d   1      13.574  14.217  -4.329  0.00  0.00     0.102 C 
ENDROOT
BRANCH   1   2
ATOM      2  C   UNL d   1      13.376  13.420  -4.239  0.00  0.00     0.026 C 
BRANCH   2   3
ATOM      3  C   UNL d   1      13.606  13.010  -3.548  0.00  0.00     0.059 A 
ATOM      4  C   UNL d   1      13.504  12.194  -3.501  0.00  0.00     0.279 A 
ATOM      5  N   UNL d   1      13.730  11.787  -2.822  0.00  0.00    -0.208 NA
ATOM      6  O   UNL d   1      13.170  11.781  -4.145  0.00  0.00    -0.265 OA
ATOM      7  C   UNL d   1      14.057  12.190  -2.189  0.00  0.00     0.085 A 
ATOM      8  C   UNL d   1      14.161  13.014  -2.236  0.00  0.00     0.018 A 
ATOM      9  C   UNL d   1      14.284  11.789  -1.509  0.00  0.00     0.019 A 
ATOM     10  C   UNL d   1      13.935  13.424  -2.916  0.00  0.00     0.006 A 
ATOM     11  C   UNL d   1      14.489  13.425  -1.604  0.00  0.00     0.002 A 
ATOM     12  C   UNL d   1      14.715  13.015  -0.923  0.00  0.00     0.000 A 
ATOM     13  C   UNL d   1      14.612  12.194  -0.877  0.00  0.00     0.002 A 
ATOM     14  C   UNL d   1      15.049  13.428  -0.279  0.00  0.00     0.000 C 
ATOM     15  C   UNL d   1      14.838  11.785  -0.197  0.00  0.00     0.000 C 
ENDBRANCH   2   3
ENDBRANCH   1   2
BRANCH   1  16
ATOM     16  N   UNL d   1      13.042  14.728  -4.686  0.00  0.00    -0.204 NA
ATOM     17  C   UNL d   1      13.320  15.380  -5.103  0.00  0.00     0.318 C 
ATOM     18  O   UNL d   1      12.787  15.895  -5.462  0.00  0.00    -0.262 OA
BRANCH  17  19
ATOM     19  C   UNL d   1      14.138  15.519  -5.164  0.00  0.00     0.254 C 
ATOM     20  O   UNL d   1      14.628  14.936  -5.483  0.00  0.00    -0.281 OA
BRANCH  19  21
ATOM     21  C   UNL d   1      14.450  16.233  -4.909  0.00  0.00     0.064 A 
ATOM     22  C   UNL d   1      14.909  16.363  -4.234  0.00  0.00     0.102 A 
ATOM     23  N   UNL d   1      15.103  17.160  -4.190  0.00  0.00    -0.244 NA
ATOM     24  C   UNL d   1      14.764  17.535  -4.843  0.00  0.00     0.082 A 
ATOM     25  C   UNL d   1      14.362  16.964  -5.287  0.00  0.00     0.022 A 
ATOM     26  C   UNL d   1      14.770  18.321  -5.092  0.00  0.00     0.019 A 
ATOM     27  C   UNL d   1      13.967  17.180  -5.975  0.00  0.00     0.002 A 
ATOM     28  C   UNL d   1      13.974  17.974  -6.225  0.00  0.00     0.000 A 
ATOM     29  C   UNL d   1      14.375  18.536  -5.780  0.00  0.00     0.002 A 
ENDBRANCH  19  21
ENDBRANCH  17  19
ENDBRANCH   1  16
TORSDOF 5
ENDMDL
MODEL 2
REMARK VINA RESULT:      63.4      1.925      5.438
REMARK  5 active torsions:
REMARK  status: ('A' for Active; 'I' for Inactive)
REMARK    1  A    between atoms: C_5  and  C_1 
REMARK    2  A    between atoms: C_12  and  C_5 
REMARK    3  A    between atoms: C_7  and  C_22 
REMARK       I    between atoms: N_21  and  C_12 
REMARK    4  A    between atoms: C_23  and  N_21 
REMARK    5  A    between atoms: C_22  and  C_23 
ROOT
ATOM      1  C   UNL d   1      14.958  14.575  -1.320  0.00  0.00     0.102 C 
ENDROOT
BRANCH   1   2
ATOM      2  C   UNL d   1      15.506  15.169  -1.485  0.00  0.00     0.026 C 
BRANCH   2   3
ATOM      3  C   UNL d   1      15.298  15.796  -1.998  0.00  0.00     0.059 A 
ATOM      4  C   UNL d   1      14.985  16.493  -1.690  0.00  0.00     0.279 A 
ATOM      5  N   UNL d   1      14.779  17.112  -2.193  0.00  0.00    -0.208 NA
ATOM      6  O   UNL d   1      14.876  16.570  -0.866  0.00  0.00    -0.265 OA
ATOM      7  C   UNL d   1      14.884  17.040  -3.001  0.00  0.00     0.085 A 
ATOM      8  C   UNL d   1      15.200  16.336  -3.313  0.00  0.00     0.018 A 
ATOM      9  C   UNL d   1      14.681  17.654  -3.507  0.00  0.00     0.019 A 
ATOM     10  C   UNL d   1      15.408  15.714  -2.811  0.00  0.00     0.006 A 
ATOM     11  C   UNL d   1      15.309  16.257  -4.124  0.00  0.00     0.002 A 
ATOM     12  C   UNL d   1      15.102  16.879  -4.627  0.00  0.00     0.000 A 
ATOM     13  C   UNL d   1      14.787  17.579  -4.316  0.00  0.00     0.002 A 
ATOM     14  C   UNL d   1      15.210  16.803  -5.451  0.00  0.00     0.000 C 
ATOM     15  C   UNL d   1      14.580  18.201  -4.818  0.00  0.00     0.000 C 
ENDBRANCH   2   3
ENDBRANCH   1   2
BRANCH   1  16
ATOM     16  N   UNL d   1      15.044  14.123  -0.642  0.00  0.00    -0.204 NA
ATOM     17  C   UNL d   1      15.036  13.303  -0.695  0.00  0.00     0.318 C 
ATOM     18  O   UNL d   1      15.122  12.846  -0.014  0.00  0.00    -0.262 OA
BRANCH  17  19
ATOM     19  C   UNL d   1      14.941  12.932  -1.434  0.00  0.00     0.254 C 
ATOM     20  O   UNL d   1      15.543  12.986  -1.997  0.00  0.00    -0.281 OA
BRANCH  19  21
ATOM     21  C   UNL d   1      14.253  12.518  -1.598  0.00  0.00     0.064 A 
ATOM     22  C   UNL d   1      13.771  12.120  -1.058  0.00  0.00     0.102 A 
ATOM     23  N   UNL d   1      13.139  11.781  -1.461  0.00  0.00    -0.244 NA
ATOM     24  C   UNL d   1      13.225  11.968  -2.260  0.00  0.00     0.082 A 
ATOM     25  C   UNL d   1      13.911  12.422  -2.346  0.00  0.00     0.022 A 
ATOM     26  C   UNL d   1      12.769  11.784  -2.922  0.00  0.00     0.019 A 
ATOM     27  C   UNL d   1      14.138  12.690  -3.089  0.00  0.00     0.002 A 
ATOM     28  C   UNL d   1      13.676  12.503  -3.756  0.00  0.00     0.000 A 
ATOM     29  C   UNL d   1      12.995  12.052  -3.665  0.00  0.00     0.002 A 
ENDBRANCH  19  21
ENDBRANCH  17  19
ENDBRANCH   1  16
TORSDOF 5
ENDMDL
