MODEL 1
REMARK VINA RESULT:      34.3      0.000      0.000
REMARK  3 active torsions:
REMARK  status: ('A' for Active; 'I' for Inactive)
REMARK    1  A    between atoms: C_6  and  C_1 
REMARK    2  A    between atoms: C_12  and  C_6 
REMARK    3  A    between atoms: C_9  and  C_10 
ROOT
ATOM      1  C   UNL d   1      13.086  12.574  -4.131  0.00  0.00     0.139 A 
ATOM      2  C   UNL d   1      13.296  13.328  -5.207  0.00  0.00     0.064 A 
ATOM      3  C   UNL d   1      13.264  12.551  -4.937  0.00  0.00     0.220 A 
ATOM      4  C   UNL d   1      13.140  13.834  -4.573  0.00  0.00     0.106 A 
ATOM      5  O   UNL d   1      13.010  13.364  -3.905  0.00  0.00    -0.304 OA
ATOM      6  C   UNL d   1      13.139  14.642  -4.691  0.00  0.00     0.067 A 
ATOM      7  C   UNL d   1      13.450  13.639  -5.954  0.00  0.00     0.009 A 
ATOM      8  O   UNL d   1      13.385  11.867  -5.383  0.00  0.00    -0.284 OA
ATOM      9  C   UNL d   1      13.292  14.952  -5.438  0.00  0.00     0.198 A 
ATOM     10  C   UNL d   1      13.447  14.452  -6.065  0.00  0.00     0.042 A 
ATOM     11  O   UNL d   1      13.289  15.768  -5.552  0.00  0.00    -0.286 OA
ENDROOT
BRANCH   1  12
ATOM     12  C   UNL d   1      12.998  11.922  -3.632  0.00  0.00     0.028 C 
BRANCH  12  13
ATOM     13  C   UNL d   1      13.389  11.894  -2.902  0.00  0.00     0.002 A 
ATOM     14  C   UNL d   1      14.206  11.826  -2.888  0.00  0.00    -0.000 A 
ATOM     15  C   UNL d   1      14.606  11.797  -2.173  0.00  0.00    -0.004 A 
ATOM     16  C   UNL d   1      14.179  11.837  -1.458  0.00  0.00    -0.023 A 
ATOM     17  C   UNL d   1      13.355  11.906  -1.476  0.00  0.00    -0.004 A 
ATOM     18  C   UNL d   1      12.964  11.935  -2.205  0.00  0.00    -0.000 A 
BRANCH  16  19
ATOM     19  C   UNL d   1      14.582  11.808  -0.730  0.00  0.00     0.019 C 
ATOM     20  C   UNL d   1      14.981  11.779  -0.016  0.00  0.00     0.004 C 
ATOM     21  C   UNL d   1      13.857  11.779  -0.333  0.00  0.00     0.004 C 
ATOM     22  C   UNL d   1      15.298  11.837  -1.138  0.00  0.00     0.004 C 
ENDBRANCH  16  19
ENDBRANCH  12  13
ENDBRANCH   1  12
TORSDOF 3
ENDMDL
