MODEL 1
REMARK VINA RESULT:      -0.0      0.000      0.000
REMARK  5 active torsions:
REMARK  status: ('A' for Active; 'I' for Inactive)
REMARK    1  A    between atoms: C_5  and  N_1 
REMARK    2  A    between atoms: C_12  and  C_2 
REMARK    3  A    between atoms: S_18  and  C_3 
REMARK    4  A    between atoms: C_9  and  C_12 
REMARK    5  A    between atoms: C_23  and  S_18 
ROOT
ATOM      1  N   UNL d   1      31.816  17.693 -23.756  0.00  0.00    -0.269 N 
ATOM      2  C   UNL d   1      32.023  18.470 -23.588  0.00  0.00     0.172 A 
ATOM      3  C   UNL d   1      31.030  17.687 -23.957  0.00  0.00     0.201 A 
ATOM      4  N   UNL d   1      31.356  18.933 -23.689  0.00  0.00    -0.128 NA
ATOM      5  N   UNL d   1      30.736  18.443 -23.920  0.00  0.00    -0.121 NA
ENDROOT
BRANCH   2   6
ATOM      6  C   UNL d   1      32.784  18.650 -23.369  0.00  0.00     0.059 C 
BRANCH   6   7
ATOM      7  C   UNL d   1      32.926  19.317 -22.911  0.00  0.00     0.094 A 
ATOM      8  C   UNL d   1      33.010  20.051 -23.268  0.00  0.00     0.082 A 
ATOM      9  C   UNL d   1      33.153  20.719 -22.805  0.00  0.00     0.285 A 
ATOM     10  O   UNL d   1      33.241  21.475 -23.167  0.00  0.00    -0.265 OA
ATOM     11  N   UNL d   1      33.210  20.637 -21.977  0.00  0.00    -0.152 NA
ATOM     12  C   UNL d   1      33.126  19.907 -21.626  0.00  0.00     0.371 A 
ATOM     13  N   UNL d   1      32.982  19.238 -22.098  0.00  0.00    -0.191 NA
ATOM     14  O   UNL d   1      33.184  19.838 -20.805  0.00  0.00    -0.242 OA
ENDBRANCH   6   7
ENDBRANCH   2   6
BRANCH   1  15
ATOM     15  C   UNL d   1      32.288  17.025 -23.735  0.00  0.00     0.067 A 
ATOM     16  C   UNL d   1      32.715  16.801 -24.403  0.00  0.00     0.016 A 
ATOM     17  C   UNL d   1      33.190  16.130 -24.382  0.00  0.00     0.001 A 
ATOM     18  C   UNL d   1      32.665  17.256 -25.097  0.00  0.00     0.002 C 
ATOM     19  C   UNL d   1      33.241  15.676 -23.693  0.00  0.00     0.000 A 
ATOM     20  C   UNL d   1      32.810  15.900 -23.014  0.00  0.00     0.001 A 
ATOM     21  C   UNL d   1      32.336  16.575 -23.045  0.00  0.00     0.018 A 
ATOM     22  C   UNL d   1      32.851  15.456 -22.319  0.00  0.00     0.000 C 
ENDBRANCH   1  15
BRANCH   3  23
ATOM     23  S   UNL d   1      30.594  16.999 -24.169  0.00  0.00    -0.048 SA
BRANCH  23  24
ATOM     24  C   UNL d   1      29.780  17.067 -24.342  0.00  0.00     0.038 C 
ATOM     25  C   UNL d   1      29.332  16.384 -24.466  0.00  0.00     0.008 C 
ENDBRANCH  23  24
ENDBRANCH   3  23
TORSDOF 5
ENDMDL
