MODEL 1
REMARK VINA RESULT:      42.4      0.000      0.000
REMARK  7 active torsions:
REMARK  status: ('A' for Active; 'I' for Inactive)
REMARK    1  A    between atoms: N_2  and  S_1 
REMARK    2  A    between atoms: C_3  and  S_1 
REMARK       I    between atoms: C_4  and  N_9 
REMARK    3  A    between atoms: C_10  and  C_4 
REMARK    4  A    between atoms: C_12  and  C_6 
REMARK    5  A    between atoms: N_9  and  C_12 
REMARK    6  A    between atoms: O_22  and  C_19 
REMARK    7  A    between atoms: C_25  and  O_22 
ROOT
ATOM      1  N   UNL d   1      13.332  12.328  -3.377  0.00  0.00    -0.229 N 
ATOM      2  C   UNL d   1      13.370  13.057  -3.763  0.00  0.00     0.094 A 
ATOM      3  C   UNL d   1      12.978  11.780  -3.894  0.00  0.00     0.092 A 
ATOM      4  C   UNL d   1      13.040  12.953  -4.515  0.00  0.00     0.021 A 
ATOM      5  C   UNL d   1      12.801  12.169  -4.590  0.00  0.00     0.021 A 
ENDROOT
BRANCH   2   6
ATOM      6  C   UNL d   1      13.698  13.712  -3.383  0.00  0.00     0.120 C 
BRANCH   6   7
ATOM      7  N   UNL d   1      13.891  14.381  -3.814  0.00  0.00    -0.205 NA
ATOM      8  C   UNL d   1      14.194  15.031  -3.430  0.00  0.00     0.279 C 
ATOM      9  O   UNL d   1      14.312  15.031  -2.611  0.00  0.00    -0.265 OA
BRANCH   8  10
ATOM     10  C   UNL d   1      14.393  15.718  -3.869  0.00  0.00     0.058 A 
ATOM     11  C   UNL d   1      14.912  16.274  -3.548  0.00  0.00     0.007 A 
ATOM     12  C   UNL d   1      15.110  16.945  -3.970  0.00  0.00     0.025 A 
ATOM     13  C   UNL d   1      14.787  17.069  -4.724  0.00  0.00     0.100 A 
ATOM     14  C   UNL d   1      14.268  16.513  -5.045  0.00  0.00     0.025 A 
ATOM     15  C   UNL d   1      14.076  15.838  -4.608  0.00  0.00     0.007 A 
BRANCH  13  16
ATOM     16  O   UNL d   1      14.991  17.751  -5.148  0.00  0.00    -0.305 OA
BRANCH  16  17
ATOM     17  C   UNL d   1      14.407  18.255  -5.440  0.00  0.00     0.123 C 
ATOM     18  C   UNL d   1      14.541  19.068  -5.469  0.00  0.00     0.029 C 
ENDBRANCH  16  17
ENDBRANCH  13  16
ENDBRANCH   8  10
ENDBRANCH   6   7
ENDBRANCH   2   6
BRANCH   1  19
ATOM     19  S   UNL d   1      13.600  12.175  -2.611  0.00  0.00     0.277 S 
ATOM     20  O   UNL d   1      12.823  12.021  -2.371  0.00  0.00    -0.199 OA
ATOM     21  O   UNL d   1      14.377  12.331  -2.856  0.00  0.00    -0.199 OA
BRANCH  19  22
ATOM     22  C   UNL d   1      13.867  12.020  -1.838  0.00  0.00     0.133 A 
ATOM     23  S   UNL d   1      14.631  11.931  -1.528  0.00  0.00    -0.074 SA
ATOM     24  C   UNL d   1      14.555  11.784  -0.725  0.00  0.00     0.036 A 
ATOM     25  C   UNL d   1      13.752  11.784  -0.544  0.00  0.00     0.008 A 
ATOM     26  C   UNL d   1      13.333  11.928  -1.226  0.00  0.00     0.020 A 
ENDBRANCH  19  22
ENDBRANCH   1  19
TORSDOF 7
ENDMDL
