MODEL 1
REMARK VINA RESULT:       0.2      0.000      0.000
REMARK  3 active torsions:
REMARK  status: ('A' for Active; 'I' for Inactive)
REMARK    1  A    between atoms: C_9  and  C_3 
REMARK    2  A    between atoms: C_8  and  C_5 
REMARK    3  A    between atoms: O_19  and  C_9 
ROOT
ATOM      1  N   UNL d   1      58.415  -0.528  30.525  0.00  0.00    -0.278 N 
ATOM      2  C   UNL d   1      57.761  -1.027  30.578  0.00  0.00     0.178 A 
ATOM      3  C   UNL d   1      59.057  -1.461  29.650  0.00  0.00     0.075 A 
ATOM      4  N   UNL d   1      57.742  -1.755  30.167  0.00  0.00    -0.223 NA
ATOM      5  C   UNL d   1      59.059  -0.750  30.060  0.00  0.00     0.178 A 
ATOM      6  C   UNL d   1      58.402  -1.961  29.703  0.00  0.00     0.086 A 
ATOM      7  C   UNL d   1      58.418   0.183  30.935  0.00  0.00     0.263 A 
ATOM      8  S   UNL d   1      57.101  -0.822  31.042  0.00  0.00    -0.050 SA
ATOM      9  C   UNL d   1      57.772   0.408  31.403  0.00  0.00     0.068 A 
ATOM     10  O   UNL d   1      59.072   0.682  30.882  0.00  0.00    -0.267 OA
ATOM     11  C   UNL d   1      57.118  -0.091  31.456  0.00  0.00     0.043 A 
ATOM     12  C   UNL d   1      58.379  -2.714  29.279  0.00  0.00     0.021 C 
ENDROOT
BRANCH   5  13
ATOM     13  C   UNL d   1      59.713  -0.252  30.007  0.00  0.00     0.024 A 
ATOM     14  S   UNL d   1      59.956   0.295  29.439  0.00  0.00    -0.089 SA
ATOM     15  C   UNL d   1      60.655   0.628  29.687  0.00  0.00     0.035 A 
ATOM     16  C   UNL d   1      60.848   0.298  30.397  0.00  0.00     0.007 A 
ATOM     17  C   UNL d   1      60.287  -0.238  30.607  0.00  0.00     0.004 A 
ENDBRANCH   5  13
BRANCH   3  18
ATOM     18  C   UNL d   1      59.711  -1.699  29.171  0.00  0.00     0.295 C 
ATOM     19  O   UNL d   1      59.838  -1.312  28.455  0.00  0.00    -0.259 OA
BRANCH  18  20
ATOM     20  O   UNL d   1      60.217  -2.301  29.403  0.00  0.00    -0.296 OA
ATOM     21  C   UNL d   1      60.531  -2.822  28.850  0.00  0.00     0.185 C 
ENDBRANCH  18  20
ENDBRANCH   3  18
TORSDOF 3
ENDMDL
MODEL 2
REMARK VINA RESULT:       1.8      1.319      2.668
REMARK  3 active torsions:
REMARK  status: ('A' for Active; 'I' for Inactive)
REMARK    1  A    between atoms: C_9  and  C_3 
REMARK    2  A    between atoms: C_8  and  C_5 
REMARK    3  A    between atoms: O_19  and  C_9 
ROOT
ATOM      1  N   UNL d   1      59.802  -0.590  29.306  0.00  0.00    -0.278 N 
ATOM      2  C   UNL d   1      60.461  -0.922  28.937  0.00  0.00     0.178 A 
ATOM      3  C   UNL d   1      59.141  -1.859  29.267  0.00  0.00     0.075 A 
ATOM      4  N   UNL d   1      60.472  -1.732  28.726  0.00  0.00    -0.223 NA
ATOM      5  C   UNL d   1      59.146  -1.063  29.468  0.00  0.00     0.178 A 
ATOM      6  C   UNL d   1      59.800  -2.191  28.898  0.00  0.00     0.086 A 
ATOM      7  C   UNL d   1      59.808   0.205  29.507  0.00  0.00     0.263 A 
ATOM      8  S   UNL d   1      61.133  -0.463  28.764  0.00  0.00    -0.050 SA
ATOM      9  C   UNL d   1      60.466   0.682  29.345  0.00  0.00     0.068 A 
ATOM     10  O   UNL d   1      59.150   0.537  29.875  0.00  0.00    -0.267 OA
ATOM     11  C   UNL d   1      61.124   0.350  28.976  0.00  0.00     0.043 A 
ATOM     12  C   UNL d   1      59.814  -3.028  28.679  0.00  0.00     0.021 C 
ENDROOT
BRANCH   5  13
ATOM     13  C   UNL d   1      58.488  -0.731  29.837  0.00  0.00     0.024 A 
ATOM     14  S   UNL d   1      58.209  -0.755  30.613  0.00  0.00    -0.089 SA
ATOM     15  C   UNL d   1      57.524  -0.318  30.653  0.00  0.00     0.035 A 
ATOM     16  C   UNL d   1      57.376  -0.026  29.916  0.00  0.00     0.007 A 
ATOM     17  C   UNL d   1      57.951  -0.266  29.408  0.00  0.00     0.004 A 
ENDBRANCH   5  13
BRANCH   3  18
ATOM     18  C   UNL d   1      58.474  -2.352  29.429  0.00  0.00     0.295 C 
ATOM     19  O   UNL d   1      58.331  -2.582  30.207  0.00  0.00    -0.259 OA
BRANCH  18  20
ATOM     20  O   UNL d   1      57.971  -2.604  28.832  0.00  0.00    -0.296 OA
ATOM     21  C   UNL d   1      57.874  -3.404  28.675  0.00  0.00     0.185 C 
ENDBRANCH  18  20
ENDBRANCH   3  18
TORSDOF 3
ENDMDL
MODEL 3
REMARK VINA RESULT:       3.0      1.636      2.610
REMARK  3 active torsions:
REMARK  status: ('A' for Active; 'I' for Inactive)
REMARK    1  A    between atoms: C_9  and  C_3 
REMARK    2  A    between atoms: C_8  and  C_5 
REMARK    3  A    between atoms: O_19  and  C_9 
ROOT
ATOM      1  N   UNL d   1      59.862   0.160  31.030  0.00  0.00    -0.278 N 
ATOM      2  C   UNL d   1      59.487   0.459  31.701  0.00  0.00     0.178 A 
ATOM      3  C   UNL d   1      58.596   0.054  30.370  0.00  0.00     0.075 A 
ATOM      4  N   UNL d   1      58.657   0.562  31.719  0.00  0.00    -0.223 NA
ATOM      5  C   UNL d   1      59.411  -0.041  30.369  0.00  0.00     0.178 A 
ATOM      6  C   UNL d   1      58.222   0.354  31.041  0.00  0.00     0.086 A 
ATOM      7  C   UNL d   1      60.677   0.065  31.028  0.00  0.00     0.263 A 
ATOM      8  S   UNL d   1      59.923   0.668  32.379  0.00  0.00    -0.050 SA
ATOM      9  C   UNL d   1      61.131   0.265  31.692  0.00  0.00     0.068 A 
ATOM     10  O   UNL d   1      61.051  -0.235  30.358  0.00  0.00    -0.267 OA
ATOM     11  C   UNL d   1      60.756   0.565  32.363  0.00  0.00     0.043 A 
ATOM     12  C   UNL d   1      57.363   0.462  31.063  0.00  0.00     0.021 C 
ENDROOT
BRANCH   5  13
ATOM     13  C   UNL d   1      59.786  -0.340  29.698  0.00  0.00     0.024 A 
ATOM     14  S   UNL d   1      60.146   0.021  29.050  0.00  0.00    -0.089 SA
ATOM     15  C   UNL d   1      60.424  -0.561  28.554  0.00  0.00     0.035 A 
ATOM     16  C   UNL d   1      60.242  -1.274  28.885  0.00  0.00     0.007 A 
ATOM     17  C   UNL d   1      59.855  -1.159  29.580  0.00  0.00     0.004 A 
ENDBRANCH   5  13
BRANCH   3  18
ATOM     18  C   UNL d   1      58.126  -0.148  29.698  0.00  0.00     0.295 C 
ATOM     19  O   UNL d   1      57.896  -0.933  29.597  0.00  0.00    -0.259 OA
BRANCH  18  20
ATOM     20  O   UNL d   1      57.895   0.416  29.149  0.00  0.00    -0.296 OA
ATOM     21  C   UNL d   1      57.512   0.196  28.457  0.00  0.00     0.185 C 
ENDBRANCH  18  20
ENDBRANCH   3  18
TORSDOF 3
ENDMDL
