MODEL 1
REMARK VINA RESULT:      -7.4      0.000      0.000
REMARK  3 active torsions:
REMARK  status: ('A' for Active; 'I' for Inactive)
REMARK    1  A    between atoms: N_10  and  C_3 
REMARK    2  A    between atoms: C_15  and  N_4 
REMARK    3  A    between atoms: C_20  and  C_15 
ROOT
ATOM      1  C   UNL d   1     -39.856  14.661  18.713  0.00  0.00     0.191 A 
ATOM      2  C   UNL d   1     -39.203  15.082  19.006  0.00  0.00     0.173 A 
ATOM      3  C   UNL d   1     -38.989  14.811  17.716  0.00  0.00     0.738 A 
ATOM      4  N   UNL d   1     -39.828  15.139  20.288  0.00  0.00    -0.224 N 
ATOM      5  N   UNL d   1     -39.722  14.495  17.918  0.00  0.00    -0.041 NA
ATOM      6  N   UNL d   1     -40.489  14.481  19.204  0.00  0.00    -0.240 N 
ATOM      7  C   UNL d   1     -40.476  14.721  19.993  0.00  0.00     0.343 A 
ATOM      8  C   UNL d   1     -39.193  15.319  19.794  0.00  0.00     0.288 A 
ATOM      9  N   UNL d   1     -38.666  15.174  18.385  0.00  0.00    -0.130 N 
ATOM     10  O   UNL d   1     -41.111  14.541  20.487  0.00  0.00    -0.245 OA
ATOM     11  O   UNL d   1     -38.545  15.737  20.089  0.00  0.00    -0.265 OA
ATOM     12  C   UNL d   1     -41.137  14.063  18.910  0.00  0.00     0.105 C 
ATOM     13  C   UNL d   1     -37.940  15.558  18.427  0.00  0.00     0.118 C 
ENDROOT
BRANCH   4  14
ATOM     14  C   UNL d   1     -39.816  15.378  21.080  0.00  0.00     0.087 C 
BRANCH  14  15
ATOM     15  C   UNL d   1     -39.450  14.907  21.648  0.00  0.00     0.019 A 
ATOM     16  C   UNL d   1     -38.967  15.256  22.231  0.00  0.00     0.014 A 
ATOM     17  C   UNL d   1     -38.600  14.784  22.799  0.00  0.00     0.068 A 
ATOM     18 CL   UNL d   1     -38.122  15.131  23.374  0.00  0.00    -0.082 Cl
ATOM     19  C   UNL d   1     -38.711  13.974  22.792  0.00  0.00     0.068 A 
ATOM     20  C   UNL d   1     -39.197  13.621  22.206  0.00  0.00     0.012 A 
ATOM     21 CL   UNL d   1     -38.345  13.502  23.359  0.00  0.00    -0.082 Cl
ATOM     22  C   UNL d   1     -39.560  14.100  21.641  0.00  0.00     0.002 A 
ENDBRANCH  14  15
ENDBRANCH   4  14
BRANCH   3  23
ATOM     23  N   UNL d   1     -38.636  14.773  16.970  0.00  0.00    -0.059 N 
ATOM     24  N   UNL d   1     -38.529  15.405  16.455  0.00  0.00    -0.151 NA
ATOM     25  C   UNL d   1     -38.152  15.119  15.771  0.00  0.00     0.103 A 
ATOM     26  C   UNL d   1     -37.940  15.569  15.110  0.00  0.00     0.022 C 
ATOM     27  C   UNL d   1     -38.031  14.308  15.876  0.00  0.00     0.041 A 
ATOM     28  C   UNL d   1     -38.330  14.099  16.616  0.00  0.00     0.102 A 
ATOM     29  C   UNL d   1     -38.322  13.339  16.942  0.00  0.00     0.021 C 
ENDBRANCH   3  23
TORSDOF 3
ENDMDL
MODEL 2
REMARK VINA RESULT:      -7.0      2.428      4.854
REMARK  3 active torsions:
REMARK  status: ('A' for Active; 'I' for Inactive)
REMARK    1  A    between atoms: N_10  and  C_3 
REMARK    2  A    between atoms: C_15  and  N_4 
REMARK    3  A    between atoms: C_20  and  C_15 
ROOT
ATOM      1  C   UNL d   1     -39.865  14.781  19.602  0.00  0.00     0.191 A 
ATOM      2  C   UNL d   1     -39.172  15.182  19.385  0.00  0.00     0.173 A 
ATOM      3  C   UNL d   1     -39.109  14.900  20.689  0.00  0.00     0.738 A 
ATOM      4  N   UNL d   1     -39.651  15.264  18.044  0.00  0.00    -0.224 N 
ATOM      5  N   UNL d   1     -39.825  14.607  20.405  0.00  0.00    -0.041 NA
ATOM      6  N   UNL d   1     -40.446  14.622  19.043  0.00  0.00    -0.240 N 
ATOM      7  C   UNL d   1     -40.340  14.864  18.263  0.00  0.00     0.343 A 
ATOM      8  C   UNL d   1     -39.069  15.422  18.605  0.00  0.00     0.288 A 
ATOM      9  N   UNL d   1     -38.704  15.255  20.062  0.00  0.00    -0.130 N 
ATOM     10  O   UNL d   1     -40.922  14.706  17.700  0.00  0.00    -0.245 OA
ATOM     11  O   UNL d   1     -38.380  15.822  18.386  0.00  0.00    -0.265 OA
ATOM     12  C   UNL d   1     -41.135  14.222  19.262  0.00  0.00     0.105 C 
ATOM     13  C   UNL d   1     -37.966  15.618  20.103  0.00  0.00     0.118 C 
ENDROOT
BRANCH   4  14
ATOM     14  C   UNL d   1     -39.546  15.506  17.259  0.00  0.00     0.087 C 
BRANCH  14  15
ATOM     15  C   UNL d   1     -39.146  15.020  16.727  0.00  0.00     0.019 A 
ATOM     16  C   UNL d   1     -38.741  15.356  16.080  0.00  0.00     0.014 A 
ATOM     17  C   UNL d   1     -38.340  14.869  15.548  0.00  0.00     0.068 A 
ATOM     18 CL   UNL d   1     -37.940  15.202  14.909  0.00  0.00    -0.082 Cl
ATOM     19  C   UNL d   1     -38.340  14.058  15.655  0.00  0.00     0.068 A 
ATOM     20  C   UNL d   1     -38.747  13.719  16.306  0.00  0.00     0.012 A 
ATOM     21 CL   UNL d   1     -37.940  13.572  15.124  0.00  0.00    -0.082 Cl
ATOM     22  C   UNL d   1     -39.146  14.213  16.833  0.00  0.00     0.002 A 
ENDBRANCH  14  15
ENDBRANCH   4  14
BRANCH   3  23
ATOM     23  N   UNL d   1     -38.841  14.847  21.468  0.00  0.00    -0.059 N 
ATOM     24  N   UNL d   1     -38.827  15.463  22.015  0.00  0.00    -0.151 NA
ATOM     25  C   UNL d   1     -38.515  15.166  22.727  0.00  0.00     0.103 A 
ATOM     26  C   UNL d   1     -38.403  15.598  23.424  0.00  0.00     0.022 C 
ATOM     27  C   UNL d   1     -38.340  14.367  22.607  0.00  0.00     0.041 A 
ATOM     28  C   UNL d   1     -38.542  14.175  21.832  0.00  0.00     0.102 A 
ATOM     29  C   UNL d   1     -38.457  13.431  21.482  0.00  0.00     0.021 C 
ENDBRANCH   3  23
TORSDOF 3
ENDMDL
MODEL 3
REMARK VINA RESULT:      -6.8      8.140      9.727
REMARK  3 active torsions:
REMARK  status: ('A' for Active; 'I' for Inactive)
REMARK    1  A    between atoms: N_10  and  C_3 
REMARK    2  A    between atoms: C_15  and  N_4 
REMARK    3  A    between atoms: C_20  and  C_15 
ROOT
ATOM      1  C   UNL d   1     -47.024  12.226  23.011  0.00  0.00     0.191 A 
ATOM      2  C   UNL d   1     -46.990  13.055  22.991  0.00  0.00     0.173 A 
ATOM      3  C   UNL d   1     -45.807  12.573  22.602  0.00  0.00     0.738 A 
ATOM      4  N   UNL d   1     -48.343  13.110  23.441  0.00  0.00    -0.224 N 
ATOM      5  N   UNL d   1     -46.294  11.931  22.771  0.00  0.00    -0.041 NA
ATOM      6  N   UNL d   1     -47.712  11.843  23.245  0.00  0.00    -0.240 N 
ATOM      7  C   UNL d   1     -48.373  12.285  23.460  0.00  0.00     0.343 A 
ATOM      8  C   UNL d   1     -47.652  13.493  23.207  0.00  0.00     0.288 A 
ATOM      9  N   UNL d   1     -46.234  13.269  22.737  0.00  0.00    -0.130 N 
ATOM     10  O   UNL d   1     -49.065  11.902  23.695  0.00  0.00    -0.245 OA
ATOM     11  O   UNL d   1     -47.623  14.319  23.188  0.00  0.00    -0.265 OA
ATOM     12  C   UNL d   1     -47.741  11.018  23.264  0.00  0.00     0.105 C 
ATOM     13  C   UNL d   1     -45.957  14.037  22.636  0.00  0.00     0.118 C 
ENDROOT
BRANCH   4  14
ATOM     14  C   UNL d   1     -49.009  13.553  23.658  0.00  0.00     0.087 C 
BRANCH  14  15
ATOM     15  C   UNL d   1     -49.521  13.837  23.078  0.00  0.00     0.019 A 
ATOM     16  C   UNL d   1     -49.982  13.305  22.633  0.00  0.00     0.014 A 
ATOM     17  C   UNL d   1     -50.495  13.589  22.053  0.00  0.00     0.068 A 
ATOM     18 CL   UNL d   1     -50.950  13.062  21.613  0.00  0.00    -0.082 Cl
ATOM     19  C   UNL d   1     -50.551  14.394  21.915  0.00  0.00     0.068 A 
ATOM     20  C   UNL d   1     -50.088  14.931  22.363  0.00  0.00     0.012 A 
ATOM     21 CL   UNL d   1     -51.063  14.678  21.335  0.00  0.00    -0.082 Cl
ATOM     22  C   UNL d   1     -49.577  14.638  22.941  0.00  0.00     0.002 A 
ENDBRANCH  14  15
ENDBRANCH   4  14
BRANCH   3  23
ATOM     23  N   UNL d   1     -45.024  12.531  22.342  0.00  0.00    -0.059 N 
ATOM     24  N   UNL d   1     -44.678  13.019  21.777  0.00  0.00    -0.151 NA
ATOM     25  C   UNL d   1     -43.886  12.784  21.685  0.00  0.00     0.103 A 
ATOM     26  C   UNL d   1     -43.334  13.126  21.171  0.00  0.00     0.022 C 
ATOM     27  C   UNL d   1     -43.754  12.149  22.199  0.00  0.00     0.041 A 
ATOM     28  C   UNL d   1     -44.458  11.997  22.601  0.00  0.00     0.102 A 
ATOM     29  C   UNL d   1     -44.570  11.407  23.169  0.00  0.00     0.021 C 
ENDBRANCH   3  23
TORSDOF 3
ENDMDL
MODEL 4
REMARK VINA RESULT:      -6.1      1.573      2.140
REMARK  3 active torsions:
REMARK  status: ('A' for Active; 'I' for Inactive)
REMARK    1  A    between atoms: N_10  and  C_3 
REMARK    2  A    between atoms: C_15  and  N_4 
REMARK    3  A    between atoms: C_20  and  C_15 
ROOT
ATOM      1  C   UNL d   1     -39.228  13.916  18.586  0.00  0.00     0.191 A 
ATOM      2  C   UNL d   1     -39.258  14.614  19.034  0.00  0.00     0.173 A 
ATOM      3  C   UNL d   1     -39.983  14.789  17.926  0.00  0.00     0.738 A 
ATOM      4  N   UNL d   1     -38.424  14.006  20.019  0.00  0.00    -0.224 N 
ATOM      5  N   UNL d   1     -39.675  14.026  17.904  0.00  0.00    -0.041 NA
ATOM      6  N   UNL d   1     -38.799  13.268  18.853  0.00  0.00    -0.240 N 
ATOM      7  C   UNL d   1     -38.396  13.313  19.571  0.00  0.00     0.343 A 
ATOM      8  C   UNL d   1     -38.854  14.655  19.749  0.00  0.00     0.288 A 
ATOM      9  N   UNL d   1     -39.727  15.155  18.622  0.00  0.00    -0.130 N 
ATOM     10  O   UNL d   1     -37.965  12.664  19.841  0.00  0.00    -0.245 OA
ATOM     11  O   UNL d   1     -38.882  15.349  20.197  0.00  0.00    -0.265 OA
ATOM     12  C   UNL d   1     -38.771  12.575  18.405  0.00  0.00     0.105 C 
ATOM     13  C   UNL d   1     -39.907  15.921  18.863  0.00  0.00     0.118 C 
ENDROOT
BRANCH   4  14
ATOM     14  C   UNL d   1     -38.018  14.049  20.740  0.00  0.00     0.087 C 
BRANCH  14  15
ATOM     15  C   UNL d   1     -38.400  13.847  21.441  0.00  0.00     0.019 A 
ATOM     16  C   UNL d   1     -37.977  13.470  22.052  0.00  0.00     0.014 A 
ATOM     17  C   UNL d   1     -38.359  13.268  22.754  0.00  0.00     0.068 A 
ATOM     18 CL   UNL d   1     -37.940  12.896  23.358  0.00  0.00    -0.082 Cl
ATOM     19  C   UNL d   1     -39.154  13.436  22.851  0.00  0.00     0.068 A 
ATOM     20  C   UNL d   1     -39.582  13.814  22.236  0.00  0.00     0.012 A 
ATOM     21 CL   UNL d   1     -39.537  13.233  23.552  0.00  0.00    -0.082 Cl
ATOM     22  C   UNL d   1     -39.191  14.014  21.537  0.00  0.00     0.002 A 
ENDBRANCH  14  15
ENDBRANCH   4  14
BRANCH   3  23
ATOM     23  N   UNL d   1     -40.465  15.132  17.350  0.00  0.00    -0.059 N 
ATOM     24  N   UNL d   1     -41.262  15.318  17.438  0.00  0.00    -0.151 NA
ATOM     25  C   UNL d   1     -41.528  15.652  16.725  0.00  0.00     0.103 A 
ATOM     26  C   UNL d   1     -42.297  15.919  16.571  0.00  0.00     0.022 C 
ATOM     27  C   UNL d   1     -40.886  15.668  16.203  0.00  0.00     0.041 A 
ATOM     28  C   UNL d   1     -40.235  15.347  16.593  0.00  0.00     0.102 A 
ATOM     29  C   UNL d   1     -39.478  15.257  16.271  0.00  0.00     0.021 C 
ENDBRANCH   3  23
TORSDOF 3
ENDMDL
MODEL 5
REMARK VINA RESULT:      -5.9      2.869      5.220
REMARK  3 active torsions:
REMARK  status: ('A' for Active; 'I' for Inactive)
REMARK    1  A    between atoms: N_10  and  C_3 
REMARK    2  A    between atoms: C_15  and  N_4 
REMARK    3  A    between atoms: C_20  and  C_15 
ROOT
ATOM      1  C   UNL d   1     -40.255  15.226  18.241  0.00  0.00     0.191 A 
ATOM      2  C   UNL d   1     -39.525  14.955  18.530  0.00  0.00     0.173 A 
ATOM      3  C   UNL d   1     -40.451  14.768  19.474  0.00  0.00     0.738 A 
ATOM      4  N   UNL d   1     -38.912  15.326  17.296  0.00  0.00    -0.224 N 
ATOM      5  N   UNL d   1     -40.824  15.110  18.824  0.00  0.00    -0.041 NA
ATOM      6  N   UNL d   1     -40.312  15.544  17.485  0.00  0.00    -0.240 N 
ATOM      7  C   UNL d   1     -39.639  15.594  17.012  0.00  0.00     0.343 A 
ATOM      8  C   UNL d   1     -38.856  15.007  18.054  0.00  0.00     0.288 A 
ATOM      9  N   UNL d   1     -39.649  14.672  19.295  0.00  0.00    -0.130 N 
ATOM     10  O   UNL d   1     -39.694  15.913  16.253  0.00  0.00    -0.245 OA
ATOM     11  O   UNL d   1     -38.128  14.739  18.338  0.00  0.00    -0.265 OA
ATOM     12  C   UNL d   1     -41.039  15.812  17.201  0.00  0.00     0.105 C 
ATOM     13  C   UNL d   1     -39.076  14.350  19.790  0.00  0.00     0.118 C 
ENDROOT
BRANCH   4  14
ATOM     14  C   UNL d   1     -38.237  15.377  16.818  0.00  0.00     0.087 C 
BRANCH  14  15
ATOM     15  C   UNL d   1     -38.163  14.892  16.156  0.00  0.00     0.019 A 
ATOM     16  C   UNL d   1     -38.088  15.231  15.398  0.00  0.00     0.014 A 
ATOM     17  C   UNL d   1     -38.014  14.745  14.735  0.00  0.00     0.068 A 
ATOM     18 CL   UNL d   1     -37.939  15.081  13.987  0.00  0.00    -0.082 Cl
ATOM     19  C   UNL d   1     -38.014  13.932  14.822  0.00  0.00     0.068 A 
ATOM     20  C   UNL d   1     -38.089  13.589  15.584  0.00  0.00     0.012 A 
ATOM     21 CL   UNL d   1     -37.940  13.446  14.160  0.00  0.00    -0.082 Cl
ATOM     22  C   UNL d   1     -38.163  14.082  16.242  0.00  0.00     0.002 A 
ENDBRANCH  14  15
ENDBRANCH   4  14
BRANCH   3  23
ATOM     23  N   UNL d   1     -40.815  14.557  20.184  0.00  0.00    -0.059 N 
ATOM     24  N   UNL d   1     -41.148  13.824  20.356  0.00  0.00    -0.151 NA
ATOM     25  C   UNL d   1     -41.451  13.855  21.129  0.00  0.00     0.103 A 
ATOM     26  C   UNL d   1     -41.834  13.236  21.525  0.00  0.00     0.022 C 
ATOM     27  C   UNL d   1     -41.300  14.612  21.426  0.00  0.00     0.041 A 
ATOM     28  C   UNL d   1     -40.909  15.041  20.841  0.00  0.00     0.102 A 
ATOM     29  C   UNL d   1     -40.654  15.825  20.907  0.00  0.00     0.021 C 
ENDBRANCH   3  23
TORSDOF 3
ENDMDL
MODEL 6
REMARK VINA RESULT:      -5.0      1.449      2.099
REMARK  3 active torsions:
REMARK  status: ('A' for Active; 'I' for Inactive)
REMARK    1  A    between atoms: N_10  and  C_3 
REMARK    2  A    between atoms: C_15  and  N_4 
REMARK    3  A    between atoms: C_20  and  C_15 
ROOT
ATOM      1  C   UNL d   1     -40.041  15.029  16.858  0.00  0.00     0.191 A 
ATOM      2  C   UNL d   1     -39.334  15.050  17.293  0.00  0.00     0.173 A 
ATOM      3  C   UNL d   1     -39.070  14.568  16.076  0.00  0.00     0.738 A 
ATOM      4  N   UNL d   1     -40.049  15.581  18.408  0.00  0.00    -0.224 N 
ATOM      5  N   UNL d   1     -39.876  14.732  16.108  0.00  0.00    -0.041 NA
ATOM      6  N   UNL d   1     -40.746  15.283  17.196  0.00  0.00    -0.240 N 
ATOM      7  C   UNL d   1     -40.750  15.559  17.972  0.00  0.00     0.343 A 
ATOM      8  C   UNL d   1     -39.343  15.327  18.068  0.00  0.00     0.288 A 
ATOM      9  N   UNL d   1     -38.733  14.763  16.806  0.00  0.00    -0.130 N 
ATOM     10  O   UNL d   1     -41.457  15.814  18.313  0.00  0.00    -0.245 OA
ATOM     11  O   UNL d   1     -38.642  15.349  18.504  0.00  0.00    -0.265 OA
ATOM     12  C   UNL d   1     -41.447  15.261  16.760  0.00  0.00     0.105 C 
ATOM     13  C   UNL d   1     -37.940  14.686  17.011  0.00  0.00     0.118 C 
ENDROOT
BRANCH   4  14
ATOM     14  C   UNL d   1     -40.056  15.860  19.188  0.00  0.00     0.087 C 
BRANCH  14  15
ATOM     15  C   UNL d   1     -40.102  15.327  19.815  0.00  0.00     0.019 A 
ATOM     16  C   UNL d   1     -39.581  15.400  20.461  0.00  0.00     0.014 A 
ATOM     17  C   UNL d   1     -39.626  14.867  21.089  0.00  0.00     0.068 A 
ATOM     18 CL   UNL d   1     -39.110  14.940  21.728  0.00  0.00    -0.082 Cl
ATOM     19  C   UNL d   1     -40.183  14.268  21.078  0.00  0.00     0.068 A 
ATOM     20  C   UNL d   1     -40.709  14.194  20.429  0.00  0.00     0.012 A 
ATOM     21 CL   UNL d   1     -40.229  13.736  21.706  0.00  0.00    -0.082 Cl
ATOM     22  C   UNL d   1     -40.656  14.731  19.804  0.00  0.00     0.002 A 
ENDBRANCH  14  15
ENDBRANCH   4  14
BRANCH   3  23
ATOM     23  N   UNL d   1     -38.665  14.260  15.425  0.00  0.00    -0.059 N 
ATOM     24  N   UNL d   1     -38.596  13.462  15.234  0.00  0.00    -0.151 NA
ATOM     25  C   UNL d   1     -38.144  13.403  14.539  0.00  0.00     0.103 A 
ATOM     26  C   UNL d   1     -37.940  12.700  14.152  0.00  0.00     0.022 C 
ATOM     27  C   UNL d   1     -37.940  14.170  14.309  0.00  0.00     0.041 A 
ATOM     28  C   UNL d   1     -38.262  14.694  14.858  0.00  0.00     0.102 A 
ATOM     29  C   UNL d   1     -38.190  15.518  14.837  0.00  0.00     0.021 C 
ENDBRANCH   3  23
TORSDOF 3
ENDMDL
