MODEL 1
REMARK VINA RESULT:      51.4      0.000      0.000
REMARK  2 active torsions:
REMARK  status: ('A' for Active; 'I' for Inactive)
REMARK    1  A    between atoms: C_18  and  N_5 
REMARK    2  A    between atoms: C_21  and  C_18 
ROOT
ATOM      1  C   UNL d   1      43.689 -15.169  37.110  0.00  0.00     0.155 A 
ATOM      2  C   UNL d   1      43.913 -15.894  36.786  0.00  0.00     0.092 A 
ATOM      3  N   UNL d   1      44.271 -14.613  37.305  0.00  0.00    -0.210 NA
ATOM      4  N   UNL d   1      45.279 -15.506  36.851  0.00  0.00    -0.258 N 
ATOM      5  N   UNL d   1      42.894 -15.003  37.239  0.00  0.00    -0.275 N 
ATOM      6  C   UNL d   1      45.059 -14.781  37.176  0.00  0.00     0.152 A 
ATOM      7  C   UNL d   1      44.710 -16.064  36.655  0.00  0.00     0.269 A 
ATOM      8  C   UNL d   1      42.541 -16.287  36.718  0.00  0.00     0.105 A 
ATOM      9  C   UNL d   1      42.314 -15.551  37.048  0.00  0.00     0.180 A 
ATOM     10  C   UNL d   1      43.336 -16.453  36.589  0.00  0.00     0.021 A 
ATOM     11  C   UNL d   1      45.629 -14.231  37.369  0.00  0.00     0.035 A 
ATOM     12  C   UNL d   1      41.966 -16.838  36.525  0.00  0.00     0.104 C 
ATOM     13  N   UNL d   1      41.393 -17.393  36.330  0.00  0.00    -0.191 NA
ATOM     14  C   UNL d   1      46.077 -15.680  36.720  0.00  0.00     0.084 A 
ATOM     15  N   UNL d   1      41.489 -15.548  37.109  0.00  0.00    -0.128 N 
ATOM     16  O   UNL d   1      44.930 -16.790  36.330  0.00  0.00    -0.266 OA
ATOM     17  C   UNL d   1      46.647 -15.114  36.919  0.00  0.00     0.019 A 
ATOM     18  C   UNL d   1      46.423 -14.390  37.244  0.00  0.00     0.005 A 
ATOM     19  C   UNL d   1      45.405 -13.506  37.694  0.00  0.00     0.003 C 
ENDROOT
BRANCH   5  20
ATOM     20  C   UNL d   1      42.678 -14.276  37.564  0.00  0.00     0.067 C 
ATOM     21  C   UNL d   1      43.172 -13.954  38.144  0.00  0.00     0.019 C 
BRANCH  20  22
ATOM     22  C   UNL d   1      42.002 -13.832  37.362  0.00  0.00     0.018 C 
ATOM     23  C   UNL d   1      41.600 -13.299  37.857  0.00  0.00     0.002 C 
ENDBRANCH  20  22
ENDBRANCH   5  20
TORSDOF 2
ENDMDL
MODEL 2
REMARK VINA RESULT:      54.0      1.181      2.426
REMARK  2 active torsions:
REMARK  status: ('A' for Active; 'I' for Inactive)
REMARK    1  A    between atoms: C_18  and  N_5 
REMARK    2  A    between atoms: C_21  and  C_18 
ROOT
ATOM      1  C   UNL d   1      44.132 -15.678  36.836  0.00  0.00     0.155 A 
ATOM      2  C   UNL d   1      43.746 -14.965  36.989  0.00  0.00     0.092 A 
ATOM      3  N   UNL d   1      44.957 -15.719  36.908  0.00  0.00    -0.210 NA
ATOM      4  N   UNL d   1      44.992 -14.348  37.282  0.00  0.00    -0.258 N 
ATOM      5  N   UNL d   1      43.700 -16.342  36.613  0.00  0.00    -0.275 N 
ATOM      6  C   UNL d   1      45.382 -15.059  37.129  0.00  0.00     0.152 A 
ATOM      7  C   UNL d   1      44.176 -14.297  37.213  0.00  0.00     0.269 A 
ATOM      8  C   UNL d   1      42.491 -15.582  36.696  0.00  0.00     0.105 A 
ATOM      9  C   UNL d   1      42.883 -16.306  36.540  0.00  0.00     0.180 A 
ATOM     10  C   UNL d   1      42.924 -14.918  36.919  0.00  0.00     0.021 A 
ATOM     11  C   UNL d   1      46.193 -15.103  37.200  0.00  0.00     0.035 A 
ATOM     12  C   UNL d   1      41.676 -15.540  36.624  0.00  0.00     0.104 C 
ATOM     13  N   UNL d   1      40.859 -15.495  36.554  0.00  0.00    -0.191 NA
ATOM     14  C   UNL d   1      45.421 -13.677  37.507  0.00  0.00     0.084 A 
ATOM     15  N   UNL d   1      42.308 -16.862  36.331  0.00  0.00    -0.128 N 
ATOM     16  O   UNL d   1      43.787 -13.586  37.366  0.00  0.00    -0.266 OA
ATOM     17  C   UNL d   1      46.244 -13.733  37.575  0.00  0.00     0.019 A 
ATOM     18  C   UNL d   1      46.630 -14.446  37.422  0.00  0.00     0.005 A 
ATOM     19  C   UNL d   1      46.579 -15.815  37.046  0.00  0.00     0.003 C 
ENDROOT
BRANCH   5  20
ATOM     20  C   UNL d   1      44.093 -17.051  36.461  0.00  0.00     0.067 C 
ATOM     21  C   UNL d   1      44.917 -17.024  36.390  0.00  0.00     0.019 C 
BRANCH  20  22
ATOM     22  C   UNL d   1      43.735 -17.799  36.371  0.00  0.00     0.018 C 
ATOM     23  C   UNL d   1      44.129 -18.529  36.342  0.00  0.00     0.002 C 
ENDBRANCH  20  22
ENDBRANCH   5  20
TORSDOF 2
ENDMDL
