MODEL 1
REMARK VINA RESULT:      90.7      0.000      0.000
REMARK  8 active torsions:
REMARK  status: ('A' for Active; 'I' for Inactive)
REMARK    1  A    between atoms: C_9  and  S_1 
REMARK    2  A    between atoms: N_10  and  S_1 
REMARK    3  A    between atoms: C_17  and  C_3 
REMARK    4  A    between atoms: C_4  and  N_14 
REMARK    5  A    between atoms: C_8  and  C_16 
REMARK       I    between atoms: N_11  and  C_8 
REMARK    6  A    between atoms: C_27  and  N_10 
REMARK    7  A    between atoms: C_28  and  N_10 
REMARK    8  A    between atoms: N_14  and  N_11 
ROOT
ATOM      1  N   UNL d   1     -48.538  28.410  34.537  0.00  0.00     0.049 NA
ENDROOT
BRANCH   1   2
ATOM      2  C   UNL d   1     -49.197  27.895  34.291  0.00  0.00     0.768 A 
ATOM      3  N   UNL d   1     -49.053  27.108  34.106  0.00  0.00    -0.058 NA
ATOM      4  C   UNL d   1     -49.672  26.631  33.876  0.00  0.00     0.101 A 
ATOM      5  C   UNL d   1     -50.449  26.914  33.822  0.00  0.00     0.037 A 
ATOM      6  C   UNL d   1     -50.570  27.719  34.015  0.00  0.00     0.101 A 
ATOM      7  C   UNL d   1     -51.065  26.445  33.594  0.00  0.00     0.010 A 
ATOM      8  N   UNL d   1     -49.964  28.210  34.246  0.00  0.00    -0.058 NA
ATOM      9  C   UNL d   1     -51.334  28.042  33.973  0.00  0.00     0.020 A 
ATOM     10  C   UNL d   1     -51.950  27.572  33.746  0.00  0.00     0.008 A 
ATOM     11  C   UNL d   1     -51.821  26.738  33.546  0.00  0.00     0.035 A 
ATOM     12 BR   UNL d   1     -52.459  26.233  33.306  0.00  0.00    -0.049 Br
BRANCH   4  13
ATOM     13  C   UNL d   1     -49.560  25.829  33.682  0.00  0.00     0.018 A 
ATOM     14  C   UNL d   1     -50.182  25.347  33.502  0.00  0.00     0.002 A 
ATOM     15  C   UNL d   1     -50.061  24.543  33.308  0.00  0.00     0.000 A 
ATOM     16  C   UNL d   1     -49.264  24.245  33.306  0.00  0.00     0.000 A 
ATOM     17  C   UNL d   1     -48.652  24.762  33.494  0.00  0.00     0.000 A 
ATOM     18  C   UNL d   1     -48.784  25.521  33.675  0.00  0.00     0.002 A 
ENDBRANCH   4  13
ENDBRANCH   1   2
BRANCH   1  19
ATOM     19  N   UNL d   1     -48.161  28.281  35.264  0.00  0.00    -0.090 NA
ATOM     20  C   UNL d   1     -47.766  28.882  35.644  0.00  0.00     0.297 C 
ATOM     21  O   UNL d   1     -47.400  28.767  36.345  0.00  0.00    -0.264 OA
BRANCH  20  22
ATOM     22  C   UNL d   1     -47.740  29.620  35.305  0.00  0.00     0.059 A 
ATOM     23  C   UNL d   1     -48.125  30.244  35.687  0.00  0.00     0.006 A 
ATOM     24  C   UNL d   1     -48.098  30.984  35.344  0.00  0.00     0.013 A 
ATOM     25  C   UNL d   1     -47.697  31.088  34.643  0.00  0.00     0.104 A 
ATOM     26  C   UNL d   1     -47.300  30.460  34.244  0.00  0.00     0.013 A 
ATOM     27  C   UNL d   1     -47.336  29.714  34.603  0.00  0.00     0.006 A 
BRANCH  25  28
ATOM     28  S   UNL d   1     -47.670  31.857  34.290  0.00  0.00     0.271 S 
ATOM     29  O   UNL d   1     -47.067  32.093  34.807  0.00  0.00    -0.200 OA
ATOM     30  O   UNL d   1     -48.277  31.663  33.750  0.00  0.00    -0.200 OA
BRANCH  28  31
ATOM     31  N   UNL d   1     -47.641  32.632  33.937  0.00  0.00    -0.229 N 
BRANCH  31  32
ATOM     32  C   UNL d   1     -48.294  32.948  33.557  0.00  0.00     0.092 C 
ATOM     33  C   UNL d   1     -48.994  33.050  33.947  0.00  0.00     0.021 C 
ENDBRANCH  31  32
BRANCH  31  34
ATOM     34  C   UNL d   1     -46.950  33.082  33.970  0.00  0.00     0.092 C 
ATOM     35  C   UNL d   1     -46.464  33.141  33.306  0.00  0.00     0.021 C 
ENDBRANCH  31  34
ENDBRANCH  28  31
ENDBRANCH  25  28
ENDBRANCH  20  22
ENDBRANCH   1  19
TORSDOF 8
ENDMDL
