MODEL 1
REMARK VINA RESULT:      -3.0      0.000      0.000
REMARK  3 active torsions:
REMARK  status: ('A' for Active; 'I' for Inactive)
REMARK    1  A    between atoms: N_3  and  C_1 
REMARK       I    between atoms: C_5  and  N_3 
REMARK    2  A    between atoms: C_10  and  C_4 
REMARK       I    between atoms: N_8  and  C_5 
REMARK    3  A    between atoms: C_11  and  N_8 
ROOT
ATOM      1  C   UNL d   1      31.904  17.406 -23.450  0.00  0.00     0.199 A 
ATOM      2  N   UNL d   1      31.854  18.216 -23.301  0.00  0.00    -0.221 NA
ATOM      3  C   UNL d   1      32.638  18.502 -23.121  0.00  0.00     0.090 A 
ATOM      4  S   UNL d   1      32.685  17.150 -23.376  0.00  0.00    -0.046 SA
ATOM      5  C   UNL d   1      33.158  17.836 -23.168  0.00  0.00     0.058 A 
ENDROOT
BRANCH   1   6
ATOM      6  N   UNL d   1      31.249  16.909 -23.651  0.00  0.00    -0.166 NA
ATOM      7  C   UNL d   1      31.316  16.408 -24.324  0.00  0.00     0.370 C 
ATOM      8  N   UNL d   1      30.662  15.912 -24.524  0.00  0.00    -0.191 NA
ATOM      9  O   UNL d   1      31.987  16.391 -24.780  0.00  0.00    -0.242 OA
BRANCH   8  10
ATOM     10  C   UNL d   1      29.987  15.931 -24.063  0.00  0.00     0.086 A 
ATOM     11  C   UNL d   1      29.336  16.393 -24.246  0.00  0.00     0.019 A 
ATOM     12  C   UNL d   1      28.660  16.401 -23.767  0.00  0.00     0.002 A 
ATOM     13  C   UNL d   1      28.641  15.932 -23.090  0.00  0.00     0.000 A 
ATOM     14  C   UNL d   1      29.285  15.463 -22.893  0.00  0.00     0.002 A 
ATOM     15  C   UNL d   1      29.949  15.472 -23.386  0.00  0.00     0.019 A 
ENDBRANCH   8  10
ENDBRANCH   1   6
BRANCH   3  16
ATOM     16  C   UNL d   1      32.838  19.282 -22.938  0.00  0.00     0.018 A 
ATOM     17  C   UNL d   1      33.014  19.837 -23.545  0.00  0.00     0.002 A 
ATOM     18  C   UNL d   1      33.209  20.599 -23.369  0.00  0.00     0.000 A 
ATOM     19  C   UNL d   1      33.241  20.851 -22.563  0.00  0.00     0.000 A 
ATOM     20  C   UNL d   1      33.068  20.304 -21.968  0.00  0.00     0.000 A 
ATOM     21  C   UNL d   1      32.870  19.528 -22.161  0.00  0.00     0.002 A 
ENDBRANCH   3  16
TORSDOF 3
ENDMDL
MODEL 2
REMARK VINA RESULT:      -2.9      0.877      1.293
REMARK  3 active torsions:
REMARK  status: ('A' for Active; 'I' for Inactive)
REMARK    1  A    between atoms: N_3  and  C_1 
REMARK       I    between atoms: C_5  and  N_3 
REMARK    2  A    between atoms: C_10  and  C_4 
REMARK       I    between atoms: N_8  and  C_5 
REMARK    3  A    between atoms: C_11  and  N_8 
ROOT
ATOM      1  C   UNL d   1      32.390  18.021 -23.601  0.00  0.00     0.199 A 
ATOM      2  N   UNL d   1      32.329  18.479 -22.917  0.00  0.00    -0.221 NA
ATOM      3  C   UNL d   1      32.857  19.146 -22.997  0.00  0.00     0.090 A 
ATOM      4  S   UNL d   1      32.933  18.358 -24.123  0.00  0.00    -0.046 SA
ATOM      5  C   UNL d   1      33.234  19.070 -23.750  0.00  0.00     0.058 A 
ENDROOT
BRANCH   1   6
ATOM      6  N   UNL d   1      31.957  17.308 -23.746  0.00  0.00    -0.166 NA
ATOM      7  C   UNL d   1      32.384  16.585 -23.810  0.00  0.00     0.370 C 
ATOM      8  N   UNL d   1      31.953  15.873 -23.954  0.00  0.00    -0.191 NA
ATOM      9  O   UNL d   1      33.192  16.558 -23.736  0.00  0.00    -0.242 OA
BRANCH   8  10
ATOM     10  C   UNL d   1      31.139  15.905 -24.028  0.00  0.00     0.086 A 
ATOM     11  C   UNL d   1      30.760  15.997 -24.748  0.00  0.00     0.019 A 
ATOM     12  C   UNL d   1      29.934  16.026 -24.805  0.00  0.00     0.002 A 
ATOM     13  C   UNL d   1      29.481  15.962 -24.119  0.00  0.00     0.000 A 
ATOM     14  C   UNL d   1      29.846  15.869 -23.390  0.00  0.00     0.002 A 
ATOM     15  C   UNL d   1      30.672  15.843 -23.359  0.00  0.00     0.019 A 
ENDBRANCH   8  10
ENDBRANCH   1   6
BRANCH   3  16
ATOM     16  C   UNL d   1      32.968  19.744 -22.439  0.00  0.00     0.018 A 
ATOM     17  C   UNL d   1      33.132  19.559 -21.634  0.00  0.00     0.002 A 
ATOM     18  C   UNL d   1      33.241  20.141 -21.087  0.00  0.00     0.000 A 
ATOM     19  C   UNL d   1      33.192  20.952 -21.318  0.00  0.00     0.000 A 
ATOM     20  C   UNL d   1      33.032  21.132 -22.109  0.00  0.00     0.000 A 
ATOM     21  C   UNL d   1      32.922  20.528 -22.658  0.00  0.00     0.002 A 
ENDBRANCH   3  16
TORSDOF 3
ENDMDL
MODEL 3
REMARK VINA RESULT:      -2.8      1.657      2.428
REMARK  3 active torsions:
REMARK  status: ('A' for Active; 'I' for Inactive)
REMARK    1  A    between atoms: N_3  and  C_1 
REMARK       I    between atoms: C_5  and  N_3 
REMARK    2  A    between atoms: C_10  and  C_4 
REMARK       I    between atoms: N_8  and  C_5 
REMARK    3  A    between atoms: C_11  and  N_8 
ROOT
ATOM      1  C   UNL d   1      32.630  19.088 -22.835  0.00  0.00     0.199 A 
ATOM      2  N   UNL d   1      32.446  19.889 -22.761  0.00  0.00    -0.221 NA
ATOM      3  C   UNL d   1      32.825  20.184 -22.054  0.00  0.00     0.090 A 
ATOM      4  S   UNL d   1      33.112  18.847 -22.210  0.00  0.00    -0.046 SA
ATOM      5  C   UNL d   1      33.241  19.533 -21.710  0.00  0.00     0.058 A 
ENDROOT
BRANCH   1   6
ATOM      6  N   UNL d   1      32.364  18.587 -23.462  0.00  0.00    -0.166 NA
ATOM      7  C   UNL d   1      32.686  18.699 -24.232  0.00  0.00     0.370 C 
ATOM      8  N   UNL d   1      32.420  18.198 -24.858  0.00  0.00    -0.191 NA
ATOM      9  O   UNL d   1      33.241  19.272 -24.383  0.00  0.00    -0.242 OA
BRANCH   8  10
ATOM     10  C   UNL d   1      31.861  17.622 -24.702  0.00  0.00     0.086 A 
ATOM     11  C   UNL d   1      31.055  17.768 -24.719  0.00  0.00     0.019 A 
ATOM     12  C   UNL d   1      30.502  17.172 -24.558  0.00  0.00     0.002 A 
ATOM     13  C   UNL d   1      30.769  16.414 -24.376  0.00  0.00     0.000 A 
ATOM     14  C   UNL d   1      31.573  16.252 -24.355  0.00  0.00     0.002 A 
ATOM     15  C   UNL d   1      32.106  16.863 -24.519  0.00  0.00     0.019 A 
ENDBRANCH   8  10
ENDBRANCH   1   6
BRANCH   3  16
ATOM     16  C   UNL d   1      32.785  20.959 -21.771  0.00  0.00     0.018 A 
ATOM     17  C   UNL d   1      32.313  21.152 -21.102  0.00  0.00     0.002 A 
ATOM     18  C   UNL d   1      32.273  21.907 -20.824  0.00  0.00     0.000 A 
ATOM     19  C   UNL d   1      32.709  22.521 -21.207  0.00  0.00     0.000 A 
ATOM     20  C   UNL d   1      33.172  22.330 -21.865  0.00  0.00     0.000 A 
ATOM     21  C   UNL d   1      33.205  21.554 -22.139  0.00  0.00     0.002 A 
ENDBRANCH   3  16
TORSDOF 3
ENDMDL
MODEL 4
REMARK VINA RESULT:      -2.5      2.799      5.416
REMARK  3 active torsions:
REMARK  status: ('A' for Active; 'I' for Inactive)
REMARK    1  A    between atoms: N_3  and  C_1 
REMARK       I    between atoms: C_5  and  N_3 
REMARK    2  A    between atoms: C_10  and  C_4 
REMARK       I    between atoms: N_8  and  C_5 
REMARK    3  A    between atoms: C_11  and  N_8 
ROOT
ATOM      1  C   UNL d   1      32.932  20.055 -21.994  0.00  0.00     0.199 A 
ATOM      2  N   UNL d   1      32.709  19.869 -22.767  0.00  0.00    -0.221 NA
ATOM      3  C   UNL d   1      32.881  19.042 -22.900  0.00  0.00     0.090 A 
ATOM      4  S   UNL d   1      33.241  19.389 -21.618  0.00  0.00    -0.046 SA
ATOM      5  C   UNL d   1      33.213  18.743 -22.182  0.00  0.00     0.058 A 
ENDROOT
BRANCH   1   6
ATOM      6  N   UNL d   1      32.854  20.819 -21.640  0.00  0.00    -0.166 NA
ATOM      7  C   UNL d   1      32.991  20.894 -20.812  0.00  0.00     0.370 C 
ATOM      8  N   UNL d   1      32.914  21.657 -20.458  0.00  0.00    -0.191 NA
ATOM      9  O   UNL d   1      33.193  20.256 -20.353  0.00  0.00    -0.242 OA
BRANCH   8  10
ATOM     10  C   UNL d   1      32.710  22.298 -20.923  0.00  0.00     0.086 A 
ATOM     11  C   UNL d   1      33.240  22.670 -21.425  0.00  0.00     0.019 A 
ATOM     12  C   UNL d   1      33.016  23.318 -21.890  0.00  0.00     0.002 A 
ATOM     13  C   UNL d   1      32.242  23.596 -21.847  0.00  0.00     0.000 A 
ATOM     14  C   UNL d   1      31.699  23.234 -21.350  0.00  0.00     0.002 A 
ATOM     15  C   UNL d   1      31.946  22.589 -20.895  0.00  0.00     0.019 A 
ENDBRANCH   8  10
ENDBRANCH   1   6
BRANCH   3  16
ATOM     16  C   UNL d   1      32.744  18.627 -23.600  0.00  0.00     0.018 A 
ATOM     17  C   UNL d   1      32.407  17.857 -23.588  0.00  0.00     0.002 A 
ATOM     18  C   UNL d   1      32.272  17.449 -24.270  0.00  0.00     0.000 A 
ATOM     19  C   UNL d   1      32.471  17.796 -25.014  0.00  0.00     0.000 A 
ATOM     20  C   UNL d   1      32.803  18.553 -25.025  0.00  0.00     0.000 A 
ATOM     21  C   UNL d   1      32.935  18.959 -24.321  0.00  0.00     0.002 A 
ENDBRANCH   3  16
TORSDOF 3
ENDMDL
MODEL 5
REMARK VINA RESULT:      -0.5      2.041      3.149
REMARK  3 active torsions:
REMARK  status: ('A' for Active; 'I' for Inactive)
REMARK    1  A    between atoms: N_3  and  C_1 
REMARK       I    between atoms: C_5  and  N_3 
REMARK    2  A    between atoms: C_10  and  C_4 
REMARK       I    between atoms: N_8  and  C_5 
REMARK    3  A    between atoms: C_11  and  N_8 
ROOT
ATOM      1  C   UNL d   1      32.845  19.586 -22.232  0.00  0.00     0.199 A 
ATOM      2  N   UNL d   1      32.588  20.370 -22.263  0.00  0.00    -0.221 NA
ATOM      3  C   UNL d   1      32.828  20.757 -21.540  0.00  0.00     0.090 A 
ATOM      4  S   UNL d   1      33.241  19.444 -21.522  0.00  0.00    -0.046 SA
ATOM      5  C   UNL d   1      33.236  20.179 -21.077  0.00  0.00     0.058 A 
ENDROOT
BRANCH   1   6
ATOM      6  N   UNL d   1      32.720  19.012 -22.840  0.00  0.00    -0.166 NA
ATOM      7  C   UNL d   1      32.927  19.212 -23.631  0.00  0.00     0.370 C 
ATOM      8  N   UNL d   1      32.803  18.638 -24.238  0.00  0.00    -0.191 NA
ATOM      9  O   UNL d   1      33.241  19.936 -23.821  0.00  0.00    -0.242 OA
BRANCH   8  10
ATOM     10  C   UNL d   1      32.487  17.909 -24.044  0.00  0.00     0.086 A 
ATOM     11  C   UNL d   1      32.948  17.267 -23.827  0.00  0.00     0.019 A 
ATOM     12  C   UNL d   1      32.611  16.536 -23.633  0.00  0.00     0.002 A 
ATOM     13  C   UNL d   1      31.792  16.450 -23.658  0.00  0.00     0.000 A 
ATOM     14  C   UNL d   1      31.316  17.083 -23.874  0.00  0.00     0.002 A 
ATOM     15  C   UNL d   1      31.676  17.804 -24.063  0.00  0.00     0.019 A 
ENDBRANCH   8  10
ENDBRANCH   1   6
BRANCH   3  16
ATOM     16  C   UNL d   1      32.683  21.545 -21.343  0.00  0.00     0.018 A 
ATOM     17  C   UNL d   1      32.187  21.745 -20.692  0.00  0.00     0.002 A 
ATOM     18  C   UNL d   1      32.044  22.513 -20.498  0.00  0.00     0.000 A 
ATOM     19  C   UNL d   1      32.394  23.135 -20.950  0.00  0.00     0.000 A 
ATOM     20  C   UNL d   1      32.881  22.938 -21.588  0.00  0.00     0.000 A 
ATOM     21  C   UNL d   1      33.019  22.148 -21.777  0.00  0.00     0.002 A 
ENDBRANCH   3  16
TORSDOF 3
ENDMDL
MODEL 6
REMARK VINA RESULT:       0.0      3.440      6.143
REMARK  3 active torsions:
REMARK  status: ('A' for Active; 'I' for Inactive)
REMARK    1  A    between atoms: N_3  and  C_1 
REMARK       I    between atoms: C_5  and  N_3 
REMARK    2  A    between atoms: C_10  and  C_4 
REMARK       I    between atoms: N_8  and  C_5 
REMARK    3  A    between atoms: C_11  and  N_8 
ROOT
ATOM      1  C   UNL d   1      32.893  21.140 -21.052  0.00  0.00     0.199 A 
ATOM      2  N   UNL d   1      32.680  20.877 -21.805  0.00  0.00    -0.221 NA
ATOM      3  C   UNL d   1      32.894  20.052 -21.867  0.00  0.00     0.090 A 
ATOM      4  S   UNL d   1      33.235  20.525 -20.621  0.00  0.00    -0.046 SA
ATOM      5  C   UNL d   1      33.241  19.832 -21.128  0.00  0.00     0.058 A 
ENDROOT
BRANCH   1   6
ATOM      6  N   UNL d   1      32.777  21.927 -20.764  0.00  0.00    -0.166 NA
ATOM      7  C   UNL d   1      32.959  22.573 -21.273  0.00  0.00     0.370 C 
ATOM      8  N   UNL d   1      32.843  23.358 -20.985  0.00  0.00    -0.191 NA
ATOM      9  O   UNL d   1      33.241  22.458 -22.025  0.00  0.00    -0.242 OA
BRANCH   8  10
ATOM     10  C   UNL d   1      32.559  23.471 -20.226  0.00  0.00     0.086 A 
ATOM     11  C   UNL d   1      31.764  23.580 -20.060  0.00  0.00     0.019 A 
ATOM     12  C   UNL d   1      31.494  23.693 -19.285  0.00  0.00     0.002 A 
ATOM     13  C   UNL d   1      32.037  23.695 -18.665  0.00  0.00     0.000 A 
ATOM     14  C   UNL d   1      32.836  23.587 -18.816  0.00  0.00     0.002 A 
ATOM     15  C   UNL d   1      33.082  23.476 -19.598  0.00  0.00     0.019 A 
ENDBRANCH   8  10
ENDBRANCH   1   6
BRANCH   3  16
ATOM     16  C   UNL d   1      32.779  19.572 -22.529  0.00  0.00     0.018 A 
ATOM     17  C   UNL d   1      33.219  19.696 -23.235  0.00  0.00     0.002 A 
ATOM     18  C   UNL d   1      33.108  19.228 -23.883  0.00  0.00     0.000 A 
ATOM     19  C   UNL d   1      32.542  18.602 -23.859  0.00  0.00     0.000 A 
ATOM     20  C   UNL d   1      32.110  18.482 -23.164  0.00  0.00     0.000 A 
ATOM     21  C   UNL d   1      32.233  18.966 -22.509  0.00  0.00     0.002 A 
ENDBRANCH   3  16
TORSDOF 3
ENDMDL
