MODEL 1
REMARK VINA RESULT:      42.2      0.000      0.000
REMARK  7 active torsions:
REMARK  status: ('A' for Active; 'I' for Inactive)
REMARK    1  A    between atoms: C_2  and  N_1 
REMARK    2  A    between atoms: C_4  and  O_6 
REMARK    3  A    between atoms: C_11  and  C_4 
REMARK    4  A    between atoms: O_6  and  C_12 
REMARK    5  A    between atoms: O_10  and  C_11 
REMARK    6  A    between atoms: C_13  and  O_10 
REMARK    7  A    between atoms: C_21  and  C_16 
ROOT
ATOM      1  C   UNL d   1     -49.377  27.198  33.879  0.00  0.00     0.325 C 
ATOM      2  O   UNL d   1     -48.641  27.209  33.495  0.00  0.00    -0.256 OA
ENDROOT
BRANCH   1   3
ATOM      3  O   UNL d   1     -49.472  27.569  34.611  0.00  0.00    -0.272 OA
BRANCH   3   4
ATOM      4  C   UNL d   1     -48.961  28.177  34.833  0.00  0.00     0.103 A 
ATOM      5  C   UNL d   1     -48.650  28.683  34.265  0.00  0.00     0.026 A 
ATOM      6  C   UNL d   1     -48.130  29.299  34.509  0.00  0.00     0.026 A 
ATOM      7  C   UNL d   1     -47.930  29.403  35.299  0.00  0.00     0.127 A 
ATOM      8  C   UNL d   1     -48.253  28.878  35.884  0.00  0.00     0.026 A 
ATOM      9  C   UNL d   1     -48.769  28.271  35.626  0.00  0.00     0.026 A 
BRANCH   7  10
ATOM     10  N   UNL d   1     -47.419  30.011  35.520  0.00  0.00    -0.114 N 
ATOM     11  O   UNL d   1     -46.698  29.893  35.912  0.00  0.00    -0.532 OA
ATOM     12  O   UNL d   1     -47.555  30.804  35.385  0.00  0.00    -0.532 OA
ENDBRANCH   7  10
ENDBRANCH   3   4
ENDBRANCH   1   3
BRANCH   1  13
ATOM     13  C   UNL d   1     -50.017  26.814  33.527  0.00  0.00     0.191 C 
BRANCH  13  14
ATOM     14  O   UNL d   1     -49.975  26.004  33.367  0.00  0.00    -0.300 OA
BRANCH  14  15
ATOM     15  C   UNL d   1     -50.687  25.534  33.360  0.00  0.00     0.100 A 
ATOM     16  C   UNL d   1     -50.639  24.714  33.316  0.00  0.00     0.025 A 
ATOM     17  C   UNL d   1     -51.328  24.259  33.309  0.00  0.00     0.002 A 
ATOM     18  C   UNL d   1     -52.063  24.624  33.346  0.00  0.00     0.000 A 
ATOM     19  C   UNL d   1     -52.114  25.447  33.390  0.00  0.00     0.002 A 
ATOM     20  C   UNL d   1     -51.426  25.902  33.397  0.00  0.00     0.025 A 
BRANCH  18  21
ATOM     21  C   UNL d   1     -52.770  24.156  33.339  0.00  0.00     0.000 C 
ATOM     22  C   UNL d   1     -52.770  23.402  33.677  0.00  0.00     0.000 C 
ENDBRANCH  18  21
ENDBRANCH  14  15
ENDBRANCH  13  14
ENDBRANCH   1  13
TORSDOF 7
ENDMDL
