MODEL 1
REMARK VINA RESULT:      43.7      0.000      0.000
REMARK  7 active torsions:
REMARK  status: ('A' for Active; 'I' for Inactive)
REMARK    1  A    between atoms: N_9  and  C_1 
REMARK    2  A    between atoms: C_10  and  C_2 
REMARK    3  A    between atoms: C_5  and  S_14 
REMARK       I    between atoms: C_13  and  N_9 
REMARK    4  A    between atoms: O_18  and  C_10 
REMARK    5  A    between atoms: C_17  and  C_13 
REMARK    6  A    between atoms: S_14  and  C_17 
REMARK    7  A    between atoms: C_23  and  O_18 
ROOT
ATOM      1  N   UNL d   1      13.112  13.823  -4.141  0.00  0.00    -0.201 NA
ATOM      2  C   UNL d   1      13.248  13.009  -4.230  0.00  0.00     0.286 C 
ATOM      3  O   UNL d   1      13.868  12.750  -4.726  0.00  0.00    -0.265 OA
ENDROOT
BRANCH   1   4
ATOM      4  C   UNL d   1      13.584  14.372  -4.537  0.00  0.00     0.119 A 
ATOM      5  C   UNL d   1      13.923  15.044  -4.200  0.00  0.00     0.088 A 
ATOM      6  C   UNL d   1      14.346  15.429  -4.795  0.00  0.00     0.013 A 
ATOM      7  C   UNL d   1      14.774  16.128  -4.704  0.00  0.00     0.001 C 
ATOM      8  C   UNL d   1      14.268  14.997  -5.494  0.00  0.00     0.031 A 
ATOM      9  S   UNL d   1      13.793  14.340  -5.330  0.00  0.00    -0.068 SA
ATOM     10  C   UNL d   1      14.600  15.185  -6.216  0.00  0.00     0.007 C 
BRANCH   5  11
ATOM     11  C   UNL d   1      13.854  15.290  -3.413  0.00  0.00     0.302 C 
ATOM     12  O   UNL d   1      13.148  15.188  -3.016  0.00  0.00    -0.259 OA
BRANCH  11  13
ATOM     13  O   UNL d   1      14.504  15.636  -3.042  0.00  0.00    -0.271 OA
BRANCH  13  14
ATOM     14  C   UNL d   1      14.437  15.942  -2.281  0.00  0.00     0.126 C 
ATOM     15  C   UNL d   1      15.099  16.266  -1.900  0.00  0.00     0.029 C 
ENDBRANCH  13  14
ENDBRANCH  11  13
ENDBRANCH   5  11
ENDBRANCH   1   4
BRANCH   2  16
ATOM     16  C   UNL d   1      12.776  12.460  -3.833  0.00  0.00     0.100 C 
BRANCH  16  17
ATOM     17  S   UNL d   1      13.116  11.782  -3.501  0.00  0.00    -0.056 SA
BRANCH  17  18
ATOM     18  C   UNL d   1      13.465  11.816  -2.744  0.00  0.00     0.141 A 
ATOM     19  N   UNL d   1      14.276  11.893  -2.593  0.00  0.00    -0.232 NA
ATOM     20  C   UNL d   1      14.378  11.904  -1.764  0.00  0.00     0.088 A 
ATOM     21  C   UNL d   1      15.048  11.968  -1.291  0.00  0.00     0.020 A 
ATOM     22  C   UNL d   1      13.625  11.833  -1.414  0.00  0.00     0.049 A 
ATOM     23  C   UNL d   1      14.973  11.962  -0.470  0.00  0.00     0.002 A 
ATOM     24  C   UNL d   1      14.220  11.891  -0.121  0.00  0.00     0.001 A 
ATOM     25  C   UNL d   1      13.549  11.827  -0.594  0.00  0.00     0.008 A 
ATOM     26  S   UNL d   1      13.063  11.779  -2.030  0.00  0.00    -0.060 SA
ENDBRANCH  17  18
ENDBRANCH  16  17
ENDBRANCH   2  16
TORSDOF 7
ENDMDL
MODEL 2
REMARK VINA RESULT:      44.9      1.655      2.647
REMARK  7 active torsions:
REMARK  status: ('A' for Active; 'I' for Inactive)
REMARK    1  A    between atoms: N_9  and  C_1 
REMARK    2  A    between atoms: C_10  and  C_2 
REMARK    3  A    between atoms: C_5  and  S_14 
REMARK       I    between atoms: C_13  and  N_9 
REMARK    4  A    between atoms: O_18  and  C_10 
REMARK    5  A    between atoms: C_17  and  C_13 
REMARK    6  A    between atoms: S_14  and  C_17 
REMARK    7  A    between atoms: C_23  and  O_18 
ROOT
ATOM      1  N   UNL d   1      13.547  13.023  -2.861  0.00  0.00    -0.201 NA
ATOM      2  C   UNL d   1      13.310  12.453  -2.305  0.00  0.00     0.286 C 
ATOM      3  O   UNL d   1      12.892  11.779  -2.565  0.00  0.00    -0.265 OA
ENDROOT
BRANCH   1   4
ATOM      4  C   UNL d   1      13.370  12.925  -3.661  0.00  0.00     0.119 A 
ATOM      5  C   UNL d   1      13.248  13.535  -4.203  0.00  0.00     0.088 A 
ATOM      6  C   UNL d   1      13.088  13.185  -4.934  0.00  0.00     0.013 A 
ATOM      7  C   UNL d   1      12.932  13.590  -5.636  0.00  0.00     0.001 C 
ATOM      8  C   UNL d   1      13.112  12.366  -4.843  0.00  0.00     0.031 A 
ATOM      9  S   UNL d   1      13.288  12.207  -4.049  0.00  0.00    -0.068 SA
ATOM     10  C   UNL d   1      12.984  11.812  -5.429  0.00  0.00     0.007 C 
BRANCH   5  11
ATOM     11  C   UNL d   1      13.279  14.347  -4.048  0.00  0.00     0.302 C 
ATOM     12  O   UNL d   1      12.904  14.649  -3.388  0.00  0.00    -0.259 OA
BRANCH  11  13
ATOM     13  O   UNL d   1      13.691  14.840  -4.564  0.00  0.00    -0.271 OA
BRANCH  13  14
ATOM     14  C   UNL d   1      14.245  15.378  -4.279  0.00  0.00     0.126 C 
ATOM     15  C   UNL d   1      14.552  15.967  -4.775  0.00  0.00     0.029 C 
ENDBRANCH  13  14
ENDBRANCH  11  13
ENDBRANCH   5  11
ENDBRANCH   1   4
BRANCH   2  16
ATOM     16  C   UNL d   1      13.487  12.551  -1.505  0.00  0.00     0.100 C 
BRANCH  16  17
ATOM     17  S   UNL d   1      14.267  12.476  -1.239  0.00  0.00    -0.056 SA
BRANCH  17  18
ATOM     18  C   UNL d   1      14.687  13.147  -0.975  0.00  0.00     0.141 A 
ATOM     19  N   UNL d   1      15.510  13.235  -0.994  0.00  0.00    -0.232 NA
ATOM     20  C   UNL d   1      15.690  13.988  -0.678  0.00  0.00     0.088 A 
ATOM     21  C   UNL d   1      16.405  14.379  -0.557  0.00  0.00     0.020 A 
ATOM     22  C   UNL d   1      14.972  14.354  -0.469  0.00  0.00     0.049 A 
ATOM     23  C   UNL d   1      16.407  15.134  -0.227  0.00  0.00     0.002 A 
ATOM     24  C   UNL d   1      15.689  15.500  -0.018  0.00  0.00     0.001 A 
ATOM     25  C   UNL d   1      14.974  15.109  -0.140  0.00  0.00     0.008 A 
ATOM     26  S   UNL d   1      14.353  13.825  -0.657  0.00  0.00    -0.060 SA
ENDBRANCH  17  18
ENDBRANCH  16  17
ENDBRANCH   2  16
TORSDOF 7
ENDMDL
