MODEL 1
REMARK VINA RESULT:      -4.0      0.000      0.000
REMARK  7 active torsions:
REMARK  status: ('A' for Active; 'I' for Inactive)
REMARK       I    between atoms: N_3  and  C_1 
REMARK    1  A    between atoms: C_10  and  C_1 
REMARK    2  A    between atoms: C_2  and  C_5 
REMARK    3  A    between atoms: O_15  and  C_2 
REMARK    4  A    between atoms: C_11  and  N_3 
REMARK    5  A    between atoms: C_4  and  C_11 
REMARK       I    between atoms: N_6  and  C_4 
REMARK    6  A    between atoms: C_14  and  N_6 
REMARK    7  A    between atoms: C_20  and  O_15 
ROOT
ATOM      1  C   UNL d   1     -41.520-123.416 -52.402  0.00  0.00     0.299 C 
ATOM      2  N   UNL d   1     -41.123-123.033 -51.791  0.00  0.00    -0.207 NA
ATOM      3  O   UNL d   1     -42.223-123.817 -52.241  0.00  0.00    -0.263 OA
ENDROOT
BRANCH   1   4
ATOM      4  C   UNL d   1     -41.225-123.402 -53.164  0.00  0.00     0.165 C 
BRANCH   4   5
ATOM      5  N   UNL d   1     -41.494-122.846 -53.707  0.00  0.00    -0.201 NA
ATOM      6  C   UNL d   1     -41.496-123.026 -54.511  0.00  0.00     0.279 C 
ATOM      7  O   UNL d   1     -41.207-123.811 -54.740  0.00  0.00    -0.265 OA
BRANCH   6   8
ATOM      8  C   UNL d   1     -41.767-122.468 -55.059  0.00  0.00     0.058 A 
ATOM      9  C   UNL d   1     -41.251-122.167 -55.629  0.00  0.00     0.005 A 
ATOM     10  C   UNL d   1     -41.521-121.614 -56.172  0.00  0.00     0.000 A 
ATOM     11  C   UNL d   1     -42.297-121.361 -56.150  0.00  0.00     0.000 A 
ATOM     12  C   UNL d   1     -42.813-121.661 -55.580  0.00  0.00     0.000 A 
ATOM     13  C   UNL d   1     -42.552-122.216 -55.033  0.00  0.00     0.005 A 
ENDBRANCH   6   8
ENDBRANCH   4   5
ENDBRANCH   1   4
BRANCH   2  14
ATOM     14  C   UNL d   1     -41.425-123.049 -51.020  0.00  0.00     0.085 A 
ATOM     15  C   UNL d   1     -41.974-122.486 -50.788  0.00  0.00     0.019 A 
ATOM     16  C   UNL d   1     -42.273-122.499 -50.027  0.00  0.00     0.007 A 
ATOM     17  C   UNL d   1     -42.021-123.083 -49.488  0.00  0.00     0.064 A 
ATOM     18  C   UNL d   1     -41.468-123.646 -49.729  0.00  0.00     0.007 A 
ATOM     19  C   UNL d   1     -41.168-123.632 -50.495  0.00  0.00     0.019 A 
BRANCH  17  20
ATOM     20  C   UNL d   1     -42.323-123.096 -48.719  0.00  0.00     0.300 C 
ATOM     21  O   UNL d   1     -43.104-123.324 -48.582  0.00  0.00    -0.259 OA
BRANCH  20  22
ATOM     22  O   UNL d   1     -41.839-122.879 -48.087  0.00  0.00    -0.271 OA
BRANCH  22  23
ATOM     23  C   UNL d   1     -42.166-122.738 -47.341  0.00  0.00     0.126 C 
ATOM     24  C   UNL d   1     -41.678-122.734 -46.676  0.00  0.00     0.029 C 
ENDBRANCH  22  23
ENDBRANCH  20  22
ENDBRANCH  17  20
ENDBRANCH   2  14
TORSDOF 7
ENDMDL
