MODEL 1
REMARK VINA RESULT:      -6.0      0.000      0.000
REMARK  2 active torsions:
REMARK  status: ('A' for Active; 'I' for Inactive)
REMARK    1  A    between atoms: C_6  and  C_3 
REMARK    2  A    between atoms: C_13  and  C_7 
ROOT
ATOM      1  C   UNL d   1      57.851  -0.024  30.557  0.00  0.00     0.018 A 
ATOM      2  C   UNL d   1      56.772  -0.064  31.797  0.00  0.00     0.000 A 
ATOM      3  C   UNL d   1      57.551  -0.745  30.815  0.00  0.00     0.002 A 
ATOM      4  C   UNL d   1      57.614   0.682  30.916  0.00  0.00     0.002 A 
ATOM      5  C   UNL d   1      57.009  -0.769  31.437  0.00  0.00     0.000 A 
ATOM      6  C   UNL d   1      57.074   0.658  31.536  0.00  0.00     0.000 A 
ENDROOT
BRANCH   1   7
ATOM      7  C   UNL d   1      58.393  -0.000  29.934  0.00  0.00     0.090 A 
ATOM      8  N   UNL d   1      59.196  -0.185  29.980  0.00  0.00    -0.219 NA
ATOM      9  C   UNL d   1      59.525  -0.086  29.232  0.00  0.00     0.215 A 
ATOM     10  S   UNL d   1      58.933   0.160  28.714  0.00  0.00    -0.045 SA
ATOM     11  N   UNL d   1      60.316  -0.212  29.029  0.00  0.00    -0.120 N 
ATOM     12  C   UNL d   1      58.229   0.215  29.146  0.00  0.00     0.058 A 
ENDBRANCH   1   7
BRANCH   2  13
ATOM     13  C   UNL d   1      56.230  -0.085  32.420  0.00  0.00     0.000 A 
ATOM     14  C   UNL d   1      56.010  -0.812  32.742  0.00  0.00     0.000 A 
ATOM     15  C   UNL d   1      55.476  -0.829  33.355  0.00  0.00     0.000 A 
ATOM     16  C   UNL d   1      55.153  -0.132  33.658  0.00  0.00     0.000 A 
ATOM     17  C   UNL d   1      55.376   0.587  33.333  0.00  0.00     0.000 A 
ATOM     18  C   UNL d   1      55.915   0.612  32.713  0.00  0.00     0.000 A 
ENDBRANCH   2  13
TORSDOF 2
ENDMDL
MODEL 2
REMARK VINA RESULT:      -5.4      2.583      4.413
REMARK  2 active torsions:
REMARK  status: ('A' for Active; 'I' for Inactive)
REMARK    1  A    between atoms: C_6  and  C_3 
REMARK    2  A    between atoms: C_13  and  C_7 
ROOT
ATOM      1  C   UNL d   1      56.469   0.077  32.443  0.00  0.00     0.018 A 
ATOM      2  C   UNL d   1      57.393  -0.289  31.134  0.00  0.00     0.000 A 
ATOM      3  C   UNL d   1      56.547  -0.706  32.204  0.00  0.00     0.002 A 
ATOM      4  C   UNL d   1      56.851   0.682  32.031  0.00  0.00     0.002 A 
ATOM      5  C   UNL d   1      57.010  -0.894  31.548  0.00  0.00     0.000 A 
ATOM      6  C   UNL d   1      57.312   0.495  31.377  0.00  0.00     0.000 A 
ENDROOT
BRANCH   1   7
ATOM      7  C   UNL d   1      56.004   0.264  33.101  0.00  0.00     0.090 A 
ATOM      8  N   UNL d   1      55.185   0.358  33.108  0.00  0.00    -0.219 NA
ATOM      9  C   UNL d   1      54.954   0.542  33.876  0.00  0.00     0.215 A 
ATOM     10  S   UNL d   1      55.626   0.564  34.355  0.00  0.00    -0.045 SA
ATOM     11  N   UNL d   1      54.181   0.682  34.132  0.00  0.00    -0.120 N 
ATOM     12  C   UNL d   1      56.279   0.392  33.877  0.00  0.00     0.058 A 
ENDBRANCH   1   7
BRANCH   2  13
ATOM     13  C   UNL d   1      57.858  -0.474  30.476  0.00  0.00     0.000 A 
ATOM     14  C   UNL d   1      58.142   0.135  29.998  0.00  0.00     0.000 A 
ATOM     15  C   UNL d   1      58.599  -0.049  29.351  0.00  0.00     0.000 A 
ATOM     16  C   UNL d   1      58.781  -0.834  29.169  0.00  0.00     0.000 A 
ATOM     17  C   UNL d   1      58.495  -1.434  29.648  0.00  0.00     0.000 A 
ATOM     18  C   UNL d   1      58.032  -1.254  30.304  0.00  0.00     0.000 A 
ENDBRANCH   2  13
TORSDOF 2
ENDMDL
MODEL 3
REMARK VINA RESULT:      -5.3      2.208      4.338
REMARK  2 active torsions:
REMARK  status: ('A' for Active; 'I' for Inactive)
REMARK    1  A    between atoms: C_6  and  C_3 
REMARK    2  A    between atoms: C_13  and  C_7 
ROOT
ATOM      1  C   UNL d   1      56.884  -0.218  31.693  0.00  0.00     0.018 A 
ATOM      2  C   UNL d   1      57.949   0.043  30.468  0.00  0.00     0.000 A 
ATOM      3  C   UNL d   1      57.252  -0.857  31.329  0.00  0.00     0.002 A 
ATOM      4  C   UNL d   1      57.045   0.555  31.449  0.00  0.00     0.002 A 
ATOM      5  C   UNL d   1      57.788  -0.730  30.713  0.00  0.00     0.000 A 
ATOM      6  C   UNL d   1      57.578   0.681  30.837  0.00  0.00     0.000 A 
ENDROOT
BRANCH   1   7
ATOM      7  C   UNL d   1      56.348  -0.346  32.310  0.00  0.00     0.090 A 
ATOM      8  N   UNL d   1      55.897   0.231  32.690  0.00  0.00    -0.219 NA
ATOM      9  C   UNL d   1      55.441  -0.139  33.266  0.00  0.00     0.215 A 
ATOM     10  S   UNL d   1      55.603  -0.948  33.251  0.00  0.00    -0.045 SA
ATOM     11  N   UNL d   1      54.909   0.232  33.778  0.00  0.00    -0.120 N 
ATOM     12  C   UNL d   1      56.165  -1.080  32.659  0.00  0.00     0.058 A 
ENDBRANCH   1   7
BRANCH   2  13
ATOM     13  C   UNL d   1      58.485   0.174  29.853  0.00  0.00     0.000 A 
ATOM     14  C   UNL d   1      59.268   0.361  30.031  0.00  0.00     0.000 A 
ATOM     15  C   UNL d   1      59.793   0.489  29.423  0.00  0.00     0.000 A 
ATOM     16  C   UNL d   1      59.552   0.434  28.635  0.00  0.00     0.000 A 
ATOM     17  C   UNL d   1      58.772   0.248  28.466  0.00  0.00     0.000 A 
ATOM     18  C   UNL d   1      58.236   0.117  29.075  0.00  0.00     0.000 A 
ENDBRANCH   2  13
TORSDOF 2
ENDMDL
