MODEL 1
REMARK VINA RESULT:      -4.3      0.000      0.000
REMARK  6 active torsions:
REMARK  status: ('A' for Active; 'I' for Inactive)
REMARK    1  A    between atoms: C_6  and  S_1 
REMARK    2  A    between atoms: N_7  and  S_1 
REMARK    3  A    between atoms: N_2  and  C_3 
REMARK       I    between atoms: C_4  and  N_2 
REMARK    4  A    between atoms: C_3  and  N_11 
REMARK    5  A    between atoms: C_5  and  C_4 
REMARK    6  A    between atoms: N_11  and  C_19 
ROOT
ATOM      1  C   UNL d   1      56.159   0.040  32.762  0.00  0.00     0.104 A 
ATOM      2  C   UNL d   1      56.323  -0.736  32.524  0.00  0.00     0.014 A 
ATOM      3  C   UNL d   1      56.393   0.681  32.305  0.00  0.00     0.014 A 
ATOM      4  C   UNL d   1      56.968  -0.213  31.344  0.00  0.00     0.084 A 
ATOM      5  C   UNL d   1      56.800   0.560  31.591  0.00  0.00     0.020 A 
ATOM      6  C   UNL d   1      56.732  -0.861  31.806  0.00  0.00     0.020 A 
ENDROOT
BRANCH   4   7
ATOM      7  N   UNL d   1      57.380  -0.329  30.622  0.00  0.00    -0.217 NA
BRANCH   7   8
ATOM      8  C   UNL d   1      58.142  -0.423  30.629  0.00  0.00     0.224 C 
ATOM      9  S   UNL d   1      58.605   0.095  30.984  0.00  0.00    -0.037 SA
BRANCH   8  10
ATOM     10  N   UNL d   1      58.599  -1.562  29.972  0.00  0.00    -0.178 NA
ATOM     11  C   UNL d   1      59.051  -1.485  29.335  0.00  0.00     0.287 C 
ATOM     12  O   UNL d   1      59.312  -2.140  28.961  0.00  0.00    -0.265 OA
BRANCH  11  13
ATOM     13  C   UNL d   1      59.239  -0.774  29.077  0.00  0.00     0.087 A 
ATOM     14  S   UNL d   1      59.876  -0.349  29.252  0.00  0.00    -0.082 SA
ATOM     15  C   UNL d   1      59.825   0.326  28.863  0.00  0.00     0.036 A 
ATOM     16  C   UNL d   1      59.180   0.329  28.456  0.00  0.00     0.008 A 
ATOM     17  C   UNL d   1      58.806  -0.340  28.575  0.00  0.00     0.012 A 
ENDBRANCH  11  13
ENDBRANCH   8  10
ENDBRANCH   7   8
ENDBRANCH   4   7
BRANCH   1  18
ATOM     18  S   UNL d   1      55.753   0.177  33.474  0.00  0.00     0.271 S 
ATOM     19  O   UNL d   1      56.382   0.616  33.771  0.00  0.00    -0.200 OA
ATOM     20  O   UNL d   1      55.102  -0.270  33.185  0.00  0.00    -0.200 OA
BRANCH  18  21
ATOM     21  N   UNL d   1      55.311   0.301  34.200  0.00  0.00    -0.226 N 
ATOM     22  C   UNL d   1      54.510   0.553  34.185  0.00  0.00     0.111 C 
ATOM     23  C   UNL d   1      55.704   0.164  34.924  0.00  0.00     0.111 C 
ENDBRANCH  18  21
ENDBRANCH   1  18
TORSDOF 6
ENDMDL
MODEL 2
REMARK VINA RESULT:      -3.9      1.434      5.118
REMARK  6 active torsions:
REMARK  status: ('A' for Active; 'I' for Inactive)
REMARK    1  A    between atoms: C_6  and  S_1 
REMARK    2  A    between atoms: N_7  and  S_1 
REMARK    3  A    between atoms: N_2  and  C_3 
REMARK       I    between atoms: C_4  and  N_2 
REMARK    4  A    between atoms: C_3  and  N_11 
REMARK    5  A    between atoms: C_5  and  C_4 
REMARK    6  A    between atoms: N_11  and  C_19 
ROOT
ATOM      1  C   UNL d   1      59.195   0.112  29.716  0.00  0.00     0.104 A 
ATOM      2  C   UNL d   1      59.277   0.143  30.539  0.00  0.00     0.014 A 
ATOM      3  C   UNL d   1      58.454   0.154  29.364  0.00  0.00     0.014 A 
ATOM      4  C   UNL d   1      57.844   0.261  30.656  0.00  0.00     0.084 A 
ATOM      5  C   UNL d   1      57.772   0.229  29.831  0.00  0.00     0.020 A 
ATOM      6  C   UNL d   1      58.592   0.218  31.012  0.00  0.00     0.020 A 
ENDROOT
BRANCH   4   7
ATOM      7  N   UNL d   1      57.151   0.337  31.123  0.00  0.00    -0.217 NA
BRANCH   7   8
ATOM      8  C   UNL d   1      57.172   0.152  31.868  0.00  0.00     0.224 C 
ATOM      9  S   UNL d   1      57.447   0.656  32.396  0.00  0.00    -0.037 SA
BRANCH   8  10
ATOM     10  N   UNL d   1      56.690  -1.118  32.172  0.00  0.00    -0.178 NA
ATOM     11  C   UNL d   1      56.156  -1.202  32.743  0.00  0.00     0.287 C 
ATOM     12  O   UNL d   1      55.882  -1.931  32.915  0.00  0.00    -0.265 OA
BRANCH  11  13
ATOM     13  C   UNL d   1      55.903  -0.575  33.131  0.00  0.00     0.087 A 
ATOM     14  S   UNL d   1      56.265  -0.186  33.710  0.00  0.00    -0.082 SA
ATOM     15  C   UNL d   1      55.801   0.402  33.927  0.00  0.00     0.036 A 
ATOM     16  C   UNL d   1      55.167   0.387  33.503  0.00  0.00     0.008 A 
ATOM     17  C   UNL d   1      55.212  -0.209  33.007  0.00  0.00     0.012 A 
ENDBRANCH  11  13
ENDBRANCH   8  10
ENDBRANCH   7   8
ENDBRANCH   4   7
BRANCH   1  18
ATOM     18  S   UNL d   1      59.869   0.037  29.236  0.00  0.00     0.271 S 
ATOM     19  O   UNL d   1      60.224   0.682  29.603  0.00  0.00    -0.200 OA
ATOM     20  O   UNL d   1      59.519  -0.624  28.852  0.00  0.00    -0.200 OA
BRANCH  18  21
ATOM     21  N   UNL d   1      60.553  -0.064  28.727  0.00  0.00    -0.226 N 
ATOM     22  C   UNL d   1      60.826  -0.826  28.508  0.00  0.00     0.111 C 
ATOM     23  C   UNL d   1      60.940   0.625  28.455  0.00  0.00     0.111 C 
ENDBRANCH  18  21
ENDBRANCH   1  18
TORSDOF 6
ENDMDL
MODEL 3
REMARK VINA RESULT:      -2.7      1.321      5.133
REMARK  6 active torsions:
REMARK  status: ('A' for Active; 'I' for Inactive)
REMARK    1  A    between atoms: C_6  and  S_1 
REMARK    2  A    between atoms: N_7  and  S_1 
REMARK    3  A    between atoms: N_2  and  C_3 
REMARK       I    between atoms: C_4  and  N_2 
REMARK    4  A    between atoms: C_3  and  N_11 
REMARK    5  A    between atoms: C_5  and  C_4 
REMARK    6  A    between atoms: N_11  and  C_19 
ROOT
ATOM      1  C   UNL d   1      58.971  -1.305  29.515  0.00  0.00     0.104 A 
ATOM      2  C   UNL d   1      58.401  -1.734  29.935  0.00  0.00     0.014 A 
ATOM      3  C   UNL d   1      58.957  -0.484  29.501  0.00  0.00     0.014 A 
ATOM      4  C   UNL d   1      57.790  -0.488  30.333  0.00  0.00     0.084 A 
ATOM      5  C   UNL d   1      58.365  -0.068  29.910  0.00  0.00     0.020 A 
ATOM      6  C   UNL d   1      57.804  -1.318  30.348  0.00  0.00     0.020 A 
ENDROOT
BRANCH   4   7
ATOM      7  N   UNL d   1      57.195  -0.063  30.744  0.00  0.00    -0.217 NA
BRANCH   7   8
ATOM      8  C   UNL d   1      57.178  -0.078  31.512  0.00  0.00     0.224 C 
ATOM      9  S   UNL d   1      57.480   0.508  31.930  0.00  0.00    -0.037 SA
BRANCH   8  10
ATOM     10  N   UNL d   1      56.580  -1.207  32.064  0.00  0.00    -0.178 NA
ATOM     11  C   UNL d   1      56.147  -1.136  32.716  0.00  0.00     0.287 C 
ATOM     12  O   UNL d   1      55.806  -1.785  33.030  0.00  0.00    -0.265 OA
BRANCH  11  13
ATOM     13  C   UNL d   1      56.057  -0.436  33.046  0.00  0.00     0.087 A 
ATOM     14  S   UNL d   1      55.435   0.042  33.004  0.00  0.00    -0.082 SA
ATOM     15  C   UNL d   1      55.598   0.681  33.422  0.00  0.00     0.036 A 
ATOM     16  C   UNL d   1      56.298   0.612  33.718  0.00  0.00     0.008 A 
ATOM     17  C   UNL d   1      56.596  -0.070  33.497  0.00  0.00     0.012 A 
ENDBRANCH  11  13
ENDBRANCH   8  10
ENDBRANCH   7   8
ENDBRANCH   4   7
BRANCH   1  18
ATOM     18  S   UNL d   1      59.569  -1.708  29.101  0.00  0.00     0.271 S 
ATOM     19  O   UNL d   1      60.092  -1.082  29.211  0.00  0.00    -0.200 OA
ATOM     20  O   UNL d   1      59.046  -2.354  28.981  0.00  0.00    -0.200 OA
BRANCH  18  21
ATOM     21  N   UNL d   1      60.167  -2.146  28.670  0.00  0.00    -0.226 N 
ATOM     22  C   UNL d   1      60.904  -1.798  28.469  0.00  0.00     0.111 C 
ATOM     23  C   UNL d   1      59.993  -2.934  28.455  0.00  0.00     0.111 C 
ENDBRANCH  18  21
ENDBRANCH   1  18
TORSDOF 6
ENDMDL
