MODEL 1
REMARK VINA RESULT:      85.4      0.000      0.000
REMARK  6 active torsions:
REMARK  status: ('A' for Active; 'I' for Inactive)
REMARK    1  A    between atoms: C_7  and  C_1 
REMARK    2  A    between atoms: O_11  and  C_2 
REMARK    3  A    between atoms: O_13  and  C_10 
REMARK    4  A    between atoms: C_20  and  O_11 
REMARK    5  A    between atoms: C_21  and  C_12 
REMARK    6  A    between atoms: C_14  and  O_13 
ROOT
ATOM      1  C   UNL d   1      60.783  48.676  51.527  0.00  0.00     0.197 A 
ATOM      2  C   UNL d   1      60.483  48.919  50.774  0.00  0.00     0.165 A 
ATOM      3  O   UNL d   1      61.160  47.943  51.600  0.00  0.00    -0.301 OA
ATOM      4  C   UNL d   1      60.578  48.411  50.130  0.00  0.00     0.222 A 
ATOM      5  C   UNL d   1      60.954  47.679  50.202  0.00  0.00     0.064 A 
ATOM      6  C   UNL d   1      61.247  47.451  50.958  0.00  0.00     0.105 A 
ATOM      7  C   UNL d   1      61.039  47.191  49.560  0.00  0.00     0.007 A 
ATOM      8  C   UNL d   1      61.624  46.719  51.034  0.00  0.00     0.050 A 
ATOM      9  C   UNL d   1      61.709  46.229  50.384  0.00  0.00     0.105 A 
ATOM     10  C   UNL d   1      61.415  46.462  49.636  0.00  0.00     0.023 A 
ATOM     11  O   UNL d   1      60.274  48.662  49.376  0.00  0.00    -0.284 OA
ENDROOT
BRANCH   2  12
ATOM     12  O   UNL d   1      60.104  49.647  50.683  0.00  0.00    -0.302 OA
BRANCH  12  13
ATOM     13  C   UNL d   1      59.317  49.667  50.463  0.00  0.00     0.100 A 
ATOM     14  C   UNL d   1      59.091  49.682  49.664  0.00  0.00     0.025 A 
ATOM     15  C   UNL d   1      58.310  49.702  49.473  0.00  0.00     0.002 A 
ATOM     16  C   UNL d   1      57.723  49.707  50.056  0.00  0.00     0.000 A 
ATOM     17  C   UNL d   1      57.950  49.693  50.828  0.00  0.00     0.002 A 
ATOM     18  C   UNL d   1      58.731  49.673  51.047  0.00  0.00     0.025 A 
ENDBRANCH  12  13
ENDBRANCH   2  12
BRANCH   1  19
ATOM     19  C   UNL d   1      60.708  49.155  52.195  0.00  0.00     0.442 C 
ATOM     20  F   UNL d   1      60.638  49.647  52.872  0.00  0.00    -0.164 F 
ATOM     21  F   UNL d   1      60.018  48.738  52.426  0.00  0.00    -0.164 F 
ATOM     22  F   UNL d   1      61.401  49.574  51.961  0.00  0.00    -0.164 F 
ENDBRANCH   1  19
BRANCH  10  23
ATOM     23  C   UNL d   1      61.490  45.983  48.968  0.00  0.00     0.002 C 
ATOM     24  C   UNL d   1      61.293  45.317  48.994  0.00  0.00     0.000 C 
ENDBRANCH  10  23
BRANCH   9  25
ATOM     25  O   UNL d   1      62.086  45.504  50.475  0.00  0.00    -0.273 OA
BRANCH  25  26
ATOM     26  C   UNL d   1      61.681  44.851  50.770  0.00  0.00     0.300 C 
ATOM     27  O   UNL d   1      61.885  44.528  51.510  0.00  0.00    -0.259 OA
ATOM     28  C   UNL d   1      61.079  44.509  50.349  0.00  0.00     0.074 C 
ENDBRANCH  25  26
ENDBRANCH   9  25
TORSDOF 6
ENDMDL
MODEL 2
REMARK VINA RESULT:      87.0      1.431      4.096
REMARK  6 active torsions:
REMARK  status: ('A' for Active; 'I' for Inactive)
REMARK    1  A    between atoms: C_7  and  C_1 
REMARK    2  A    between atoms: O_11  and  C_2 
REMARK    3  A    between atoms: O_13  and  C_10 
REMARK    4  A    between atoms: C_20  and  O_11 
REMARK    5  A    between atoms: C_21  and  C_12 
REMARK    6  A    between atoms: C_14  and  O_13 
ROOT
ATOM      1  C   UNL d   1      60.493  48.962  51.121  0.00  0.00     0.197 A 
ATOM      2  C   UNL d   1      60.540  48.312  50.581  0.00  0.00     0.165 A 
ATOM      3  O   UNL d   1      59.773  49.357  51.224  0.00  0.00    -0.301 OA
ATOM      4  C   UNL d   1      59.859  48.091  50.171  0.00  0.00     0.222 A 
ATOM      5  C   UNL d   1      59.139  48.484  50.273  0.00  0.00     0.064 A 
ATOM      6  C   UNL d   1      59.108  49.130  50.814  0.00  0.00     0.105 A 
ATOM      7  C   UNL d   1      58.478  48.256  49.862  0.00  0.00     0.007 A 
ATOM      8  C   UNL d   1      58.390  49.526  50.918  0.00  0.00     0.050 A 
ATOM      9  C   UNL d   1      57.725  49.292  50.502  0.00  0.00     0.105 A 
ATOM     10  C   UNL d   1      57.763  48.651  49.966  0.00  0.00     0.023 A 
ATOM     11  O   UNL d   1      59.913  47.436  49.629  0.00  0.00    -0.284 OA
ENDROOT
BRANCH   2  12
ATOM     12  O   UNL d   1      61.250  47.906  50.466  0.00  0.00    -0.302 OA
BRANCH  12  13
ATOM     13  C   UNL d   1      61.234  47.110  50.285  0.00  0.00     0.100 A 
ATOM     14  C   UNL d   1      60.780  46.574  50.727  0.00  0.00     0.025 A 
ATOM     15  C   UNL d   1      60.781  45.794  50.529  0.00  0.00     0.002 A 
ATOM     16  C   UNL d   1      61.226  45.512  49.892  0.00  0.00     0.000 A 
ATOM     17  C   UNL d   1      61.663  46.037  49.468  0.00  0.00     0.002 A 
ATOM     18  C   UNL d   1      61.680  46.828  49.648  0.00  0.00     0.025 A 
ENDBRANCH  12  13
ENDBRANCH   2  12
BRANCH   1  19
ATOM     19  C   UNL d   1      61.151  49.213  51.551  0.00  0.00     0.442 C 
ATOM     20  F   UNL d   1      61.819  49.465  51.993  0.00  0.00    -0.164 F 
ATOM     21  F   UNL d   1      61.389  49.704  50.913  0.00  0.00    -0.164 F 
ATOM     22  F   UNL d   1      60.911  48.720  52.190  0.00  0.00    -0.164 F 
ENDBRANCH   1  19
BRANCH  10  23
ATOM     23  C   UNL d   1      57.105  48.399  49.537  0.00  0.00     0.002 C 
ATOM     24  C   UNL d   1      57.004  47.722  49.420  0.00  0.00     0.000 C 
ENDBRANCH  10  23
BRANCH   9  25
ATOM     25  O   UNL d   1      57.018  49.696  50.616  0.00  0.00    -0.273 OA
BRANCH  25  26
ATOM     26  C   UNL d   1      56.393  49.347  51.022  0.00  0.00     0.300 C 
ATOM     27  O   UNL d   1      56.089  49.699  51.713  0.00  0.00    -0.259 OA
ATOM     28  C   UNL d   1      56.059  48.656  50.760  0.00  0.00     0.074 C 
ENDBRANCH  25  26
ENDBRANCH   9  25
TORSDOF 6
ENDMDL
