MODEL 1
REMARK VINA RESULT:      -5.7      0.000      0.000
REMARK  6 active torsions:
REMARK  status: ('A' for Active; 'I' for Inactive)
REMARK    1  A    between atoms: S_6  and  C_2 
REMARK    2  A    between atoms: C_9  and  S_6 
REMARK    3  A    between atoms: C_7  and  C_9 
REMARK    4  A    between atoms: C_8  and  C_7 
REMARK    5  A    between atoms: O_12  and  C_15 
REMARK    6  A    between atoms: C_18  and  O_12 
ROOT
ATOM      1  C   UNL d   1     -41.682-122.478 -51.031  0.00  0.00     0.040 A 
ATOM      2  C   UNL d   1     -42.269-122.219 -50.520  0.00  0.00     0.005 A 
ATOM      3  C   UNL d   1     -41.287-123.202 -50.872  0.00  0.00     0.005 A 
ATOM      4  C   UNL d   1     -42.085-123.372 -49.694  0.00  0.00     0.100 A 
ATOM      5  C   UNL d   1     -42.472-122.658 -49.855  0.00  0.00     0.025 A 
ATOM      6  C   UNL d   1     -41.493-123.639 -50.207  0.00  0.00     0.025 A 
ENDROOT
BRANCH   1   7
ATOM      7  C   UNL d   1     -41.480-122.042 -51.692  0.00  0.00     0.202 C 
ATOM      8  O   UNL d   1     -41.123-121.300 -51.596  0.00  0.00    -0.286 OA
BRANCH   7   9
ATOM      9  C   UNL d   1     -41.630-122.338 -52.447  0.00  0.00     0.080 C 
BRANCH   9  10
ATOM     10  S   UNL d   1     -41.167-122.084 -53.088  0.00  0.00    -0.043 SA
BRANCH  10  11
ATOM     11  C   UNL d   1     -41.389-122.278 -53.862  0.00  0.00     0.233 A 
ATOM     12  N   UNL d   1     -41.766-121.783 -54.399  0.00  0.00    -0.029 NA
ATOM     13  C   UNL d   1     -41.882-122.199 -55.100  0.00  0.00     0.788 A 
ATOM     14  N   UNL d   1     -41.576-122.951 -54.995  0.00  0.00     0.050 NA
ATOM     15  N   UNL d   1     -42.242-121.902 -55.781  0.00  0.00     0.064 N 
ATOM     16  N   UNL d   1     -41.270-123.009 -54.236  0.00  0.00    -0.105 NA
ENDBRANCH  10  11
ENDBRANCH   9  10
ENDBRANCH   7   9
ENDBRANCH   1   7
BRANCH   4  17
ATOM     17  O   UNL d   1     -42.283-123.817 -49.031  0.00  0.00    -0.307 OA
BRANCH  17  18
ATOM     18  C   UNL d   1     -42.057-123.558 -48.279  0.00  0.00     0.100 A 
ATOM     19  C   UNL d   1     -41.345-123.795 -47.957  0.00  0.00     0.025 A 
ATOM     20  C   UNL d   1     -41.124-123.538 -47.213  0.00  0.00     0.002 A 
ATOM     21  C   UNL d   1     -41.621-123.036 -46.781  0.00  0.00     0.000 A 
ATOM     22  C   UNL d   1     -42.342-122.795 -47.104  0.00  0.00     0.002 A 
ATOM     23  C   UNL d   1     -42.564-123.055 -47.856  0.00  0.00     0.025 A 
ENDBRANCH  17  18
ENDBRANCH   4  17
TORSDOF 6
ENDMDL
MODEL 2
REMARK VINA RESULT:      -4.4      0.920      1.097
REMARK  6 active torsions:
REMARK  status: ('A' for Active; 'I' for Inactive)
REMARK    1  A    between atoms: S_6  and  C_2 
REMARK    2  A    between atoms: C_9  and  S_6 
REMARK    3  A    between atoms: C_7  and  C_9 
REMARK    4  A    between atoms: C_8  and  C_7 
REMARK    5  A    between atoms: O_12  and  C_15 
REMARK    6  A    between atoms: C_18  and  O_12 
ROOT
ATOM      1  C   UNL d   1     -41.806-122.937 -51.359  0.00  0.00     0.040 A 
ATOM      2  C   UNL d   1     -42.477-123.303 -51.059  0.00  0.00     0.005 A 
ATOM      3  C   UNL d   1     -41.385-122.392 -50.878  0.00  0.00     0.005 A 
ATOM      4  C   UNL d   1     -42.326-122.606 -49.820  0.00  0.00     0.100 A 
ATOM      5  C   UNL d   1     -42.739-123.143 -50.297  0.00  0.00     0.025 A 
ATOM      6  C   UNL d   1     -41.649-122.234 -50.116  0.00  0.00     0.025 A 
ENDROOT
BRANCH   1   7
ATOM      7  C   UNL d   1     -41.546-123.096 -52.117  0.00  0.00     0.202 C 
ATOM      8  O   UNL d   1     -41.123-123.794 -52.264  0.00  0.00    -0.286 OA
BRANCH   7   9
ATOM      9  C   UNL d   1     -41.703-122.567 -52.729  0.00  0.00     0.080 C 
BRANCH   9  10
ATOM     10  S   UNL d   1     -41.470-122.754 -53.505  0.00  0.00    -0.043 SA
BRANCH  10  11
ATOM     11  C   UNL d   1     -41.800-122.346 -54.146  0.00  0.00     0.233 A 
ATOM     12  N   UNL d   1     -41.662-122.498 -54.942  0.00  0.00    -0.029 NA
ATOM     13  C   UNL d   1     -42.100-121.962 -55.389  0.00  0.00     0.788 A 
ATOM     14  N   UNL d   1     -42.507-121.480 -54.867  0.00  0.00     0.050 NA
ATOM     15  N   UNL d   1     -42.118-121.926 -56.213  0.00  0.00     0.064 N 
ATOM     16  N   UNL d   1     -42.329-121.708 -54.100  0.00  0.00    -0.105 NA
ENDBRANCH  10  11
ENDBRANCH   9  10
ENDBRANCH   7   9
ENDBRANCH   1   7
BRANCH   4  17
ATOM     17  O   UNL d   1     -42.582-122.441 -49.055  0.00  0.00    -0.307 OA
BRANCH  17  18
ATOM     18  C   UNL d   1     -42.267-122.860 -48.415  0.00  0.00     0.100 A 
ATOM     19  C   UNL d   1     -41.490-122.748 -48.190  0.00  0.00     0.025 A 
ATOM     20  C   UNL d   1     -41.181-123.163 -47.558  0.00  0.00     0.002 A 
ATOM     21  C   UNL d   1     -41.654-123.701 -47.141  0.00  0.00     0.000 A 
ATOM     22  C   UNL d   1     -42.441-123.816 -47.367  0.00  0.00     0.002 A 
ATOM     23  C   UNL d   1     -42.751-123.396 -48.006  0.00  0.00     0.025 A 
ENDBRANCH  17  18
ENDBRANCH   4  17
TORSDOF 6
ENDMDL
