MODEL 1
REMARK VINA RESULT:      -6.1      0.000      0.000
REMARK  3 active torsions:
REMARK  status: ('A' for Active; 'I' for Inactive)
REMARK    1  A    between atoms: C_6  and  N_1 
REMARK    2  A    between atoms: C_3  and  C_2 
REMARK       I    between atoms: N_4  and  C_3 
REMARK    3  A    between atoms: C_9  and  N_4 
ROOT
ATOM      1  C   UNL d   1     -41.568-122.563 -51.415  0.00  0.00     0.069 A 
ATOM      2  C   UNL d   1     -42.088-122.219 -50.872  0.00  0.00     0.064 A 
ATOM      3  C   UNL d   1     -41.718-123.200 -49.898  0.00  0.00     0.128 A 
ATOM      4  C   UNL d   1     -42.164-122.536 -50.117  0.00  0.00     0.035 A 
ATOM      5  C   UNL d   1     -41.123-123.227 -51.197  0.00  0.00     0.007 A 
ATOM      6  C   UNL d   1     -41.200-123.545 -50.437  0.00  0.00     0.024 A 
ATOM      7 CL   UNL d   1     -42.535-121.558 -51.082  0.00  0.00    -0.082 Cl
ENDROOT
BRANCH   1   8
ATOM      8  C   UNL d   1     -41.492-122.246 -52.172  0.00  0.00     0.281 C 
ATOM      9  N   UNL d   1     -41.762-122.670 -52.826  0.00  0.00    -0.189 NA
ATOM     10  O   UNL d   1     -41.146-121.505 -52.271  0.00  0.00    -0.265 OA
BRANCH   9  11
ATOM     11  C   UNL d   1     -41.780-122.535 -53.642  0.00  0.00     0.166 A 
ATOM     12  N   UNL d   1     -42.330-122.005 -53.957  0.00  0.00    -0.225 NA
ATOM     13  C   UNL d   1     -42.335-121.883 -54.764  0.00  0.00     0.101 A 
ATOM     14  C   UNL d   1     -41.806-122.277 -55.256  0.00  0.00     0.021 A 
ATOM     15  C   UNL d   1     -41.262-122.803 -54.938  0.00  0.00     0.005 A 
ATOM     16  C   UNL d   1     -41.246-122.936 -54.125  0.00  0.00     0.039 A 
ENDBRANCH   9  11
ENDBRANCH   1   8
BRANCH   3  17
ATOM     17  N   UNL d   1     -41.799-123.514 -49.136  0.00  0.00    -0.114 N 
ATOM     18  O   UNL d   1     -42.529-123.813 -48.894  0.00  0.00    -0.532 OA
ATOM     19  O   UNL d   1     -41.156-123.529 -48.621  0.00  0.00    -0.532 OA
ENDBRANCH   3  17
TORSDOF 3
ENDMDL
MODEL 2
REMARK VINA RESULT:      -5.7      1.814      4.517
REMARK  3 active torsions:
REMARK  status: ('A' for Active; 'I' for Inactive)
REMARK    1  A    between atoms: C_6  and  N_1 
REMARK    2  A    between atoms: C_3  and  C_2 
REMARK       I    between atoms: N_4  and  C_3 
REMARK    3  A    between atoms: C_9  and  N_4 
ROOT
ATOM      1  C   UNL d   1     -41.757-122.669 -53.357  0.00  0.00     0.069 A 
ATOM      2  C   UNL d   1     -41.540-123.087 -54.037  0.00  0.00     0.064 A 
ATOM      3  C   UNL d   1     -42.087-122.047 -54.852  0.00  0.00     0.128 A 
ATOM      4  C   UNL d   1     -41.704-122.778 -54.781  0.00  0.00     0.035 A 
ATOM      5  C   UNL d   1     -42.140-121.937 -53.428  0.00  0.00     0.007 A 
ATOM      6  C   UNL d   1     -42.304-121.627 -54.178  0.00  0.00     0.024 A 
ATOM      7 CL   UNL d   1     -41.159-123.816 -53.974  0.00  0.00    -0.082 Cl
ENDROOT
BRANCH   1   8
ATOM      8  C   UNL d   1     -41.593-122.978 -52.612  0.00  0.00     0.281 C 
ATOM      9  N   UNL d   1     -41.899-122.614 -51.938  0.00  0.00    -0.189 NA
ATOM     10  O   UNL d   1     -41.123-123.652 -52.544  0.00  0.00    -0.265 OA
BRANCH   9  11
ATOM     11  C   UNL d   1     -41.855-122.760 -51.124  0.00  0.00     0.166 A 
ATOM     12  N   UNL d   1     -42.484-123.136 -50.742  0.00  0.00    -0.225 NA
ATOM     13  C   UNL d   1     -42.426-123.273 -49.940  0.00  0.00     0.101 A 
ATOM     14  C   UNL d   1     -41.757-123.044 -49.517  0.00  0.00     0.021 A 
ATOM     15  C   UNL d   1     -41.136-122.671 -49.902  0.00  0.00     0.005 A 
ATOM     16  C   UNL d   1     -41.182-122.526 -50.712  0.00  0.00     0.039 A 
ENDBRANCH   9  11
ENDBRANCH   1   8
BRANCH   3  17
ATOM     17  N   UNL d   1     -42.249-121.741 -55.605  0.00  0.00    -0.114 N 
ATOM     18  O   UNL d   1     -41.719-121.214 -55.953  0.00  0.00    -0.532 OA
ATOM     19  O   UNL d   1     -42.935-121.960 -56.005  0.00  0.00    -0.532 OA
ENDBRANCH   3  17
TORSDOF 3
ENDMDL
MODEL 3
REMARK VINA RESULT:      -4.9      1.588      2.089
REMARK  3 active torsions:
REMARK  status: ('A' for Active; 'I' for Inactive)
REMARK    1  A    between atoms: C_6  and  N_1 
REMARK    2  A    between atoms: C_3  and  C_2 
REMARK       I    between atoms: N_4  and  C_3 
REMARK    3  A    between atoms: C_9  and  N_4 
ROOT
ATOM      1  C   UNL d   1     -41.948-123.343 -49.757  0.00  0.00     0.069 A 
ATOM      2  C   UNL d   1     -42.539-122.975 -49.311  0.00  0.00     0.064 A 
ATOM      3  C   UNL d   1     -41.775-123.192 -48.121  0.00  0.00     0.128 A 
ATOM      4  C   UNL d   1     -42.454-122.900 -48.496  0.00  0.00     0.035 A 
ATOM      5  C   UNL d   1     -41.269-123.636 -49.382  0.00  0.00     0.007 A 
ATOM      6  C   UNL d   1     -41.185-123.559 -48.562  0.00  0.00     0.024 A 
ATOM      7 CL   UNL d   1     -43.218-122.682 -49.677  0.00  0.00    -0.082 Cl
ENDROOT
BRANCH   1   8
ATOM      8  C   UNL d   1     -42.033-123.419 -50.573  0.00  0.00     0.281 C 
ATOM      9  N   UNL d   1     -41.466-123.098 -51.078  0.00  0.00    -0.189 NA
ATOM     10  O   UNL d   1     -42.687-123.817 -50.880  0.00  0.00    -0.265 OA
BRANCH   9  11
ATOM     11  C   UNL d   1     -41.368-123.065 -51.900  0.00  0.00     0.166 A 
ATOM     12  N   UNL d   1     -41.419-123.758 -52.345  0.00  0.00    -0.225 NA
ATOM     13  C   UNL d   1     -41.320-123.710 -53.154  0.00  0.00     0.101 A 
ATOM     14  C   UNL d   1     -41.172-122.987 -53.521  0.00  0.00     0.021 A 
ATOM     15  C   UNL d   1     -41.123-122.302 -53.073  0.00  0.00     0.005 A 
ATOM     16  C   UNL d   1     -41.221-122.337 -52.255  0.00  0.00     0.039 A 
ENDBRANCH   9  11
ENDBRANCH   1   8
BRANCH   3  17
ATOM     17  N   UNL d   1     -41.696-123.113 -47.300  0.00  0.00    -0.114 N 
ATOM     18  O   UNL d   1     -41.622-122.361 -46.969  0.00  0.00    -0.532 OA
ATOM     19  O   UNL d   1     -41.690-123.780 -46.816  0.00  0.00    -0.532 OA
ENDBRANCH   3  17
TORSDOF 3
ENDMDL
