MODEL 1
REMARK VINA RESULT:      -6.3      0.000      0.000
REMARK  4 active torsions:
REMARK  status: ('A' for Active; 'I' for Inactive)
REMARK    1  A    between atoms: N_4  and  S_1 
REMARK    2  A    between atoms: C_5  and  S_1 
REMARK    3  A    between atoms: C_3  and  C_9 
REMARK    4  A    between atoms: C_14  and  N_4 
ROOT
ATOM      1  S   UNL d   1      57.816  -0.021  31.002  0.00  0.00     0.285 S 
ATOM      2  O   UNL d   1      58.589   0.055  31.273  0.00  0.00    -0.198 OA
ATOM      3  O   UNL d   1      57.136  -0.108  30.542  0.00  0.00    -0.198 OA
ENDROOT
BRANCH   1   4
ATOM      4  N   UNL d   1      57.659  -0.101  30.199  0.00  0.00    -0.158 NA
BRANCH   4   5
ATOM      5  C   UNL d   1      58.278  -0.253  29.672  0.00  0.00     0.094 A 
ATOM      6  C   UNL d   1      58.514  -1.031  29.520  0.00  0.00     0.021 A 
ATOM      7  C   UNL d   1      59.128  -1.176  28.997  0.00  0.00     0.020 A 
ATOM      8  C   UNL d   1      59.515  -0.547  28.619  0.00  0.00     0.002 A 
ATOM      9  C   UNL d   1      59.284   0.221  28.769  0.00  0.00     0.002 A 
ATOM     10  C   UNL d   1      58.665   0.377  29.295  0.00  0.00     0.020 A 
BRANCH   7  11
ATOM     11  C   UNL d   1      59.364  -1.955  28.845  0.00  0.00     0.088 A 
ATOM     12  N   UNL d   1      60.583  -2.685  28.992  0.00  0.00    -0.238 NA
ATOM     13  C   UNL d   1      60.209  -3.371  28.689  0.00  0.00     0.111 A 
ATOM     14  C   UNL d   1      60.634  -4.072  28.613  0.00  0.00     0.028 C 
ATOM     15  S   UNL d   1      59.414  -3.351  28.463  0.00  0.00    -0.066 SA
ATOM     16  C   UNL d   1      58.992  -2.636  28.543  0.00  0.00     0.056 A 
ENDBRANCH   7  11
ENDBRANCH   4   5
ENDBRANCH   1   4
BRANCH   1  17
ATOM     17  C   UNL d   1      57.195  -0.018  31.546  0.00  0.00     0.105 A 
ATOM     18  C   UNL d   1      56.986  -0.717  31.932  0.00  0.00     0.013 A 
ATOM     19  C   UNL d   1      56.359  -0.710  32.480  0.00  0.00     0.001 A 
ATOM     20  C   UNL d   1      56.153  -1.414  32.864  0.00  0.00     0.000 A 
ATOM     21  C   UNL d   1      55.952  -0.012  32.634  0.00  0.00     0.000 A 
ATOM     22  C   UNL d   1      55.532  -1.405  33.407  0.00  0.00     0.000 A 
ATOM     23  C   UNL d   1      55.122  -0.706  33.563  0.00  0.00     0.000 A 
ATOM     24  C   UNL d   1      55.330  -0.012  33.179  0.00  0.00     0.000 A 
ATOM     25  C   UNL d   1      56.166   0.680  32.245  0.00  0.00     0.001 A 
ATOM     26  C   UNL d   1      56.785   0.681  31.703  0.00  0.00     0.013 A 
ENDBRANCH   1  17
TORSDOF 4
ENDMDL
MODEL 2
REMARK VINA RESULT:      -5.4      0.987      1.271
REMARK  4 active torsions:
REMARK  status: ('A' for Active; 'I' for Inactive)
REMARK    1  A    between atoms: N_4  and  S_1 
REMARK    2  A    between atoms: C_5  and  S_1 
REMARK    3  A    between atoms: C_3  and  C_9 
REMARK    4  A    between atoms: C_14  and  N_4 
ROOT
ATOM      1  S   UNL d   1      57.309  -0.170  31.459  0.00  0.00     0.285 S 
ATOM      2  O   UNL d   1      56.997  -0.825  31.072  0.00  0.00    -0.198 OA
ATOM      3  O   UNL d   1      57.743   0.499  31.675  0.00  0.00    -0.198 OA
ENDROOT
BRANCH   1   4
ATOM      4  N   UNL d   1      57.912   0.272  31.117  0.00  0.00    -0.158 NA
BRANCH   4   5
ATOM      5  C   UNL d   1      58.108   0.154  30.322  0.00  0.00     0.094 A 
ATOM      6  C   UNL d   1      58.577  -0.490  30.100  0.00  0.00     0.021 A 
ATOM      7  C   UNL d   1      58.768  -0.603  29.311  0.00  0.00     0.020 A 
ATOM      8  C   UNL d   1      58.493  -0.075  28.733  0.00  0.00     0.002 A 
ATOM      9  C   UNL d   1      58.029   0.561  28.951  0.00  0.00     0.002 A 
ATOM     10  C   UNL d   1      57.832   0.682  29.745  0.00  0.00     0.020 A 
BRANCH   7  11
ATOM     11  C   UNL d   1      59.238  -1.247  29.089  0.00  0.00     0.088 A 
ATOM     12  N   UNL d   1      59.122  -2.666  29.208  0.00  0.00    -0.238 NA
ATOM     13  C   UNL d   1      59.860  -2.758  28.822  0.00  0.00     0.111 A 
ATOM     14  C   UNL d   1      60.165  -3.512  28.691  0.00  0.00     0.028 C 
ATOM     15  S   UNL d   1      60.289  -2.098  28.568  0.00  0.00    -0.066 SA
ATOM     16  C   UNL d   1      59.971  -1.339  28.705  0.00  0.00     0.056 A 
ENDBRANCH   7  11
ENDBRANCH   4   5
ENDBRANCH   1   4
BRANCH   1  17
ATOM     17  C   UNL d   1      57.010   0.044  32.199  0.00  0.00     0.105 A 
ATOM     18  C   UNL d   1      56.220  -0.111  32.380  0.00  0.00     0.013 A 
ATOM     19  C   UNL d   1      55.921   0.105  33.127  0.00  0.00     0.001 A 
ATOM     20  C   UNL d   1      55.128  -0.052  33.304  0.00  0.00     0.000 A 
ATOM     21  C   UNL d   1      56.410   0.470  33.678  0.00  0.00     0.000 A 
ATOM     22  C   UNL d   1      54.834   0.163  34.043  0.00  0.00     0.000 A 
ATOM     23  C   UNL d   1      55.322   0.529  34.599  0.00  0.00     0.000 A 
ATOM     24  C   UNL d   1      56.108   0.682  34.418  0.00  0.00     0.000 A 
ATOM     25  C   UNL d   1      57.197   0.620  33.490  0.00  0.00     0.001 A 
ATOM     26  C   UNL d   1      57.499   0.410  32.754  0.00  0.00     0.013 A 
ENDBRANCH   1  17
TORSDOF 4
ENDMDL
MODEL 3
REMARK VINA RESULT:      -3.6      1.304      5.153
REMARK  4 active torsions:
REMARK  status: ('A' for Active; 'I' for Inactive)
REMARK    1  A    between atoms: N_4  and  S_1 
REMARK    2  A    between atoms: C_5  and  S_1 
REMARK    3  A    between atoms: C_3  and  C_9 
REMARK    4  A    between atoms: C_14  and  N_4 
ROOT
ATOM      1  S   UNL d   1      58.946  -1.318  29.095  0.00  0.00     0.285 S 
ATOM      2  O   UNL d   1      58.395  -1.118  28.518  0.00  0.00    -0.198 OA
ATOM      3  O   UNL d   1      59.409  -1.360  29.778  0.00  0.00    -0.198 OA
ENDROOT
BRANCH   1   4
ATOM      4  N   UNL d   1      58.982  -0.903  29.804  0.00  0.00    -0.158 NA
BRANCH   4   5
ATOM      5  C   UNL d   1      58.363  -0.397  30.015  0.00  0.00     0.094 A 
ATOM      6  C   UNL d   1      58.010  -0.458  30.760  0.00  0.00     0.021 A 
ATOM      7  C   UNL d   1      57.397   0.047  30.964  0.00  0.00     0.020 A 
ATOM      8  C   UNL d   1      57.130   0.620  30.426  0.00  0.00     0.002 A 
ATOM      9  C   UNL d   1      57.477   0.681  29.690  0.00  0.00     0.002 A 
ATOM     10  C   UNL d   1      58.096   0.176  29.477  0.00  0.00     0.020 A 
BRANCH   7  11
ATOM     11  C   UNL d   1      57.044  -0.014  31.709  0.00  0.00     0.088 A 
ATOM     12  N   UNL d   1      56.089  -0.897  32.301  0.00  0.00    -0.238 NA
ATOM     13  C   UNL d   1      56.141  -0.470  33.021  0.00  0.00     0.111 A 
ATOM     14  C   UNL d   1      55.690  -0.701  33.670  0.00  0.00     0.028 C 
ATOM     15  S   UNL d   1      56.642   0.184  33.087  0.00  0.00    -0.066 SA
ATOM     16  C   UNL d   1      57.095   0.410  32.424  0.00  0.00     0.056 A 
ENDBRANCH   7  11
ENDBRANCH   4   5
ENDBRANCH   1   4
BRANCH   1  17
ATOM     17  C   UNL d   1      59.468  -1.943  28.956  0.00  0.00     0.105 A 
ATOM     18  C   UNL d   1      59.173  -2.709  28.872  0.00  0.00     0.013 A 
ATOM     19  C   UNL d   1      59.701  -3.338  28.732  0.00  0.00     0.001 A 
ATOM     20  C   UNL d   1      59.400  -4.105  28.648  0.00  0.00     0.000 A 
ATOM     21  C   UNL d   1      60.509  -3.195  28.678  0.00  0.00     0.000 A 
ATOM     22  C   UNL d   1      59.925  -4.726  28.510  0.00  0.00     0.000 A 
ATOM     23  C   UNL d   1      60.736  -4.586  28.455  0.00  0.00     0.000 A 
ATOM     24  C   UNL d   1      61.028  -3.824  28.539  0.00  0.00     0.000 A 
ATOM     25  C   UNL d   1      60.795  -2.429  28.763  0.00  0.00     0.001 A 
ATOM     26  C   UNL d   1      60.279  -1.803  28.901  0.00  0.00     0.013 A 
ENDBRANCH   1  17
TORSDOF 4
ENDMDL
