MODEL 1
REMARK VINA RESULT:      -7.9      0.000      0.000
REMARK  6 active torsions:
REMARK  status: ('A' for Active; 'I' for Inactive)
REMARK    1  A    between atoms: N_5  and  C_1 
REMARK       I    between atoms: C_9  and  N_5 
REMARK    2  A    between atoms: C_20  and  C_6 
REMARK    3  A    between atoms: C_17  and  C_9 
REMARK    4  A    between atoms: C_12  and  C_10 
REMARK    5  A    between atoms: C_11  and  S_13 
REMARK    6  A    between atoms: S_13  and  C_17 
ROOT
ATOM      1  N   UNL d   1      51.808  33.195  53.705  0.00  0.00    -0.148 NA
ATOM      2  N   UNL d   1      51.076  33.441  53.416  0.00  0.00    -0.141 NA
ATOM      3  C   UNL d   1      52.495  33.619  53.516  0.00  0.00     0.104 A 
ATOM      4  C   UNL d   1      51.018  34.106  52.941  0.00  0.00     0.133 A 
ATOM      5  C   UNL d   1      52.439  34.291  53.036  0.00  0.00     0.023 A 
ATOM      6  C   UNL d   1      51.708  34.534  52.749  0.00  0.00     0.029 A 
ENDROOT
BRANCH   4   7
ATOM      7  S   UNL d   1      50.286  34.353  52.652  0.00  0.00    -0.061 SA
BRANCH   7   8
ATOM      8  C   UNL d   1      49.831  34.887  53.077  0.00  0.00     0.099 C 
BRANCH   8   9
ATOM      9  C   UNL d   1      49.110  35.147  52.765  0.00  0.00     0.288 C 
ATOM     10  N   UNL d   1      48.702  35.759  53.134  0.00  0.00    -0.181 NA
ATOM     11  O   UNL d   1      48.801  34.795  52.091  0.00  0.00    -0.265 OA
BRANCH  10  12
ATOM     12  C   UNL d   1      47.989  36.018  52.829  0.00  0.00     0.219 A 
ATOM     13  S   UNL d   1      47.293  36.152  53.260  0.00  0.00    -0.026 SA
ATOM     14  C   UNL d   1      46.720  36.406  52.739  0.00  0.00     0.135 A 
ATOM     15  N   UNL d   1      47.051  36.431  51.986  0.00  0.00    -0.139 NA
ATOM     16  N   UNL d   1      47.829  36.192  52.047  0.00  0.00    -0.121 NA
BRANCH  14  17
ATOM     17  C   UNL d   1      45.940  36.603  52.933  0.00  0.00     0.028 C 
ATOM     18  C   UNL d   1      45.316  36.152  52.655  0.00  0.00     0.002 C 
ENDBRANCH  14  17
ENDBRANCH  10  12
ENDBRANCH   8   9
ENDBRANCH   7   8
ENDBRANCH   4   7
BRANCH   3  19
ATOM     19  C   UNL d   1      53.227  33.372  53.805  0.00  0.00     0.039 A 
ATOM     20  C   UNL d   1      53.690  32.875  53.358  0.00  0.00     0.101 A 
ATOM     21  N   UNL d   1      54.417  32.627  53.641  0.00  0.00    -0.242 NA
ATOM     22  C   UNL d   1      54.680  32.886  54.386  0.00  0.00     0.099 A 
ATOM     23  C   UNL d   1      54.211  33.386  54.832  0.00  0.00     0.021 A 
ATOM     24  C   UNL d   1      53.477  33.639  54.551  0.00  0.00     0.005 A 
ENDBRANCH   3  19
TORSDOF 6
ENDMDL
MODEL 2
REMARK VINA RESULT:      -7.2      1.210      6.272
REMARK  6 active torsions:
REMARK  status: ('A' for Active; 'I' for Inactive)
REMARK    1  A    between atoms: N_5  and  C_1 
REMARK       I    between atoms: C_9  and  N_5 
REMARK    2  A    between atoms: C_20  and  C_6 
REMARK    3  A    between atoms: C_17  and  C_9 
REMARK    4  A    between atoms: C_12  and  C_10 
REMARK    5  A    between atoms: C_11  and  S_13 
REMARK    6  A    between atoms: S_13  and  C_17 
ROOT
ATOM      1  N   UNL d   1      48.454  35.602  52.982  0.00  0.00    -0.148 NA
ATOM      2  N   UNL d   1      49.187  35.228  52.916  0.00  0.00    -0.141 NA
ATOM      3  C   UNL d   1      47.919  35.582  52.349  0.00  0.00     0.104 A 
ATOM      4  C   UNL d   1      49.393  34.834  52.228  0.00  0.00     0.133 A 
ATOM      5  C   UNL d   1      48.125  35.184  51.653  0.00  0.00     0.023 A 
ATOM      6  C   UNL d   1      48.856  34.812  51.591  0.00  0.00     0.029 A 
ENDROOT
BRANCH   4   7
ATOM      7  S   UNL d   1      50.125  34.459  52.162  0.00  0.00    -0.061 SA
BRANCH   7   8
ATOM      8  C   UNL d   1      50.511  34.181  52.831  0.00  0.00     0.099 C 
BRANCH   8   9
ATOM      9  C   UNL d   1      51.262  33.844  52.758  0.00  0.00     0.288 C 
ATOM     10  N   UNL d   1      51.539  33.330  53.339  0.00  0.00    -0.181 NA
ATOM     11  O   UNL d   1      51.733  34.020  52.108  0.00  0.00    -0.265 OA
BRANCH  10  12
ATOM     12  C   UNL d   1      52.282  32.995  53.270  0.00  0.00     0.219 A 
ATOM     13  S   UNL d   1      52.939  33.162  53.747  0.00  0.00    -0.026 SA
ATOM     14  C   UNL d   1      53.562  32.705  53.485  0.00  0.00     0.135 A 
ATOM     15  N   UNL d   1      53.299  32.254  52.849  0.00  0.00    -0.139 NA
ATOM     16  N   UNL d   1      52.513  32.435  52.721  0.00  0.00    -0.121 NA
BRANCH  14  17
ATOM     17  C   UNL d   1      54.325  32.697  53.804  0.00  0.00     0.028 C 
ATOM     18  C   UNL d   1      54.490  33.099  54.498  0.00  0.00     0.002 C 
ENDBRANCH  14  17
ENDBRANCH  10  12
ENDBRANCH   8   9
ENDBRANCH   7   8
ENDBRANCH   4   7
BRANCH   3  19
ATOM     19  C   UNL d   1      47.187  35.956  52.415  0.00  0.00     0.039 A 
ATOM     20  C   UNL d   1      46.670  35.945  51.786  0.00  0.00     0.101 A 
ATOM     21  N   UNL d   1      45.943  36.315  51.846  0.00  0.00    -0.242 NA
ATOM     22  C   UNL d   1      45.733  36.701  52.553  0.00  0.00     0.099 A 
ATOM     23  C   UNL d   1      46.256  36.709  53.183  0.00  0.00     0.021 A 
ATOM     24  C   UNL d   1      46.991  36.338  53.126  0.00  0.00     0.005 A 
ENDBRANCH   3  19
TORSDOF 6
ENDMDL
MODEL 3
REMARK VINA RESULT:      -6.6      1.579      6.239
REMARK  6 active torsions:
REMARK  status: ('A' for Active; 'I' for Inactive)
REMARK    1  A    between atoms: N_5  and  C_1 
REMARK       I    between atoms: C_9  and  N_5 
REMARK    2  A    between atoms: C_20  and  C_6 
REMARK    3  A    between atoms: C_17  and  C_9 
REMARK    4  A    between atoms: C_12  and  C_10 
REMARK    5  A    between atoms: C_11  and  S_13 
REMARK    6  A    between atoms: S_13  and  C_17 
ROOT
ATOM      1  N   UNL d   1      49.001  35.359  53.015  0.00  0.00    -0.148 NA
ATOM      2  N   UNL d   1      49.723  34.963  52.987  0.00  0.00    -0.141 NA
ATOM      3  C   UNL d   1      48.499  35.355  52.355  0.00  0.00     0.104 A 
ATOM      4  C   UNL d   1      49.953  34.561  52.311  0.00  0.00     0.133 A 
ATOM      5  C   UNL d   1      48.728  34.951  51.671  0.00  0.00     0.023 A 
ATOM      6  C   UNL d   1      49.450  34.556  51.647  0.00  0.00     0.029 A 
ENDROOT
BRANCH   4   7
ATOM      7  S   UNL d   1      50.676  34.165  52.284  0.00  0.00    -0.061 SA
BRANCH   7   8
ATOM      8  C   UNL d   1      51.004  33.852  52.968  0.00  0.00     0.099 C 
BRANCH   8   9
ATOM      9  C   UNL d   1      51.684  33.384  52.917  0.00  0.00     0.288 C 
ATOM     10  N   UNL d   1      51.842  32.827  53.502  0.00  0.00    -0.181 NA
ATOM     11  O   UNL d   1      52.201  33.474  52.285  0.00  0.00    -0.265 OA
BRANCH  10  12
ATOM     12  C   UNL d   1      52.514  32.362  53.455  0.00  0.00     0.219 A 
ATOM     13  S   UNL d   1      52.536  31.553  53.277  0.00  0.00    -0.026 SA
ATOM     14  C   UNL d   1      53.316  31.315  53.289  0.00  0.00     0.135 A 
ATOM     15  N   UNL d   1      53.781  31.968  53.473  0.00  0.00    -0.139 NA
ATOM     16  N   UNL d   1      53.284  32.608  53.574  0.00  0.00    -0.121 NA
BRANCH  14  17
ATOM     17  C   UNL d   1      53.592  30.549  53.142  0.00  0.00     0.028 C 
ATOM     18  C   UNL d   1      53.292  29.911  53.560  0.00  0.00     0.002 C 
ENDBRANCH  14  17
ENDBRANCH  10  12
ENDBRANCH   8   9
ENDBRANCH   7   8
ENDBRANCH   4   7
BRANCH   3  19
ATOM     19  C   UNL d   1      47.776  35.752  52.383  0.00  0.00     0.039 A 
ATOM     20  C   UNL d   1      47.243  35.662  51.774  0.00  0.00     0.101 A 
ATOM     21  N   UNL d   1      46.525  36.053  51.797  0.00  0.00    -0.242 NA
ATOM     22  C   UNL d   1      46.342  36.543  52.444  0.00  0.00     0.099 A 
ATOM     23  C   UNL d   1      46.881  36.631  53.054  0.00  0.00     0.021 A 
ATOM     24  C   UNL d   1      47.607  36.237  53.035  0.00  0.00     0.005 A 
ENDBRANCH   3  19
TORSDOF 6
ENDMDL
MODEL 4
REMARK VINA RESULT:      -5.5     10.244     11.186
REMARK  6 active torsions:
REMARK  status: ('A' for Active; 'I' for Inactive)
REMARK    1  A    between atoms: N_5  and  C_1 
REMARK       I    between atoms: C_9  and  N_5 
REMARK    2  A    between atoms: C_20  and  C_6 
REMARK    3  A    between atoms: C_17  and  C_9 
REMARK    4  A    between atoms: C_12  and  C_10 
REMARK    5  A    between atoms: C_11  and  S_13 
REMARK    6  A    between atoms: S_13  and  C_17 
ROOT
ATOM      1  N   UNL d   1      45.370  30.017  59.231  0.00  0.00    -0.148 NA
ATOM      2  N   UNL d   1      45.472  29.503  58.594  0.00  0.00    -0.141 NA
ATOM      3  C   UNL d   1      44.814  29.843  59.820  0.00  0.00     0.104 A 
ATOM      4  C   UNL d   1      45.026  28.818  58.535  0.00  0.00     0.133 A 
ATOM      5  C   UNL d   1      44.362  29.152  59.764  0.00  0.00     0.023 A 
ATOM      6  C   UNL d   1      44.466  28.642  59.127  0.00  0.00     0.029 A 
ENDROOT
BRANCH   4   7
ATOM      7  S   UNL d   1      45.127  28.305  57.898  0.00  0.00    -0.061 SA
BRANCH   7   8
ATOM      8  C   UNL d   1      45.170  27.494  58.020  0.00  0.00     0.099 C 
BRANCH   8   9
ATOM      9  C   UNL d   1      45.227  26.986  57.370  0.00  0.00     0.288 C 
ATOM     10  N   UNL d   1      44.702  26.357  57.297  0.00  0.00    -0.181 NA
ATOM     11  O   UNL d   1      45.805  27.107  56.800  0.00  0.00    -0.265 OA
BRANCH  10  12
ATOM     12  C   UNL d   1      44.755  25.852  56.655  0.00  0.00     0.219 A 
ATOM     13  S   UNL d   1      44.812  25.025  56.688  0.00  0.00    -0.026 SA
ATOM     14  C   UNL d   1      44.853  24.746  55.923  0.00  0.00     0.135 A 
ATOM     15  N   UNL d   1      44.820  25.391  55.413  0.00  0.00    -0.139 NA
ATOM     16  N   UNL d   1      44.760  26.067  55.867  0.00  0.00    -0.121 NA
BRANCH  14  17
ATOM     17  C   UNL d   1      44.915  23.952  55.698  0.00  0.00     0.028 C 
ATOM     18  C   UNL d   1      45.017  23.750  54.911  0.00  0.00     0.002 C 
ENDBRANCH  14  17
ENDBRANCH  10  12
ENDBRANCH   8   9
ENDBRANCH   7   8
ENDBRANCH   4   7
BRANCH   3  19
ATOM     19  C   UNL d   1      44.712  30.357  60.458  0.00  0.00     0.039 A 
ATOM     20  C   UNL d   1      44.416  31.104  60.330  0.00  0.00     0.101 A 
ATOM     21  N   UNL d   1      44.314  31.617  60.960  0.00  0.00    -0.242 NA
ATOM     22  C   UNL d   1      44.514  31.372  61.730  0.00  0.00     0.099 A 
ATOM     23  C   UNL d   1      44.811  30.620  61.853  0.00  0.00     0.021 A 
ATOM     24  C   UNL d   1      44.916  30.099  61.221  0.00  0.00     0.005 A 
ENDBRANCH   3  19
TORSDOF 6
ENDMDL
MODEL 5
REMARK VINA RESULT:      -5.2     10.536     11.505
REMARK  6 active torsions:
REMARK  status: ('A' for Active; 'I' for Inactive)
REMARK    1  A    between atoms: N_5  and  C_1 
REMARK       I    between atoms: C_9  and  N_5 
REMARK    2  A    between atoms: C_20  and  C_6 
REMARK    3  A    between atoms: C_17  and  C_9 
REMARK    4  A    between atoms: C_12  and  C_10 
REMARK    5  A    between atoms: C_11  and  S_13 
REMARK    6  A    between atoms: S_13  and  C_17 
ROOT
ATOM      1  N   UNL d   1      44.371  28.460  57.143  0.00  0.00    -0.148 NA
ATOM      2  N   UNL d   1      44.314  27.662  56.944  0.00  0.00    -0.141 NA
ATOM      3  C   UNL d   1      44.878  28.701  57.754  0.00  0.00     0.104 A 
ATOM      4  C   UNL d   1      44.755  27.100  57.344  0.00  0.00     0.133 A 
ATOM      5  C   UNL d   1      45.324  28.136  58.159  0.00  0.00     0.023 A 
ATOM      6  C   UNL d   1      45.265  27.340  57.958  0.00  0.00     0.029 A 
ENDROOT
BRANCH   4   7
ATOM      7  S   UNL d   1      44.699  26.301  57.144  0.00  0.00    -0.061 SA
BRANCH   7   8
ATOM      8  C   UNL d   1      44.775  26.062  56.363  0.00  0.00     0.099 C 
BRANCH   8   9
ATOM      9  C   UNL d   1      44.727  25.258  56.175  0.00  0.00     0.288 C 
ATOM     10  N   UNL d   1      45.067  24.979  55.480  0.00  0.00    -0.181 NA
ATOM     11  O   UNL d   1      44.342  24.739  56.681  0.00  0.00    -0.265 OA
BRANCH  10  12
ATOM     12  C   UNL d   1      45.022  24.185  55.291  0.00  0.00     0.219 A 
ATOM     13  S   UNL d   1      44.663  23.862  54.617  0.00  0.00    -0.026 SA
ATOM     14  C   UNL d   1      44.746  23.052  54.652  0.00  0.00     0.135 A 
ATOM     15  N   UNL d   1      45.154  22.865  55.342  0.00  0.00    -0.139 NA
ATOM     16  N   UNL d   1      45.321  23.563  55.730  0.00  0.00    -0.121 NA
BRANCH  14  17
ATOM     17  C   UNL d   1      44.469  22.511  54.091  0.00  0.00     0.028 C 
ATOM     18  C   UNL d   1      44.993  22.042  53.671  0.00  0.00     0.002 C 
ENDBRANCH  14  17
ENDBRANCH  10  12
ENDBRANCH   8   9
ENDBRANCH   7   8
ENDBRANCH   4   7
BRANCH   3  19
ATOM     19  C   UNL d   1      44.934  29.499  57.953  0.00  0.00     0.039 A 
ATOM     20  C   UNL d   1      44.758  30.067  57.398  0.00  0.00     0.101 A 
ATOM     21  N   UNL d   1      44.812  30.861  57.591  0.00  0.00    -0.242 NA
ATOM     22  C   UNL d   1      45.049  31.084  58.357  0.00  0.00     0.099 A 
ATOM     23  C   UNL d   1      45.226  30.510  58.912  0.00  0.00     0.021 A 
ATOM     24  C   UNL d   1      45.172  29.708  58.721  0.00  0.00     0.005 A 
ENDBRANCH   3  19
TORSDOF 6
ENDMDL
