MODEL 1
REMARK VINA RESULT:      -5.0      0.000      0.000
REMARK  6 active torsions:
REMARK  status: ('A' for Active; 'I' for Inactive)
REMARK    1  A    between atoms: C_6  and  N_2 
REMARK    2  A    between atoms: C_7  and  C_3 
REMARK    3  A    between atoms: C_14  and  C_6 
REMARK    4  A    between atoms: C_8  and  O_16 
REMARK    5  A    between atoms: C_19  and  C_14 
REMARK    6  A    between atoms: O_16  and  C_19 
ROOT
ATOM      1  N   UNL d   1      60.340  -1.389  28.825  0.00  0.00    -0.224 NA
ATOM      2  N   UNL d   1      59.111  -1.271  29.365  0.00  0.00    -0.286 N 
ATOM      3  C   UNL d   1      59.811  -0.857  29.198  0.00  0.00     0.191 A 
ATOM      4  C   UNL d   1      59.200  -2.056  29.100  0.00  0.00     0.083 A 
ATOM      5  C   UNL d   1      59.955  -2.130  28.768  0.00  0.00     0.099 A 
ATOM      6  C   UNL d   1      58.699  -2.713  29.114  0.00  0.00     0.019 A 
ATOM      7  C   UNL d   1      60.206  -2.850  28.455  0.00  0.00     0.021 A 
ATOM      8  C   UNL d   1      58.951  -3.434  28.801  0.00  0.00     0.002 A 
ATOM      9  C   UNL d   1      59.705  -3.500  28.472  0.00  0.00     0.002 A 
ENDROOT
BRANCH   2  10
ATOM     10  C   UNL d   1      58.533  -0.816  29.735  0.00  0.00     0.084 C 
BRANCH  10  11
ATOM     11  C   UNL d   1      58.225  -1.062  30.451  0.00  0.00     0.046 C 
BRANCH  11  12
ATOM     12  C   UNL d   1      57.660  -0.594  30.822  0.00  0.00     0.124 C 
BRANCH  12  13
ATOM     13  O   UNL d   1      56.973  -0.939  31.122  0.00  0.00    -0.305 OA
BRANCH  13  14
ATOM     14  C   UNL d   1      56.618  -0.629  31.800  0.00  0.00     0.100 A 
ATOM     15  C   UNL d   1      56.292  -1.137  32.364  0.00  0.00     0.025 A 
ATOM     16  C   UNL d   1      55.939  -0.829  33.038  0.00  0.00     0.002 A 
ATOM     17  C   UNL d   1      55.909  -0.011  33.156  0.00  0.00     0.000 A 
ATOM     18  C   UNL d   1      56.239   0.497  32.584  0.00  0.00     0.002 A 
ATOM     19  C   UNL d   1      55.557   0.299  33.828  0.00  0.00     0.000 C 
ATOM     20  C   UNL d   1      56.592   0.185  31.910  0.00  0.00     0.025 A 
ENDBRANCH  13  14
ENDBRANCH  12  13
ENDBRANCH  11  12
ENDBRANCH  10  11
ENDBRANCH   2  10
BRANCH   3  21
ATOM     21  C   UNL d   1      59.962  -0.064  29.367  0.00  0.00     0.271 C 
ATOM     22  O   UNL d   1      60.722   0.240  29.271  0.00  0.00    -0.280 OA
ENDBRANCH   3  21
TORSDOF 6
ENDMDL
MODEL 2
REMARK VINA RESULT:      -3.0      2.175      5.502
REMARK  6 active torsions:
REMARK  status: ('A' for Active; 'I' for Inactive)
REMARK    1  A    between atoms: C_6  and  N_2 
REMARK    2  A    between atoms: C_7  and  C_3 
REMARK    3  A    between atoms: C_14  and  C_6 
REMARK    4  A    between atoms: C_8  and  O_16 
REMARK    5  A    between atoms: C_19  and  C_14 
REMARK    6  A    between atoms: O_16  and  C_19 
ROOT
ATOM      1  N   UNL d   1      56.828   0.682  34.469  0.00  0.00    -0.224 NA
ATOM      2  N   UNL d   1      56.653   0.678  33.133  0.00  0.00    -0.286 N 
ATOM      3  C   UNL d   1      57.227   0.681  33.732  0.00  0.00     0.191 A 
ATOM      4  C   UNL d   1      55.900   0.678  33.489  0.00  0.00     0.083 A 
ATOM      5  C   UNL d   1      56.006   0.680  34.311  0.00  0.00     0.099 A 
ATOM      6  C   UNL d   1      55.134   0.676  33.182  0.00  0.00     0.019 A 
ATOM      7  C   UNL d   1      55.355   0.680  34.817  0.00  0.00     0.021 A 
ATOM      8  C   UNL d   1      54.482   0.676  33.689  0.00  0.00     0.002 A 
ATOM      9  C   UNL d   1      54.595   0.678  34.506  0.00  0.00     0.002 A 
ENDROOT
BRANCH   2  10
ATOM     10  C   UNL d   1      56.965   0.677  32.371  0.00  0.00     0.084 C 
BRANCH  10  11
ATOM     11  C   UNL d   1      56.994  -0.022  31.949  0.00  0.00     0.046 C 
BRANCH  11  12
ATOM     12  C   UNL d   1      57.193   0.003  31.151  0.00  0.00     0.124 C 
BRANCH  12  13
ATOM     13  O   UNL d   1      57.354  -0.697  30.745  0.00  0.00    -0.305 OA
BRANCH  13  14
ATOM     14  C   UNL d   1      57.950  -0.715  30.175  0.00  0.00     0.100 A 
ATOM     15  C   UNL d   1      58.138  -0.030  29.753  0.00  0.00     0.025 A 
ATOM     16  C   UNL d   1      58.730  -0.047  29.186  0.00  0.00     0.002 A 
ATOM     17  C   UNL d   1      59.142  -0.749  29.035  0.00  0.00     0.000 A 
ATOM     18  C   UNL d   1      58.950  -1.436  29.463  0.00  0.00     0.002 A 
ATOM     19  C   UNL d   1      59.735  -0.768  28.469  0.00  0.00     0.000 C 
ATOM     20  C   UNL d   1      58.354  -1.415  30.031  0.00  0.00     0.025 A 
ENDBRANCH  13  14
ENDBRANCH  12  13
ENDBRANCH  11  12
ENDBRANCH  10  11
ENDBRANCH   2  10
BRANCH   3  21
ATOM     21  C   UNL d   1      58.045   0.682  33.626  0.00  0.00     0.271 C 
ATOM     22  O   UNL d   1      58.544   0.529  34.264  0.00  0.00    -0.280 OA
ENDBRANCH   3  21
TORSDOF 6
ENDMDL
