MODEL 1
REMARK VINA RESULT:     -10.0      0.000      0.000
REMARK  3 active torsions:
REMARK  status: ('A' for Active; 'I' for Inactive)
REMARK    1  A    between atoms: C_7  and  C_1 
REMARK    2  A    between atoms: N_5  and  C_9 
REMARK    3  A    between atoms: C_14  and  C_7 
ROOT
ATOM      1  C   UNL d   1      52.878  32.691  53.074  0.00  0.00     0.139 A 
ATOM      2  C   UNL d   1      53.406  31.541  53.494  0.00  0.00     0.064 A 
ATOM      3  C   UNL d   1      53.498  32.360  53.511  0.00  0.00     0.220 A 
ATOM      4  C   UNL d   1      52.733  31.361  53.049  0.00  0.00     0.106 A 
ATOM      5  O   UNL d   1      52.406  32.076  52.789  0.00  0.00    -0.304 OA
ATOM      6  C   UNL d   1      52.514  30.581  52.943  0.00  0.00     0.067 A 
ATOM      7  C   UNL d   1      53.853  30.936  53.829  0.00  0.00     0.009 A 
ATOM      8  O   UNL d   1      54.097  32.784  53.893  0.00  0.00    -0.284 OA
ATOM      9  C   UNL d   1      52.962  29.975  53.280  0.00  0.00     0.198 A 
ATOM     10  C   UNL d   1      53.628  30.154  53.720  0.00  0.00     0.042 A 
ATOM     11  O   UNL d   1      52.737  29.189  53.170  0.00  0.00    -0.286 OA
ENDROOT
BRANCH   1  12
ATOM     12  C   UNL d   1      52.749  33.496  52.943  0.00  0.00     0.028 C 
BRANCH  12  13
ATOM     13  C   UNL d   1      51.981  33.788  52.829  0.00  0.00     0.002 A 
ATOM     14  C   UNL d   1      51.737  33.994  52.073  0.00  0.00     0.002 A 
ATOM     15  C   UNL d   1      50.980  34.284  51.946  0.00  0.00     0.024 A 
ATOM     16  C   UNL d   1      50.455  34.369  52.590  0.00  0.00     0.127 A 
ATOM     17  C   UNL d   1      50.704  34.159  53.352  0.00  0.00     0.024 A 
ATOM     18  C   UNL d   1      51.471  33.868  53.466  0.00  0.00     0.002 A 
BRANCH  16  19
ATOM     19  N   UNL d   1      49.692  34.661  52.459  0.00  0.00    -0.114 N 
ATOM     20  O   UNL d   1      49.320  34.511  51.735  0.00  0.00    -0.532 OA
ATOM     21  O   UNL d   1      49.299  35.096  53.033  0.00  0.00    -0.532 OA
ENDBRANCH  16  19
ENDBRANCH  12  13
ENDBRANCH   1  12
TORSDOF 3
ENDMDL
MODEL 2
REMARK VINA RESULT:      -9.8      2.070      4.533
REMARK  3 active torsions:
REMARK  status: ('A' for Active; 'I' for Inactive)
REMARK    1  A    between atoms: C_7  and  C_1 
REMARK    2  A    between atoms: N_5  and  C_9 
REMARK    3  A    between atoms: C_14  and  C_7 
ROOT
ATOM      1  C   UNL d   1      52.894  32.572  53.069  0.00  0.00     0.139 A 
ATOM      2  C   UNL d   1      52.648  33.840  53.400  0.00  0.00     0.064 A 
ATOM      3  C   UNL d   1      52.485  33.256  52.842  0.00  0.00     0.220 A 
ATOM      4  C   UNL d   1      53.155  33.525  53.972  0.00  0.00     0.106 A 
ATOM      5  O   UNL d   1      53.307  32.737  53.765  0.00  0.00    -0.304 OA
ATOM      6  C   UNL d   1      53.404  33.992  54.594  0.00  0.00     0.067 A 
ATOM      7  C   UNL d   1      52.396  34.622  53.457  0.00  0.00     0.009 A 
ATOM      8  O   UNL d   1      52.003  33.328  52.174  0.00  0.00    -0.284 OA
ATOM      9  C   UNL d   1      53.151  34.775  54.651  0.00  0.00     0.198 A 
ATOM     10  C   UNL d   1      52.650  35.087  54.085  0.00  0.00     0.042 A 
ATOM     11  O   UNL d   1      53.406  35.243  55.281  0.00  0.00    -0.286 OA
ENDROOT
BRANCH   1  12
ATOM     12  C   UNL d   1      52.893  31.848  52.671  0.00  0.00     0.028 C 
BRANCH  12  13
ATOM     13  C   UNL d   1      52.977  31.137  53.089  0.00  0.00     0.002 A 
ATOM     14  C   UNL d   1      52.306  30.711  53.296  0.00  0.00     0.002 A 
ATOM     15  C   UNL d   1      52.375  30.006  53.709  0.00  0.00     0.024 A 
ATOM     16  C   UNL d   1      53.130  29.720  53.921  0.00  0.00     0.127 A 
ATOM     17  C   UNL d   1      53.805  30.153  53.711  0.00  0.00     0.024 A 
ATOM     18  C   UNL d   1      53.721  30.864  53.293  0.00  0.00     0.002 A 
BRANCH  16  19
ATOM     19  N   UNL d   1      53.196  29.008  54.338  0.00  0.00    -0.114 N 
ATOM     20  O   UNL d   1      53.190  29.022  55.165  0.00  0.00    -0.532 OA
ATOM     21  O   UNL d   1      53.266  28.291  53.946  0.00  0.00    -0.532 OA
ENDBRANCH  16  19
ENDBRANCH  12  13
ENDBRANCH   1  12
TORSDOF 3
ENDMDL
MODEL 3
REMARK VINA RESULT:      -9.7      2.059      2.620
REMARK  3 active torsions:
REMARK  status: ('A' for Active; 'I' for Inactive)
REMARK    1  A    between atoms: C_7  and  C_1 
REMARK    2  A    between atoms: N_5  and  C_9 
REMARK    3  A    between atoms: C_14  and  C_7 
ROOT
ATOM      1  C   UNL d   1      53.487  31.790  53.247  0.00  0.00     0.139 A 
ATOM      2  C   UNL d   1      53.005  30.549  53.304  0.00  0.00     0.064 A 
ATOM      3  C   UNL d   1      53.008  31.241  52.856  0.00  0.00     0.220 A 
ATOM      4  C   UNL d   1      53.480  30.665  53.971  0.00  0.00     0.106 A 
ATOM      5  O   UNL d   1      53.778  31.437  53.934  0.00  0.00    -0.304 OA
ATOM      6  C   UNL d   1      53.572  30.060  54.512  0.00  0.00     0.067 A 
ATOM      7  C   UNL d   1      52.628  29.826  53.186  0.00  0.00     0.009 A 
ATOM      8  O   UNL d   1      52.608  31.372  52.144  0.00  0.00    -0.284 OA
ATOM      9  C   UNL d   1      53.194  29.336  54.393  0.00  0.00     0.198 A 
ATOM     10  C   UNL d   1      52.725  29.222  53.733  0.00  0.00     0.042 A 
ATOM     11  O   UNL d   1      53.291  28.728  54.943  0.00  0.00    -0.286 OA
ENDROOT
BRANCH   1  12
ATOM     12  C   UNL d   1      53.650  32.561  52.998  0.00  0.00     0.028 C 
BRANCH  12  13
ATOM     13  C   UNL d   1      53.535  33.203  53.510  0.00  0.00     0.002 A 
ATOM     14  C   UNL d   1      52.828  33.620  53.479  0.00  0.00     0.002 A 
ATOM     15  C   UNL d   1      52.701  34.257  53.980  0.00  0.00     0.024 A 
ATOM     16  C   UNL d   1      53.293  34.483  54.523  0.00  0.00     0.127 A 
ATOM     17  C   UNL d   1      54.005  34.061  54.552  0.00  0.00     0.024 A 
ATOM     18  C   UNL d   1      54.121  33.419  54.040  0.00  0.00     0.002 A 
BRANCH  16  19
ATOM     19  N   UNL d   1      53.162  35.127  55.027  0.00  0.00    -0.114 N 
ATOM     20  O   UNL d   1      52.893  35.841  54.709  0.00  0.00    -0.532 OA
ATOM     21  O   UNL d   1      53.294  35.068  55.835  0.00  0.00    -0.532 OA
ENDBRANCH  16  19
ENDBRANCH  12  13
ENDBRANCH   1  12
TORSDOF 3
ENDMDL
MODEL 4
REMARK VINA RESULT:      -9.4      1.262      2.282
REMARK  3 active torsions:
REMARK  status: ('A' for Active; 'I' for Inactive)
REMARK    1  A    between atoms: C_7  and  C_1 
REMARK    2  A    between atoms: N_5  and  C_9 
REMARK    3  A    between atoms: C_14  and  C_7 
ROOT
ATOM      1  C   UNL d   1      52.775  33.006  53.293  0.00  0.00     0.139 A 
ATOM      2  C   UNL d   1      53.750  32.791  54.176  0.00  0.00     0.064 A 
ATOM      3  C   UNL d   1      53.222  32.417  53.665  0.00  0.00     0.220 A 
ATOM      4  C   UNL d   1      53.633  33.608  54.125  0.00  0.00     0.106 A 
ATOM      5  O   UNL d   1      53.027  33.740  53.576  0.00  0.00    -0.304 OA
ATOM      6  C   UNL d   1      54.089  34.111  54.579  0.00  0.00     0.067 A 
ATOM      7  C   UNL d   1      54.323  32.486  54.683  0.00  0.00     0.009 A 
ATOM      8  O   UNL d   1      53.146  31.604  53.539  0.00  0.00    -0.284 OA
ATOM      9  C   UNL d   1      54.663  33.806  55.087  0.00  0.00     0.198 A 
ATOM     10  C   UNL d   1      54.778  32.998  55.137  0.00  0.00     0.042 A 
ATOM     11  O   UNL d   1      55.121  34.319  55.543  0.00  0.00    -0.286 OA
ENDROOT
BRANCH   1  12
ATOM     12  C   UNL d   1      52.178  32.886  52.735  0.00  0.00     0.028 C 
BRANCH  12  13
ATOM     13  C   UNL d   1      51.513  33.381  52.715  0.00  0.00     0.002 A 
ATOM     14  C   UNL d   1      51.464  33.964  52.139  0.00  0.00     0.002 A 
ATOM     15  C   UNL d   1      50.811  34.461  52.108  0.00  0.00     0.024 A 
ATOM     16  C   UNL d   1      50.195  34.373  52.664  0.00  0.00     0.127 A 
ATOM     17  C   UNL d   1      50.248  33.784  53.244  0.00  0.00     0.024 A 
ATOM     18  C   UNL d   1      50.912  33.289  53.265  0.00  0.00     0.002 A 
BRANCH  16  19
ATOM     19  N   UNL d   1      49.538  34.876  52.630  0.00  0.00    -0.114 N 
ATOM     20  O   UNL d   1      49.046  34.854  51.966  0.00  0.00    -0.532 OA
ATOM     21  O   UNL d   1      49.369  35.396  53.243  0.00  0.00    -0.532 OA
ENDBRANCH  16  19
ENDBRANCH  12  13
ENDBRANCH   1  12
TORSDOF 3
ENDMDL
MODEL 5
REMARK VINA RESULT:      -7.7      2.070      4.440
REMARK  3 active torsions:
REMARK  status: ('A' for Active; 'I' for Inactive)
REMARK    1  A    between atoms: C_7  and  C_1 
REMARK    2  A    between atoms: N_5  and  C_9 
REMARK    3  A    between atoms: C_14  and  C_7 
ROOT
ATOM      1  C   UNL d   1      52.260  32.981  53.299  0.00  0.00     0.139 A 
ATOM      2  C   UNL d   1      51.289  33.528  52.567  0.00  0.00     0.064 A 
ATOM      3  C   UNL d   1      51.924  33.003  52.543  0.00  0.00     0.220 A 
ATOM      4  C   UNL d   1      51.228  33.832  53.333  0.00  0.00     0.106 A 
ATOM      5  O   UNL d   1      51.832  33.491  53.787  0.00  0.00    -0.304 OA
ATOM      6  C   UNL d   1      50.639  34.370  53.510  0.00  0.00     0.067 A 
ATOM      7  C   UNL d   1      50.758  33.767  51.984  0.00  0.00     0.009 A 
ATOM      8  O   UNL d   1      52.187  32.572  51.888  0.00  0.00    -0.284 OA
ATOM      9  C   UNL d   1      50.108  34.609  52.926  0.00  0.00     0.198 A 
ATOM     10  C   UNL d   1      50.168  34.308  52.167  0.00  0.00     0.042 A 
ATOM     11  O   UNL d   1      49.514  35.153  53.109  0.00  0.00    -0.286 OA
ENDROOT
BRANCH   1  12
ATOM     12  C   UNL d   1      52.911  32.528  53.531  0.00  0.00     0.028 C 
BRANCH  12  13
ATOM     13  C   UNL d   1      53.509  32.859  54.001  0.00  0.00     0.002 A 
ATOM     14  C   UNL d   1      53.496  32.733  54.813  0.00  0.00     0.002 A 
ATOM     15  C   UNL d   1      54.081  33.055  55.290  0.00  0.00     0.024 A 
ATOM     16  C   UNL d   1      54.692  33.510  54.949  0.00  0.00     0.127 A 
ATOM     17  C   UNL d   1      54.702  33.634  54.130  0.00  0.00     0.024 A 
ATOM     18  C   UNL d   1      54.104  33.304  53.659  0.00  0.00     0.002 A 
BRANCH  16  19
ATOM     19  N   UNL d   1      55.281  33.833  55.433  0.00  0.00    -0.114 N 
ATOM     20  O   UNL d   1      55.204  33.777  56.255  0.00  0.00    -0.532 OA
ATOM     21  O   UNL d   1      55.938  34.205  55.112  0.00  0.00    -0.532 OA
ENDBRANCH  16  19
ENDBRANCH  12  13
ENDBRANCH   1  12
TORSDOF 3
ENDMDL
