MODEL 1
REMARK VINA RESULT:     105.6      0.000      0.000
REMARK  6 active torsions:
REMARK  status: ('A' for Active; 'I' for Inactive)
REMARK    1  A    between atoms: C_10  and  N_3 
REMARK    2  A    between atoms: C_12  and  C_6 
REMARK    3  A    between atoms: C_20  and  C_10 
REMARK    4  A    between atoms: C_11  and  C_17 
REMARK    5  A    between atoms: O_27  and  C_11 
REMARK    6  A    between atoms: N_13  and  C_20 
ROOT
ATOM      1  C   UNL d   1     -49.718  27.432  35.311  0.00  0.00     0.083 A 
ATOM      2  C   UNL d   1     -49.490  27.437  34.507  0.00  0.00     0.161 A 
ATOM      3  N   UNL d   1     -50.465  26.531  34.666  0.00  0.00    -0.270 N 
ATOM      4  C   UNL d   1     -49.952  26.881  34.114  0.00  0.00     0.288 A 
ATOM      5  C   UNL d   1     -49.341  27.943  35.848  0.00  0.00     0.201 A 
ATOM      6  C   UNL d   1     -50.317  26.872  35.400  0.00  0.00     0.072 A 
ATOM      7  O   UNL d   1     -48.895  27.946  34.252  0.00  0.00    -0.302 OA
ATOM      8  C   UNL d   1     -48.746  28.450  35.581  0.00  0.00     0.063 A 
ATOM      9  C   UNL d   1     -48.519  28.455  34.781  0.00  0.00     0.103 A 
ATOM     10  O   UNL d   1     -49.915  26.699  33.307  0.00  0.00    -0.264 OA
ATOM     11  O   UNL d   1     -49.563  27.940  36.641  0.00  0.00    -0.286 OA
ATOM     12  C   UNL d   1     -48.375  28.955  36.116  0.00  0.00     0.017 A 
ATOM     13  C   UNL d   1     -47.926  28.965  34.534  0.00  0.00     0.026 A 
ATOM     14  C   UNL d   1     -47.783  29.462  35.860  0.00  0.00     0.058 A 
ATOM     15  C   UNL d   1     -47.558  29.467  35.069  0.00  0.00     0.013 A 
ATOM     16 CL   UNL d   1     -47.416  29.964  36.395  0.00  0.00    -0.082 Cl
ENDROOT
BRANCH   6  17
ATOM     17  C   UNL d   1     -50.679  26.717  36.126  0.00  0.00     0.016 A 
ATOM     18  C   UNL d   1     -50.245  26.377  36.744  0.00  0.00     0.002 A 
ATOM     19  C   UNL d   1     -50.606  26.221  37.470  0.00  0.00     0.005 A 
ATOM     20  C   UNL d   1     -51.406  26.405  37.584  0.00  0.00     0.063 A 
ATOM     21  C   UNL d   1     -51.839  26.747  36.960  0.00  0.00     0.005 A 
ATOM     22  C   UNL d   1     -51.476  26.901  36.237  0.00  0.00     0.002 A 
BRANCH  20  23
ATOM     23  C   UNL d   1     -51.766  26.249  38.309  0.00  0.00     0.296 C 
ATOM     24  O   UNL d   1     -51.387  26.456  39.007  0.00  0.00    -0.259 OA
BRANCH  23  25
ATOM     25  O   UNL d   1     -52.502  25.889  38.325  0.00  0.00    -0.296 OA
ATOM     26  C   UNL d   1     -52.619  25.183  38.737  0.00  0.00     0.185 C 
ENDBRANCH  23  25
ENDBRANCH  20  23
ENDBRANCH   6  17
BRANCH   3  27
ATOM     27  C   UNL d   1     -51.021  25.946  34.504  0.00  0.00     0.102 C 
BRANCH  27  28
ATOM     28  C   UNL d   1     -51.015  25.551  33.780  0.00  0.00     0.100 C 
BRANCH  28  29
ATOM     29  N   UNL d   1     -51.553  24.947  33.629  0.00  0.00    -0.298 N 
ATOM     30  C   UNL d   1     -51.284  24.179  33.549  0.00  0.00     0.107 A 
ATOM     31  C   UNL d   1     -51.820  23.575  33.398  0.00  0.00     0.142 A 
ATOM     32  O   UNL d   1     -52.622  23.744  33.330  0.00  0.00    -0.300 OA
ATOM     33  C   UNL d   1     -52.884  24.517  33.412  0.00  0.00     0.142 A 
ATOM     34  C   UNL d   1     -52.347  25.121  33.562  0.00  0.00     0.107 A 
ENDBRANCH  28  29
ENDBRANCH  27  28
ENDBRANCH   3  27
TORSDOF 6
ENDMDL
