MODEL 1
REMARK VINA RESULT:      62.1      0.000      0.000
REMARK  5 active torsions:
REMARK  status: ('A' for Active; 'I' for Inactive)
REMARK    1  A    between atoms: C_7  and  C_1 
REMARK    2  A    between atoms: C_6  and  O_13 
REMARK    3  A    between atoms: C_12  and  C_6 
REMARK    4  A    between atoms: O_13  and  C_10 
REMARK    5  A    between atoms: C_28  and  C_14 
ROOT
ATOM      1  C   UNL d   1      13.801  15.501  -4.384  0.00  0.00     0.064 A 
ATOM      2  C   UNL d   1      13.506  14.127  -4.145  0.00  0.00     0.062 A 
ATOM      3  C   UNL d   1      13.497  14.782  -4.646  0.00  0.00     0.199 A 
ATOM      4  C   UNL d   1      14.113  15.566  -3.624  0.00  0.00     0.126 A 
ATOM      5  C   UNL d   1      13.817  14.193  -3.385  0.00  0.00     0.105 A 
ATOM      6  O   UNL d   1      14.121  14.913  -3.124  0.00  0.00    -0.305 OA
ATOM      7  C   UNL d   1      13.202  13.408  -4.407  0.00  0.00     0.007 A 
ATOM      8  C   UNL d   1      13.521  12.815  -3.146  0.00  0.00     0.105 A 
ATOM      9  C   UNL d   1      13.826  13.539  -2.885  0.00  0.00     0.050 A 
ATOM     10  C   UNL d   1      13.210  12.750  -3.906  0.00  0.00     0.023 A 
ATOM     11  O   UNL d   1      13.185  14.717  -5.407  0.00  0.00    -0.286 OA
ENDROOT
BRANCH   1  12
ATOM     12  C   UNL d   1      13.792  16.155  -4.885  0.00  0.00     0.007 A 
ATOM     13  C   UNL d   1      14.322  16.788  -4.759  0.00  0.00     0.027 A 
ATOM     14  C   UNL d   1      14.316  17.438  -5.252  0.00  0.00     0.123 A 
ATOM     15  O   UNL d   1      14.841  18.058  -5.123  0.00  0.00    -0.301 OA
ATOM     16  C   UNL d   1      13.777  17.474  -5.891  0.00  0.00     0.123 A 
ATOM     17  C   UNL d   1      14.834  18.717  -5.624  0.00  0.00     0.149 A 
ATOM     18  C   UNL d   1      14.304  18.756  -6.255  0.00  0.00     0.149 A 
ATOM     19  O   UNL d   1      13.771  18.129  -6.389  0.00  0.00    -0.301 OA
ATOM     20  C   UNL d   1      13.248  16.842  -6.017  0.00  0.00     0.027 A 
ATOM     21  C   UNL d   1      13.257  16.188  -5.517  0.00  0.00     0.002 A 
ENDBRANCH   1  12
BRANCH  10  22
ATOM     22  C   UNL d   1      12.904  12.023  -4.165  0.00  0.00     0.002 C 
ATOM     23  C   UNL d   1      13.022  11.780  -4.943  0.00  0.00     0.000 C 
ENDBRANCH  10  22
BRANCH   8  24
ATOM     24  O   UNL d   1      13.528  12.153  -2.644  0.00  0.00    -0.271 OA
BRANCH  24  25
ATOM     25  C   UNL d   1      14.203  11.975  -2.203  0.00  0.00     0.323 C 
ATOM     26  O   UNL d   1      14.927  11.868  -2.573  0.00  0.00    -0.257 OA
BRANCH  25  27
ATOM     27  C   UNL d   1      14.149  11.904  -1.379  0.00  0.00     0.163 A 
ATOM     28  O   UNL d   1      14.779  11.879  -0.851  0.00  0.00    -0.300 OA
ATOM     29  C   UNL d   1      14.480  11.805  -0.086  0.00  0.00     0.123 A 
ATOM     30  C   UNL d   1      13.652  11.785  -0.145  0.00  0.00     0.029 A 
ATOM     31  C   UNL d   1      13.452  11.847  -0.949  0.00  0.00     0.032 A 
ENDBRANCH  25  27
ENDBRANCH  24  25
ENDBRANCH   8  24
TORSDOF 5
ENDMDL
