MODEL 1
REMARK VINA RESULT:      -6.3      0.000      0.000
REMARK  2 active torsions:
REMARK  status: ('A' for Active; 'I' for Inactive)
REMARK       I    between atoms: C_2  and  N_4 
REMARK       I    between atoms: N_7  and  C_2 
REMARK    1  A    between atoms: N_4  and  C_8 
REMARK    2  A    between atoms: C_12  and  N_7 
ROOT
ATOM      1  C   UNL d   1     -41.742-122.400 -52.266  0.00  0.00     0.369 C 
ATOM      2  N   UNL d   1     -41.741-122.027 -52.996  0.00  0.00    -0.190 NA
ATOM      3  N   UNL d   1     -41.820-121.961 -51.575  0.00  0.00    -0.191 NA
ATOM      4  O   UNL d   1     -41.662-123.220 -52.229  0.00  0.00    -0.242 OA
ENDROOT
BRANCH   2   5
ATOM      5  C   UNL d   1     -41.664-122.461 -53.684  0.00  0.00     0.098 A 
ATOM      6  C   UNL d   1     -41.962-121.807 -54.097  0.00  0.00     0.118 A 
ATOM      7  S   UNL d   1     -41.989-122.002 -54.899  0.00  0.00     0.213 S 
ATOM      8  O   UNL d   1     -42.251-121.246 -54.718  0.00  0.00    -0.217 OA
ATOM      9  O   UNL d   1     -41.985-122.269 -55.678  0.00  0.00    -0.217 OA
ATOM     10  C   UNL d   1     -41.709-122.773 -54.987  0.00  0.00     0.100 A 
ATOM     11  C   UNL d   1     -41.507-123.060 -54.236  0.00  0.00     0.032 A 
ENDBRANCH   2   5
BRANCH   3  12
ATOM     12  C   UNL d   1     -41.819-122.339 -50.844  0.00  0.00     0.086 A 
ATOM     13  C   UNL d   1     -42.521-122.405 -50.416  0.00  0.00     0.019 A 
ATOM     14  C   UNL d   1     -42.523-122.778 -49.694  0.00  0.00     0.002 A 
ATOM     15  C   UNL d   1     -41.825-123.092 -49.386  0.00  0.00     0.000 A 
ATOM     16  C   UNL d   1     -41.123-123.026 -49.813  0.00  0.00     0.002 A 
ATOM     17  C   UNL d   1     -41.124-122.649 -50.543  0.00  0.00     0.019 A 
ENDBRANCH   3  12
TORSDOF 2
ENDMDL
MODEL 2
REMARK VINA RESULT:      -5.1      2.303      4.506
REMARK  2 active torsions:
REMARK  status: ('A' for Active; 'I' for Inactive)
REMARK       I    between atoms: C_2  and  N_4 
REMARK       I    between atoms: N_7  and  C_2 
REMARK    1  A    between atoms: N_4  and  C_8 
REMARK    2  A    between atoms: C_12  and  N_7 
ROOT
ATOM      1  C   UNL d   1     -41.718-123.067 -51.163  0.00  0.00     0.369 C 
ATOM      2  N   UNL d   1     -41.637-123.198 -50.358  0.00  0.00    -0.190 NA
ATOM      3  N   UNL d   1     -41.123-123.294 -51.683  0.00  0.00    -0.191 NA
ATOM      4  O   UNL d   1     -42.402-122.706 -51.449  0.00  0.00    -0.242 OA
ENDROOT
BRANCH   2   5
ATOM      5  C   UNL d   1     -42.227-122.973 -49.839  0.00  0.00     0.098 A 
ATOM      6  C   UNL d   1     -41.792-123.332 -49.232  0.00  0.00     0.118 A 
ATOM      7  S   UNL d   1     -42.212-123.238 -48.527  0.00  0.00     0.213 S 
ATOM      8  O   UNL d   1     -41.502-123.644 -48.455  0.00  0.00    -0.217 OA
ATOM      9  O   UNL d   1     -42.686-123.104 -47.867  0.00  0.00    -0.217 OA
ATOM     10  C   UNL d   1     -42.905-122.823 -48.693  0.00  0.00     0.100 A 
ATOM     11  C   UNL d   1     -42.918-122.657 -49.505  0.00  0.00     0.032 A 
ENDBRANCH   2   5
BRANCH   3  12
ATOM     12  C   UNL d   1     -41.207-123.161 -52.490  0.00  0.00     0.086 A 
ATOM     13  C   UNL d   1     -41.149-122.395 -52.788  0.00  0.00     0.019 A 
ATOM     14  C   UNL d   1     -41.232-122.261 -53.586  0.00  0.00     0.002 A 
ATOM     15  C   UNL d   1     -41.375-122.890 -54.100  0.00  0.00     0.000 A 
ATOM     16  C   UNL d   1     -41.433-123.657 -53.803  0.00  0.00     0.002 A 
ATOM     17  C   UNL d   1     -41.349-123.789 -52.996  0.00  0.00     0.019 A 
ENDBRANCH   3  12
TORSDOF 2
ENDMDL
MODEL 3
REMARK VINA RESULT:      -5.0      1.445      2.239
REMARK  2 active torsions:
REMARK  status: ('A' for Active; 'I' for Inactive)
REMARK       I    between atoms: C_2  and  N_4 
REMARK       I    between atoms: N_7  and  C_2 
REMARK    1  A    between atoms: N_4  and  C_8 
REMARK    2  A    between atoms: C_12  and  N_7 
ROOT
ATOM      1  C   UNL d   1     -41.741-123.137 -50.483  0.00  0.00     0.369 C 
ATOM      2  N   UNL d   1     -41.765-123.249 -51.295  0.00  0.00    -0.190 NA
ATOM      3  N   UNL d   1     -42.030-123.715 -49.975  0.00  0.00    -0.191 NA
ATOM      4  O   UNL d   1     -41.423-122.440 -50.179  0.00  0.00    -0.242 OA
ENDROOT
BRANCH   2   5
ATOM      5  C   UNL d   1     -41.478-122.677 -51.802  0.00  0.00     0.098 A 
ATOM      6  C   UNL d   1     -41.642-123.191 -52.431  0.00  0.00     0.118 A 
ATOM      7  S   UNL d   1     -41.422-122.815 -53.133  0.00  0.00     0.213 S 
ATOM      8  O   UNL d   1     -41.734-123.569 -53.227  0.00  0.00    -0.217 OA
ATOM      9  O   UNL d   1     -41.180-122.377 -53.787  0.00  0.00    -0.217 OA
ATOM     10  C   UNL d   1     -41.123-122.071 -52.944  0.00  0.00     0.100 A 
ATOM     11  C   UNL d   1     -41.156-121.982 -52.120  0.00  0.00     0.032 A 
ENDBRANCH   2   5
BRANCH   3  12
ATOM     12  C   UNL d   1     -42.004-123.599 -49.161  0.00  0.00     0.086 A 
ATOM     13  C   UNL d   1     -41.319-123.787 -48.742  0.00  0.00     0.019 A 
ATOM     14  C   UNL d   1     -41.291-123.673 -47.937  0.00  0.00     0.002 A 
ATOM     15  C   UNL d   1     -41.945-123.369 -47.537  0.00  0.00     0.000 A 
ATOM     16  C   UNL d   1     -42.630-123.180 -47.956  0.00  0.00     0.002 A 
ATOM     17  C   UNL d   1     -42.656-123.297 -48.769  0.00  0.00     0.019 A 
ENDBRANCH   3  12
TORSDOF 2
ENDMDL
