MODEL 1
REMARK VINA RESULT:     -10.0      0.000      0.000
REMARK  8 active torsions:
REMARK  status: ('A' for Active; 'I' for Inactive)
REMARK    1  A    between atoms: C_21  and  C_3 
REMARK    2  A    between atoms: S_17  and  C_5 
REMARK    3  A    between atoms: C_11  and  C_16 
REMARK       I    between atoms: N_14  and  C_11 
REMARK    4  A    between atoms: C_19  and  N_14 
REMARK    5  A    between atoms: C_16  and  C_20 
REMARK    6  A    between atoms: C_20  and  S_17 
REMARK    7  A    between atoms: O_27  and  C_22 
REMARK    8  A    between atoms: C_30  and  O_27 
ROOT
ATOM      1  C   UNL d   1      52.801  34.004  53.655  0.00  0.00     0.092 A 
ATOM      2  C   UNL d   1      53.271  32.654  53.694  0.00  0.00     0.057 A 
ATOM      3  C   UNL d   1      53.351  33.444  53.916  0.00  0.00     0.016 A 
ATOM      4  N   UNL d   1      52.095  32.978  52.952  0.00  0.00    -0.239 NA
ATOM      5  C   UNL d   1      52.173  33.771  53.173  0.00  0.00     0.120 A 
ATOM      6  C   UNL d   1      52.643  32.421  53.212  0.00  0.00     0.081 A 
ATOM      7  C   UNL d   1      53.819  32.098  53.955  0.00  0.00     0.193 A 
ATOM      8  C   UNL d   1      52.887  34.804  53.883  0.00  0.00     0.103 C 
ATOM      9  N   UNL d   1      52.969  35.607  54.109  0.00  0.00    -0.191 NA
ATOM     10  C   UNL d   1      53.111  31.076  53.251  0.00  0.00     0.042 A 
ATOM     11  C   UNL d   1      53.739  31.309  53.734  0.00  0.00     0.019 A 
ATOM     12  C   UNL d   1      52.563  31.633  52.991  0.00  0.00    -0.003 A 
ATOM     13  O   UNL d   1      54.447  32.331  54.437  0.00  0.00    -0.287 OA
ATOM     14  C   UNL d   1      52.616  30.587  52.807  0.00  0.00     0.009 C 
ATOM     15  C   UNL d   1      53.664  30.508  53.513  0.00  0.00     0.009 C 
ENDROOT
BRANCH   3  16
ATOM     16  C   UNL d   1      53.978  33.676  54.398  0.00  0.00     0.001 C 
ATOM     17  C   UNL d   1      53.902  33.646  55.217  0.00  0.00     0.000 C 
ENDBRANCH   3  16
BRANCH   5  18
ATOM     18  S   UNL d   1      51.623  34.335  52.912  0.00  0.00    -0.067 SA
BRANCH  18  19
ATOM     19  C   UNL d   1      50.828  34.122  52.823  0.00  0.00     0.042 C 
BRANCH  19  20
ATOM     20  C   UNL d   1      50.373  34.453  52.210  0.00  0.00     0.070 C 
BRANCH  20  21
ATOM     21  C   UNL d   1      49.605  34.719  52.362  0.00  0.00     0.280 C 
ATOM     22  N   UNL d   1      49.188  35.142  51.780  0.00  0.00    -0.208 NA
ATOM     23  O   UNL d   1      49.249  34.565  53.095  0.00  0.00    -0.265 OA
BRANCH  22  24
ATOM     24  C   UNL d   1      48.419  35.408  51.931  0.00  0.00     0.085 A 
ATOM     25  C   UNL d   1      48.280  35.945  52.548  0.00  0.00     0.021 A 
ATOM     26  C   UNL d   1      47.513  36.206  52.694  0.00  0.00     0.026 A 
ATOM     27  C   UNL d   1      46.871  35.939  52.229  0.00  0.00     0.100 A 
ATOM     28  C   UNL d   1      47.017  35.405  51.617  0.00  0.00     0.026 A 
ATOM     29  C   UNL d   1      47.785  35.138  51.465  0.00  0.00     0.021 A 
BRANCH  27  30
ATOM     30  O   UNL d   1      46.089  36.208  52.381  0.00  0.00    -0.305 OA
BRANCH  30  31
ATOM     31  C   UNL d   1      45.642  35.852  52.978  0.00  0.00     0.123 C 
ATOM     32  C   UNL d   1      44.874  36.100  53.109  0.00  0.00     0.029 C 
ENDBRANCH  30  31
ENDBRANCH  27  30
ENDBRANCH  22  24
ENDBRANCH  20  21
ENDBRANCH  19  20
ENDBRANCH  18  19
ENDBRANCH   5  18
TORSDOF 8
ENDMDL
MODEL 2
REMARK VINA RESULT:      -8.1      0.728      2.114
REMARK  8 active torsions:
REMARK  status: ('A' for Active; 'I' for Inactive)
REMARK    1  A    between atoms: C_21  and  C_3 
REMARK    2  A    between atoms: S_17  and  C_5 
REMARK    3  A    between atoms: C_11  and  C_16 
REMARK       I    between atoms: N_14  and  C_11 
REMARK    4  A    between atoms: C_19  and  N_14 
REMARK    5  A    between atoms: C_16  and  C_20 
REMARK    6  A    between atoms: C_20  and  S_17 
REMARK    7  A    between atoms: O_27  and  C_22 
REMARK    8  A    between atoms: C_30  and  O_27 
ROOT
ATOM      1  C   UNL d   1      52.719  32.479  53.215  0.00  0.00     0.092 A 
ATOM      2  C   UNL d   1      53.624  33.102  54.131  0.00  0.00     0.057 A 
ATOM      3  C   UNL d   1      53.408  32.452  53.673  0.00  0.00     0.016 A 
ATOM      4  N   UNL d   1      52.469  33.809  53.677  0.00  0.00    -0.239 NA
ATOM      5  C   UNL d   1      52.250  33.158  53.217  0.00  0.00     0.120 A 
ATOM      6  C   UNL d   1      53.154  33.781  54.133  0.00  0.00     0.081 A 
ATOM      7  C   UNL d   1      54.309  33.073  54.585  0.00  0.00     0.193 A 
ATOM      8  C   UNL d   1      52.505  31.816  52.753  0.00  0.00     0.103 C 
ATOM      9  N   UNL d   1      52.286  31.154  52.288  0.00  0.00    -0.191 NA
ATOM     10  C   UNL d   1      54.056  34.402  55.045  0.00  0.00     0.042 A 
ATOM     11  C   UNL d   1      54.525  33.723  55.043  0.00  0.00     0.019 A 
ATOM     12  C   UNL d   1      53.371  34.430  54.589  0.00  0.00    -0.003 A 
ATOM     13  O   UNL d   1      54.779  32.394  54.583  0.00  0.00    -0.287 OA
ATOM     14  C   UNL d   1      53.797  35.164  55.230  0.00  0.00     0.009 C 
ATOM     15  C   UNL d   1      54.750  34.378  55.508  0.00  0.00     0.009 C 
ENDROOT
BRANCH   3  16
ATOM     16  C   UNL d   1      53.877  31.773  53.671  0.00  0.00     0.001 C 
ATOM     17  C   UNL d   1      53.679  31.134  54.151  0.00  0.00     0.000 C 
ENDBRANCH   3  16
BRANCH   5  18
ATOM     18  S   UNL d   1      51.560  33.183  52.757  0.00  0.00    -0.067 SA
BRANCH  18  19
ATOM     19  C   UNL d   1      51.022  33.804  52.858  0.00  0.00     0.042 C 
BRANCH  19  20
ATOM     20  C   UNL d   1      50.504  34.011  52.241  0.00  0.00     0.070 C 
BRANCH  20  21
ATOM     21  C   UNL d   1      49.818  34.443  52.404  0.00  0.00     0.280 C 
ATOM     22  N   UNL d   1      49.356  34.742  51.781  0.00  0.00    -0.208 NA
ATOM     23  O   UNL d   1      49.590  34.579  53.190  0.00  0.00    -0.265 OA
BRANCH  22  24
ATOM     24  C   UNL d   1      48.669  35.175  51.944  0.00  0.00     0.085 A 
ATOM     25  C   UNL d   1      48.655  35.707  52.580  0.00  0.00     0.021 A 
ATOM     26  C   UNL d   1      47.969  36.133  52.737  0.00  0.00     0.026 A 
ATOM     27  C   UNL d   1      47.285  36.040  52.264  0.00  0.00     0.100 A 
ATOM     28  C   UNL d   1      47.306  35.510  51.632  0.00  0.00     0.026 A 
ATOM     29  C   UNL d   1      47.992  35.077  51.469  0.00  0.00     0.021 A 
BRANCH  27  30
ATOM     30  O   UNL d   1      46.587  36.479  52.427  0.00  0.00    -0.305 OA
BRANCH  30  31
ATOM     31  C   UNL d   1      46.097  36.251  53.054  0.00  0.00     0.123 C 
ATOM     32  C   UNL d   1      45.376  36.622  53.157  0.00  0.00     0.029 C 
ENDBRANCH  30  31
ENDBRANCH  27  30
ENDBRANCH  22  24
ENDBRANCH  20  21
ENDBRANCH  19  20
ENDBRANCH  18  19
ENDBRANCH   5  18
TORSDOF 8
ENDMDL
