MODEL 1
REMARK VINA RESULT:      60.0      0.000      0.000
REMARK  3 active torsions:
REMARK  status: ('A' for Active; 'I' for Inactive)
REMARK    1  A    between atoms: C_13  and  N_2 
REMARK    2  A    between atoms: N_5  and  C_14 
REMARK    3  A    between atoms: C_14  and  C_13 
ROOT
ATOM      1  C   UNL d   1     -57.894 -98.759 -45.444  0.00  0.00     0.166 A 
ATOM      2  N   UNL d   1     -57.286 -98.757 -44.870  0.00  0.00    -0.288 N 
ATOM      3  C   UNL d   1     -58.624 -98.759 -45.050  0.00  0.00     0.117 A 
ATOM      4  N   UNL d   1     -57.855 -98.760 -46.276  0.00  0.00    -0.225 NA
ATOM      5  N   UNL d   1     -59.318 -98.760 -45.487  0.00  0.00    -0.241 NA
ATOM      6  C   UNL d   1     -58.467 -98.758 -44.227  0.00  0.00     0.037 A 
ATOM      7  C   UNL d   1     -57.651 -98.757 -44.130  0.00  0.00     0.067 A 
ATOM      8  C   UNL d   1     -58.551 -98.761 -46.720  0.00  0.00     0.101 A 
ATOM      9  C   UNL d   1     -59.281 -98.761 -46.325  0.00  0.00     0.099 A 
ATOM     10  C   UNL d   1     -58.992 -98.757 -43.565  0.00  0.00     0.003 A 
ATOM     11  C   UNL d   1     -57.333 -98.755 -43.344  0.00  0.00     0.018 A 
ATOM     12  C   UNL d   1     -58.520 -98.762 -47.558  0.00  0.00     0.021 A 
ATOM     13  C   UNL d   1     -59.951 -98.763 -46.774  0.00  0.00     0.021 A 
ATOM     14  C   UNL d   1     -58.685 -98.756 -42.808  0.00  0.00     0.000 A 
ATOM     15  C   UNL d   1     -57.865 -98.755 -42.704  0.00  0.00     0.002 A 
ATOM     16  C   UNL d   1     -59.943 -98.764 -47.603  0.00  0.00     0.002 A 
ATOM     17  C   UNL d   1     -59.212 -98.764 -47.998  0.00  0.00     0.002 A 
ENDROOT
BRANCH   2  18
ATOM     18  C   UNL d   1     -56.494 -98.756 -44.625  0.00  0.00     0.101 C 
BRANCH  18  19
ATOM     19  C   UNL d   1     -55.964 -99.308 -44.933  0.00  0.00     0.104 C 
BRANCH  19  20
ATOM     20  N   UNL d   1     -55.463 -99.717 -44.422  0.00  0.00    -0.250 N 
ATOM     21  C   UNL d   1     -55.129 -99.568 -43.860  0.00  0.00     0.378 A 
ATOM     22  O   UNL d   1     -54.795-100.117 -43.666  0.00  0.00    -0.258 OA
ATOM     23  O   UNL d   1     -55.128 -98.978 -43.547  0.00  0.00    -0.237 OA
ATOM     24  C   UNL d   1     -54.925-100.604 -44.111  0.00  0.00     0.121 A 
ATOM     25  C   UNL d   1     -55.337-100.357 -44.578  0.00  0.00     0.092 A 
ATOM     26  C   UNL d   1     -54.720-101.245 -44.153  0.00  0.00     0.026 A 
ATOM     27  C   UNL d   1     -55.547-100.740 -45.085  0.00  0.00     0.020 A 
ATOM     28  C   UNL d   1     -55.341-101.381 -45.123  0.00  0.00     0.002 A 
ATOM     29  C   UNL d   1     -54.930-101.628 -44.659  0.00  0.00     0.002 A 
ENDBRANCH  19  20
ENDBRANCH  18  19
ENDBRANCH   2  18
TORSDOF 3
ENDMDL
