MODEL 1
REMARK VINA RESULT:      -2.7      0.000      0.000
REMARK  3 active torsions:
REMARK  status: ('A' for Active; 'I' for Inactive)
REMARK    1  A    between atoms: C_11  and  N_1 
REMARK    2  A    between atoms: C_3  and  C_2 
REMARK    3  A    between atoms: C_13  and  C_16 
ROOT
ATOM      1  N   UNL d   1      57.477   0.013  31.747  0.00  0.00    -0.260 N 
ATOM      2  C   UNL d   1      58.117  -0.284  30.621  0.00  0.00     0.093 A 
ATOM      3  C   UNL d   1      58.215   0.291  31.841  0.00  0.00     0.153 A 
ATOM      4  C   UNL d   1      57.391  -0.348  30.999  0.00  0.00     0.272 A 
ATOM      5  S   UNL d   1      58.624   0.112  31.147  0.00  0.00    -0.053 SA
ATOM      6  S   UNL d   1      58.505   0.682  32.511  0.00  0.00    -0.052 SA
ATOM      7  O   UNL d   1      56.713  -0.702  30.690  0.00  0.00    -0.266 OA
ENDROOT
BRANCH   2   8
ATOM      8  C   UNL d   1      58.323  -0.549  29.881  0.00  0.00     0.068 A 
ATOM      9  C   UNL d   1      58.245  -0.109  29.197  0.00  0.00     0.258 A 
ATOM     10  N   UNL d   1      58.502  -0.543  28.568  0.00  0.00    -0.321 N 
ATOM     11  O   UNL d   1      57.949   0.662  29.160  0.00  0.00    -0.267 OA
ATOM     12  H   UNL d   1      58.511  -0.290  27.781  0.00  0.00     0.169 HD
ATOM     13  C   UNL d   1      58.749  -1.278  28.852  0.00  0.00     0.059 A 
ATOM     14  C   UNL d   1      58.643  -1.290  29.660  0.00  0.00     0.021 A 
ATOM     15  C   UNL d   1      59.065  -1.946  28.455  0.00  0.00     0.017 A 
ATOM     16  C   UNL d   1      58.842  -1.953  30.095  0.00  0.00     0.002 A 
ATOM     17  C   UNL d   1      59.152  -2.616  29.718  0.00  0.00     0.000 A 
ATOM     18  C   UNL d   1      59.264  -2.613  28.898  0.00  0.00     0.002 A 
ENDBRANCH   2   8
BRANCH   1  19
ATOM     19  C   UNL d   1      56.862   0.052  32.274  0.00  0.00     0.068 A 
ATOM     20  C   UNL d   1      56.322   0.662  32.253  0.00  0.00     0.018 A 
ATOM     21  C   UNL d   1      55.693   0.682  32.808  0.00  0.00     0.008 A 
ATOM     22  C   UNL d   1      55.630   0.087  33.364  0.00  0.00     0.065 A 
ATOM     23  C   UNL d   1      56.179  -0.532  33.383  0.00  0.00     0.008 A 
ATOM     24  C   UNL d   1      56.785  -0.550  32.848  0.00  0.00     0.018 A 
BRANCH  22  25
ATOM     25  C   UNL d   1      54.984   0.124  33.920  0.00  0.00     0.211 C 
ATOM     26  O   UNL d   1      55.130   0.027  34.732  0.00  0.00    -0.644 OA
ATOM     27  O   UNL d   1      54.210   0.257  33.653  0.00  0.00    -0.644 OA
ENDBRANCH  22  25
ENDBRANCH   1  19
TORSDOF 3
ENDMDL
MODEL 2
REMARK VINA RESULT:      -2.1      1.429      1.795
REMARK  3 active torsions:
REMARK  status: ('A' for Active; 'I' for Inactive)
REMARK    1  A    between atoms: C_11  and  N_1 
REMARK    2  A    between atoms: C_3  and  C_2 
REMARK    3  A    between atoms: C_13  and  C_16 
ROOT
ATOM      1  N   UNL d   1      57.983  -0.101  30.419  0.00  0.00    -0.260 N 
ATOM      2  C   UNL d   1      59.023  -0.453  29.671  0.00  0.00     0.093 A 
ATOM      3  C   UNL d   1      57.852   0.221  29.706  0.00  0.00     0.153 A 
ATOM      4  C   UNL d   1      58.703  -0.524  30.424  0.00  0.00     0.272 A 
ATOM      5  S   UNL d   1      58.492   0.010  29.230  0.00  0.00    -0.053 SA
ATOM      6  S   UNL d   1      57.195   0.679  29.493  0.00  0.00    -0.052 SA
ATOM      7  O   UNL d   1      59.037  -0.936  31.056  0.00  0.00    -0.266 OA
ENDROOT
BRANCH   2   8
ATOM      8  C   UNL d   1      59.720  -0.764  29.390  0.00  0.00     0.068 A 
ATOM      9  C   UNL d   1      60.426  -0.354  29.356  0.00  0.00     0.258 A 
ATOM     10  N   UNL d   1      60.998  -0.832  29.048  0.00  0.00    -0.321 N 
ATOM     11  O   UNL d   1      60.532   0.429  29.599  0.00  0.00    -0.267 OA
ATOM     12  H   UNL d   1      61.787  -0.618  28.926  0.00  0.00     0.169 HD
ATOM     13  C   UNL d   1      60.654  -1.564  28.881  0.00  0.00     0.059 A 
ATOM     14  C   UNL d   1      59.867  -1.530  29.089  0.00  0.00     0.021 A 
ATOM     15  C   UNL d   1      60.979  -2.266  28.558  0.00  0.00     0.017 A 
ATOM     16  C   UNL d   1      59.382  -2.181  28.985  0.00  0.00     0.002 A 
ATOM     17  C   UNL d   1      59.688  -2.877  28.669  0.00  0.00     0.000 A 
ATOM     18  C   UNL d   1      60.486  -2.920  28.455  0.00  0.00     0.002 A 
ENDBRANCH   2   8
BRANCH   1  19
ATOM     19  C   UNL d   1      57.514  -0.053  31.079  0.00  0.00     0.068 A 
ATOM     20  C   UNL d   1      57.506   0.613  31.548  0.00  0.00     0.018 A 
ATOM     21  C   UNL d   1      57.013   0.642  32.226  0.00  0.00     0.008 A 
ATOM     22  C   UNL d   1      56.546  -0.003  32.408  0.00  0.00     0.065 A 
ATOM     23  C   UNL d   1      56.555  -0.679  31.932  0.00  0.00     0.008 A 
ATOM     24  C   UNL d   1      57.031  -0.705  31.279  0.00  0.00     0.018 A 
BRANCH  22  25
ATOM     25  C   UNL d   1      56.051   0.044  33.102  0.00  0.00     0.211 C 
ATOM     26  O   UNL d   1      56.361   0.339  33.813  0.00  0.00    -0.644 OA
ATOM     27  O   UNL d   1      55.260  -0.205  33.067  0.00  0.00    -0.644 OA
ENDBRANCH  22  25
ENDBRANCH   1  19
TORSDOF 3
ENDMDL
MODEL 3
REMARK VINA RESULT:      -1.1      1.623      4.799
REMARK  3 active torsions:
REMARK  status: ('A' for Active; 'I' for Inactive)
REMARK    1  A    between atoms: C_11  and  N_1 
REMARK    2  A    between atoms: C_3  and  C_2 
REMARK    3  A    between atoms: C_13  and  C_16 
ROOT
ATOM      1  N   UNL d   1      57.746  -0.336  30.816  0.00  0.00    -0.260 N 
ATOM      2  C   UNL d   1      57.269   0.166  31.950  0.00  0.00     0.093 A 
ATOM      3  C   UNL d   1      57.413   0.357  30.620  0.00  0.00     0.153 A 
ATOM      4  C   UNL d   1      57.671  -0.477  31.635  0.00  0.00     0.272 A 
ATOM      5  S   UNL d   1      57.111   0.680  31.317  0.00  0.00    -0.053 SA
ATOM      6  S   UNL d   1      57.380   0.682  29.858  0.00  0.00    -0.052 SA
ATOM      7  O   UNL d   1      57.943  -1.133  32.057  0.00  0.00    -0.266 OA
ENDROOT
BRANCH   2   8
ATOM      8  C   UNL d   1      57.057   0.296  32.724  0.00  0.00     0.068 A 
ATOM      9  C   UNL d   1      57.574   0.537  33.309  0.00  0.00     0.258 A 
ATOM     10  N   UNL d   1      57.176   0.610  34.006  0.00  0.00    -0.321 N 
ATOM     11  O   UNL d   1      58.380   0.682  33.198  0.00  0.00    -0.267 OA
ATOM     12  H   UNL d   1      57.507   0.842  34.727  0.00  0.00     0.169 HD
ATOM     13  C   UNL d   1      56.386   0.412  33.868  0.00  0.00     0.059 A 
ATOM     14  C   UNL d   1      56.304   0.217  33.080  0.00  0.00     0.021 A 
ATOM     15  C   UNL d   1      55.724   0.388  34.382  0.00  0.00     0.017 A 
ATOM     16  C   UNL d   1      55.576  -0.004  32.780  0.00  0.00     0.002 A 
ATOM     17  C   UNL d   1      54.918  -0.031  33.275  0.00  0.00     0.000 A 
ATOM     18  C   UNL d   1      54.991   0.165  34.075  0.00  0.00     0.002 A 
ENDBRANCH   2   8
BRANCH   1  19
ATOM     19  C   UNL d   1      58.119  -0.864  30.326  0.00  0.00     0.068 A 
ATOM     20  C   UNL d   1      58.816  -0.675  29.950  0.00  0.00     0.018 A 
ATOM     21  C   UNL d   1      59.185  -1.237  29.447  0.00  0.00     0.008 A 
ATOM     22  C   UNL d   1      58.837  -1.968  29.341  0.00  0.00     0.065 A 
ATOM     23  C   UNL d   1      58.129  -2.158  29.724  0.00  0.00     0.008 A 
ATOM     24  C   UNL d   1      57.775  -1.616  30.208  0.00  0.00     0.018 A 
BRANCH  22  25
ATOM     25  C   UNL d   1      59.226  -2.526  28.825  0.00  0.00     0.211 C 
ATOM     26  O   UNL d   1      59.979  -2.354  28.521  0.00  0.00    -0.644 OA
ATOM     27  O   UNL d   1      58.854  -3.241  28.628  0.00  0.00    -0.644 OA
ENDBRANCH  22  25
ENDBRANCH   1  19
TORSDOF 3
ENDMDL
