MODEL 1
REMARK VINA RESULT:      68.1      0.000      0.000
REMARK  5 active torsions:
REMARK  status: ('A' for Active; 'I' for Inactive)
REMARK    1  A    between atoms: C_7  and  C_2 
REMARK    2  A    between atoms: C_9  and  C_4 
REMARK    3  A    between atoms: C_16  and  C_7 
REMARK    4  A    between atoms: N_8  and  C_9 
REMARK    5  A    between atoms: C_23  and  C_14 
ROOT
ATOM      1  C   UNL d   1     -50.928  25.315  33.313  0.00  0.00     0.108 A 
ATOM      2  C   UNL d   1     -50.497  26.587  33.310  0.00  0.00     0.139 A 
ATOM      3  O   UNL d   1     -51.179  26.106  33.309  0.00  0.00    -0.304 OA
ATOM      4  C   UNL d   1     -51.344  24.613  33.313  0.00  0.00     0.079 A 
ATOM      5  C   UNL d   1     -50.101  25.306  33.316  0.00  0.00     0.064 A 
ATOM      6  C   UNL d   1     -49.838  26.093  33.314  0.00  0.00     0.220 A 
ATOM      7  C   UNL d   1     -49.695  24.588  33.320  0.00  0.00     0.009 A 
ATOM      8  C   UNL d   1     -50.937  23.899  33.318  0.00  0.00     0.199 A 
ATOM      9  O   UNL d   1     -49.047  26.336  33.316  0.00  0.00    -0.284 OA
ATOM     10  C   UNL d   1     -50.115  23.887  33.321  0.00  0.00     0.042 A 
ATOM     11  O   UNL d   1     -51.358  23.190  33.318  0.00  0.00    -0.286 OA
ENDROOT
BRANCH   2  12
ATOM     12  C   UNL d   1     -50.489  27.414  33.307  0.00  0.00     0.028 C 
BRANCH  12  13
ATOM     13  C   UNL d   1     -49.913  27.824  33.732  0.00  0.00     0.002 A 
ATOM     14  C   UNL d   1     -49.836  28.642  33.645  0.00  0.00     0.000 A 
ATOM     15  C   UNL d   1     -49.260  29.052  34.070  0.00  0.00     0.000 A 
ATOM     16  C   UNL d   1     -48.760  28.642  34.583  0.00  0.00     0.000 A 
ATOM     17  C   UNL d   1     -48.836  27.824  34.671  0.00  0.00     0.000 A 
ATOM     18  C   UNL d   1     -49.413  27.414  34.245  0.00  0.00     0.000 A 
BRANCH  16  19
ATOM     19  C   UNL d   1     -48.184  29.052  35.009  0.00  0.00     0.000 C 
ATOM     20  C   UNL d   1     -47.666  28.642  35.506  0.00  0.00     0.000 C 
ATOM     21  C   UNL d   1     -48.125  29.875  34.938  0.00  0.00     0.000 C 
ENDBRANCH  16  19
ENDBRANCH  12  13
ENDBRANCH   2  12
BRANCH   4  22
ATOM     22  C   UNL d   1     -52.162  24.613  33.310  0.00  0.00     0.086 C 
BRANCH  22  23
ATOM     23  N   UNL d   1     -52.656  24.257  33.863  0.00  0.00    -0.300 N 
ATOM     24  C   UNL d   1     -53.316  23.841  33.615  0.00  0.00     0.100 A 
ATOM     25  C   UNL d   1     -53.811  23.485  34.159  0.00  0.00     0.100 A 
ATOM     26  N   UNL d   1     -53.636  23.551  34.958  0.00  0.00    -0.299 N 
ATOM     27  C   UNL d   1     -52.976  23.967  35.206  0.00  0.00     0.100 A 
ATOM     28  C   UNL d   1     -54.126  23.198  35.512  0.00  0.00     0.100 C 
ATOM     29  C   UNL d   1     -52.490  24.318  34.651  0.00  0.00     0.100 A 
ENDBRANCH  22  23
ENDBRANCH   4  22
TORSDOF 5
ENDMDL
