MODEL 1
REMARK VINA RESULT:      78.9      0.000      0.000
REMARK  8 active torsions:
REMARK  status: ('A' for Active; 'I' for Inactive)
REMARK    1  A    between atoms: C_4  and  N_1 
REMARK    2  A    between atoms: C_10  and  C_2 
REMARK    3  A    between atoms: N_14  and  C_4 
REMARK    4  A    between atoms: O_17  and  C_8 
REMARK    5  A    between atoms: O_15  and  C_10 
REMARK    6  A    between atoms: O_18  and  C_11 
REMARK    7  A    between atoms: C_16  and  O_15 
REMARK    8  A    between atoms: C_25  and  C_19 
ROOT
ATOM      1  N   UNL d   1     -50.494  26.707  34.585  0.00  0.00    -0.280 N 
ATOM      2  C   UNL d   1     -51.141  26.381  34.980  0.00  0.00     0.091 A 
ATOM      3  C   UNL d   1     -51.168  26.399  35.796  0.00  0.00     0.020 A 
ATOM      4  C   UNL d   1     -50.553  26.742  36.226  0.00  0.00     0.005 A 
ATOM      5  C   UNL d   1     -51.813  26.073  36.188  0.00  0.00     0.028 A 
ATOM      6  C   UNL d   1     -49.879  27.050  35.015  0.00  0.00     0.082 A 
ATOM      7  C   UNL d   1     -51.846  26.090  37.012  0.00  0.00     0.116 A 
ATOM      8  C   UNL d   1     -50.583  26.760  37.047  0.00  0.00     0.026 A 
ATOM      9  C   UNL d   1     -51.231  26.433  37.442  0.00  0.00     0.116 A 
ATOM     10  C   UNL d   1     -49.911  27.067  35.840  0.00  0.00     0.019 A 
ENDROOT
BRANCH   2  11
ATOM     11  C   UNL d   1     -51.755  26.038  34.550  0.00  0.00     0.140 C 
BRANCH  11  12
ATOM     12  O   UNL d   1     -51.600  25.413  34.033  0.00  0.00    -0.304 OA
BRANCH  12  13
ATOM     13  C   UNL d   1     -52.192  24.868  33.854  0.00  0.00     0.100 A 
ATOM     14  C   UNL d   1     -52.089  24.071  34.041  0.00  0.00     0.025 A 
ATOM     15  C   UNL d   1     -52.682  23.526  33.862  0.00  0.00     0.002 A 
ATOM     16  C   UNL d   1     -53.378  23.778  33.496  0.00  0.00     0.000 A 
ATOM     17  C   UNL d   1     -53.480  24.575  33.309  0.00  0.00     0.002 A 
ATOM     18  C   UNL d   1     -52.888  25.121  33.489  0.00  0.00     0.025 A 
BRANCH  16  19
ATOM     19  C   UNL d   1     -53.971  23.233  33.317  0.00  0.00     0.000 C 
ATOM     20  C   UNL d   1     -54.645  23.188  33.785  0.00  0.00     0.000 C 
ENDBRANCH  16  19
ENDBRANCH  12  13
ENDBRANCH  11  12
ENDBRANCH   2  11
BRANCH   1  21
ATOM     21  C   UNL d   1     -50.457  26.693  33.753  0.00  0.00     0.206 C 
ATOM     22  S   UNL d   1     -51.108  26.963  33.307  0.00  0.00    -0.038 SA
BRANCH  21  23
ATOM     23  N   UNL d   1     -49.786  26.416  33.377  0.00  0.00    -0.215 NA
ATOM     24  C   UNL d   1     -49.164  26.099  33.817  0.00  0.00     0.122 C 
ENDBRANCH  21  23
ENDBRANCH   1  21
BRANCH   7  25
ATOM     25  O   UNL d   1     -52.495  25.762  37.411  0.00  0.00    -0.326 OA
ATOM     26  C   UNL d   1     -53.091  25.358  36.992  0.00  0.00     0.181 C 
ENDBRANCH   7  25
BRANCH   9  27
ATOM     27  O   UNL d   1     -51.265  26.448  38.271  0.00  0.00    -0.326 OA
ATOM     28  C   UNL d   1     -51.072  27.143  38.689  0.00  0.00     0.181 C 
ENDBRANCH   9  27
TORSDOF 8
ENDMDL
