MODEL 1
REMARK VINA RESULT:      62.8      0.000      0.000
REMARK  4 active torsions:
REMARK  status: ('A' for Active; 'I' for Inactive)
REMARK    1  A    between atoms: C_2  and  S_1 
REMARK    2  A    between atoms: N_3  and  S_1 
REMARK    3  A    between atoms: C_12  and  N_3 
REMARK    4  A    between atoms: N_4  and  C_8 
ROOT
ATOM      1  S   UNL d   1     -51.485  26.945  33.338  0.00  0.00     0.285 S 
ATOM      2  O   UNL d   1     -52.314  27.158  33.306  0.00  0.00    -0.198 OA
ATOM      3  O   UNL d   1     -50.697  26.746  33.370  0.00  0.00    -0.198 OA
ENDROOT
BRANCH   1   4
ATOM      4  C   UNL d   1     -51.709  26.174  33.331  0.00  0.00     0.105 A 
ATOM      5  C   UNL d   1     -51.170  25.554  33.337  0.00  0.00     0.013 A 
ATOM      6  C   UNL d   1     -51.410  24.759  33.329  0.00  0.00     0.001 A 
ATOM      7  C   UNL d   1     -50.850  24.159  33.337  0.00  0.00     0.000 A 
ATOM      8  C   UNL d   1     -52.210  24.585  33.314  0.00  0.00     0.000 A 
ATOM      9  C   UNL d   1     -51.090  23.368  33.328  0.00  0.00     0.000 A 
ATOM     10  C   UNL d   1     -51.922  23.188  33.313  0.00  0.00     0.000 A 
ATOM     11  C   UNL d   1     -52.462  23.802  33.306  0.00  0.00     0.000 A 
ATOM     12  C   UNL d   1     -52.771  25.205  33.307  0.00  0.00     0.001 A 
ATOM     13  C   UNL d   1     -52.550  25.995  33.315  0.00  0.00     0.013 A 
ENDBRANCH   1   4
BRANCH   1  14
ATOM     14  N   UNL d   1     -51.278  27.766  33.345  0.00  0.00    -0.158 NA
BRANCH  14  15
ATOM     15  C   UNL d   1     -50.609  28.023  33.722  0.00  0.00     0.094 A 
ATOM     16  C   UNL d   1     -50.267  28.749  33.559  0.00  0.00     0.021 A 
ATOM     17  C   UNL d   1     -49.586  29.028  33.933  0.00  0.00     0.019 A 
ATOM     18  C   UNL d   1     -49.224  28.531  34.518  0.00  0.00     0.064 A 
ATOM     19  C   UNL d   1     -49.556  27.802  34.691  0.00  0.00     0.019 A 
ATOM     20  C   UNL d   1     -50.251  27.520  34.308  0.00  0.00     0.021 A 
BRANCH  18  21
ATOM     21  N   UNL d   1     -48.539  28.795  34.903  0.00  0.00    -0.300 N 
ATOM     22  C   UNL d   1     -48.483  28.854  35.730  0.00  0.00     0.107 A 
ATOM     23  C   UNL d   1     -47.805  29.115  36.097  0.00  0.00     0.142 A 
ATOM     24  O   UNL d   1     -47.150  29.329  35.650  0.00  0.00    -0.300 OA
ATOM     25  C   UNL d   1     -47.175  29.282  34.826  0.00  0.00     0.142 A 
ATOM     26  C   UNL d   1     -47.871  29.014  34.443  0.00  0.00     0.107 A 
ENDBRANCH  18  21
ENDBRANCH  14  15
ENDBRANCH   1  14
TORSDOF 4
ENDMDL
MODEL 2
REMARK VINA RESULT:      65.7      1.429      5.427
REMARK  4 active torsions:
REMARK  status: ('A' for Active; 'I' for Inactive)
REMARK    1  A    between atoms: C_2  and  S_1 
REMARK    2  A    between atoms: N_3  and  S_1 
REMARK    3  A    between atoms: C_12  and  N_3 
REMARK    4  A    between atoms: N_4  and  C_8 
ROOT
ATOM      1  S   UNL d   1     -49.284  28.429  34.067  0.00  0.00     0.285 S 
ATOM      2  O   UNL d   1     -48.624  27.928  33.848  0.00  0.00    -0.198 OA
ATOM      3  O   UNL d   1     -49.911  28.904  34.273  0.00  0.00    -0.198 OA
ENDROOT
BRANCH   1   4
ATOM      4  C   UNL d   1     -48.856  28.669  34.703  0.00  0.00     0.105 A 
ATOM      5  C   UNL d   1     -48.306  29.279  34.664  0.00  0.00     0.013 A 
ATOM      6  C   UNL d   1     -47.867  29.521  35.326  0.00  0.00     0.001 A 
ATOM      7  C   UNL d   1     -47.324  30.133  35.259  0.00  0.00     0.000 A 
ATOM      8  C   UNL d   1     -47.984  29.141  36.042  0.00  0.00     0.000 A 
ATOM      9  C   UNL d   1     -46.887  30.373  35.919  0.00  0.00     0.000 A 
ATOM     10  C   UNL d   1     -47.010  29.978  36.662  0.00  0.00     0.000 A 
ATOM     11  C   UNL d   1     -47.555  29.370  36.706  0.00  0.00     0.000 A 
ATOM     12  C   UNL d   1     -48.539  28.519  36.097  0.00  0.00     0.001 A 
ATOM     13  C   UNL d   1     -48.981  28.267  35.453  0.00  0.00     0.013 A 
ENDBRANCH   1   4
BRANCH   1  14
ATOM     14  N   UNL d   1     -49.711  28.158  33.389  0.00  0.00    -0.158 NA
BRANCH  14  15
ATOM     15  C   UNL d   1     -50.087  27.442  33.393  0.00  0.00     0.094 A 
ATOM     16  C   UNL d   1     -49.682  26.735  33.477  0.00  0.00     0.021 A 
ATOM     17  C   UNL d   1     -50.048  25.995  33.484  0.00  0.00     0.019 A 
ATOM     18  C   UNL d   1     -50.891  25.970  33.397  0.00  0.00     0.064 A 
ATOM     19  C   UNL d   1     -51.310  26.670  33.312  0.00  0.00     0.019 A 
ATOM     20  C   UNL d   1     -50.933  27.423  33.306  0.00  0.00     0.021 A 
BRANCH  18  21
ATOM     21  N   UNL d   1     -51.276  25.236  33.402  0.00  0.00    -0.300 N 
ATOM     22  C   UNL d   1     -52.098  25.159  33.309  0.00  0.00     0.107 A 
ATOM     23  C   UNL d   1     -52.463  24.431  33.315  0.00  0.00     0.142 A 
ATOM     24  O   UNL d   1     -52.021  23.746  33.414  0.00  0.00    -0.300 OA
ATOM     25  C   UNL d   1     -51.202  23.792  33.509  0.00  0.00     0.142 A 
ATOM     26  C   UNL d   1     -50.819  24.538  33.504  0.00  0.00     0.107 A 
ENDBRANCH  18  21
ENDBRANCH  14  15
ENDBRANCH   1  14
TORSDOF 4
ENDMDL
