MODEL 1
REMARK VINA RESULT:      40.0      0.000      0.000
REMARK  3 active torsions:
REMARK  status: ('A' for Active; 'I' for Inactive)
REMARK    1  A    between atoms: C_6  and  C_1 
REMARK    2  A    between atoms: O_18  and  C_11 
REMARK    3  A    between atoms: O_19  and  C_13 
ROOT
ATOM      1  C   UNL d   1      14.042  13.406  -2.583  0.00  0.00     0.064 A 
ATOM      2  C   UNL d   1      13.896  13.720  -3.338  0.00  0.00     0.199 A 
ATOM      3  C   UNL d   1      13.615  13.236  -3.941  0.00  0.00     0.062 A 
ATOM      4  C   UNL d   1      13.904  12.605  -2.440  0.00  0.00     0.126 A 
ATOM      5  C   UNL d   1      13.478  12.435  -3.797  0.00  0.00     0.106 A 
ATOM      6  O   UNL d   1      13.621  12.119  -3.051  0.00  0.00    -0.305 OA
ATOM      7  C   UNL d   1      13.472  13.551  -4.688  0.00  0.00     0.009 A 
ATOM      8  C   UNL d   1      13.197  11.950  -4.401  0.00  0.00     0.067 A 
ATOM      9  O   UNL d   1      14.033  14.521  -3.481  0.00  0.00    -0.286 OA
ATOM     10  C   UNL d   1      13.054  12.267  -5.147  0.00  0.00     0.198 A 
ATOM     11  C   UNL d   1      13.191  13.067  -5.290  0.00  0.00     0.042 A 
ATOM     12  O   UNL d   1      12.769  11.780  -5.762  0.00  0.00    -0.286 OA
ENDROOT
BRANCH   1  13
ATOM     13  C   UNL d   1      14.322  13.890  -1.980  0.00  0.00     0.007 A 
ATOM     14  C   UNL d   1      14.651  13.555  -1.299  0.00  0.00     0.026 A 
ATOM     15  C   UNL d   1      14.932  14.039  -0.695  0.00  0.00     0.116 A 
ATOM     16  C   UNL d   1      14.886  14.860  -0.769  0.00  0.00     0.116 A 
ATOM     17  C   UNL d   1      14.557  15.195  -1.450  0.00  0.00     0.026 A 
ATOM     18  C   UNL d   1      14.276  14.710  -2.054  0.00  0.00     0.002 A 
BRANCH  15  19
ATOM     19  O   UNL d   1      15.258  13.704  -0.019  0.00  0.00    -0.326 OA
ATOM     20  C   UNL d   1      15.869  13.153  -0.084  0.00  0.00     0.181 C 
ENDBRANCH  15  19
BRANCH  16  21
ATOM     21  O   UNL d   1      15.166  15.353  -0.167  0.00  0.00    -0.326 OA
ATOM     22  C   UNL d   1      15.538  16.069  -0.362  0.00  0.00     0.181 C 
ENDBRANCH  16  21
ENDBRANCH   1  13
TORSDOF 3
ENDMDL
