MODEL 1
REMARK VINA RESULT:      -5.2      0.000      0.000
REMARK  7 active torsions:
REMARK  status: ('A' for Active; 'I' for Inactive)
REMARK    1  A    between atoms: C_9  and  N_1 
REMARK    2  A    between atoms: C_12  and  N_3 
REMARK    3  A    between atoms: N_7  and  C_11 
REMARK    4  A    between atoms: C_13  and  C_9 
REMARK    5  A    between atoms: C_21  and  C_12 
REMARK       I    between atoms: N_20  and  C_13 
REMARK    6  A    between atoms: C_23  and  N_20 
REMARK    7  A    between atoms: C_24  and  C_23 
ROOT
ATOM      1  N   UNL d   1      58.772  -0.324  30.270  0.00  0.00    -0.220 N 
ATOM      2  C   UNL d   1      58.662  -0.874  29.665  0.00  0.00     0.342 A 
ATOM      3  N   UNL d   1      59.242  -0.970  29.084  0.00  0.00    -0.258 N 
ATOM      4  C   UNL d   1      60.038   0.036  29.713  0.00  0.00     0.102 A 
ATOM      5  C   UNL d   1      59.461   0.131  30.293  0.00  0.00     0.276 A 
ATOM      6  C   UNL d   1      59.928  -0.515  29.108  0.00  0.00     0.079 A 
ATOM      7  S   UNL d   1      60.765   0.402  29.594  0.00  0.00    -0.080 SA
ATOM      8  C   UNL d   1      60.589  -0.484  28.620  0.00  0.00     0.025 A 
ATOM      9  O   UNL d   1      57.968  -1.337  29.638  0.00  0.00    -0.245 OA
ATOM     10  C   UNL d   1      61.109   0.080  28.915  0.00  0.00     0.037 A 
ATOM     11  O   UNL d   1      59.571   0.682  30.898  0.00  0.00    -0.266 OA
ENDROOT
BRANCH   1  12
ATOM     12  C   UNL d   1      58.188  -0.230  30.853  0.00  0.00     0.150 C 
BRANCH  12  13
ATOM     13  C   UNL d   1      57.453   0.086  30.654  0.00  0.00     0.297 C 
ATOM     14  N   UNL d   1      56.806  -0.008  31.166  0.00  0.00    -0.205 NA
ATOM     15  O   UNL d   1      57.351   0.501  29.943  0.00  0.00    -0.264 OA
BRANCH  14  16
ATOM     16  C   UNL d   1      56.875  -0.333  31.729  0.00  0.00     0.102 C 
BRANCH  16  17
ATOM     17  C   UNL d   1      56.370  -0.142  32.366  0.00  0.00     0.019 A 
ATOM     18  C   UNL d   1      56.391  -0.615  33.048  0.00  0.00     0.002 A 
ATOM     19  C   UNL d   1      55.892  -0.435  33.691  0.00  0.00     0.000 A 
ATOM     20  C   UNL d   1      55.389   0.206  33.641  0.00  0.00     0.000 A 
ATOM     21  C   UNL d   1      55.367   0.681  32.959  0.00  0.00     0.000 A 
ATOM     22  C   UNL d   1      54.890   0.383  34.291  0.00  0.00     0.000 C 
ATOM     23  C   UNL d   1      55.860   0.505  32.320  0.00  0.00     0.002 A 
ENDBRANCH  16  17
ENDBRANCH  14  16
ENDBRANCH  12  13
ENDBRANCH   1  12
BRANCH   3  24
ATOM     24  C   UNL d   1      59.132  -1.520  28.479  0.00  0.00     0.085 C 
BRANCH  24  25
ATOM     25  C   UNL d   1      59.340  -2.307  28.596  0.00  0.00     0.019 A 
ATOM     26  C   UNL d   1      58.773  -2.901  28.513  0.00  0.00     0.025 A 
ATOM     27  C   UNL d   1      58.980  -3.690  28.630  0.00  0.00     0.127 A 
ATOM     28  C   UNL d   1      59.757  -3.886  28.831  0.00  0.00     0.024 A 
ATOM     29  C   UNL d   1      60.324  -3.293  28.915  0.00  0.00     0.002 A 
ATOM     30  C   UNL d   1      60.117  -2.505  28.798  0.00  0.00     0.002 A 
BRANCH  27  31
ATOM     31  N   UNL d   1      58.407  -4.277  28.544  0.00  0.00    -0.114 N 
ATOM     32  O   UNL d   1      58.627  -5.069  28.455  0.00  0.00    -0.532 OA
ATOM     33  O   UNL d   1      57.605  -4.074  28.547  0.00  0.00    -0.532 OA
ENDBRANCH  27  31
ENDBRANCH  24  25
ENDBRANCH   3  24
TORSDOF 7
ENDMDL
MODEL 2
REMARK VINA RESULT:      -2.7      1.045      1.510
REMARK  7 active torsions:
REMARK  status: ('A' for Active; 'I' for Inactive)
REMARK    1  A    between atoms: C_9  and  N_1 
REMARK    2  A    between atoms: C_12  and  N_3 
REMARK    3  A    between atoms: N_7  and  C_11 
REMARK    4  A    between atoms: C_13  and  C_9 
REMARK    5  A    between atoms: C_21  and  C_12 
REMARK       I    between atoms: N_20  and  C_13 
REMARK    6  A    between atoms: C_23  and  N_20 
REMARK    7  A    between atoms: C_24  and  C_23 
ROOT
ATOM      1  N   UNL d   1      58.357   0.260  30.924  0.00  0.00    -0.220 N 
ATOM      2  C   UNL d   1      58.535   0.044  30.147  0.00  0.00     0.342 A 
ATOM      3  N   UNL d   1      59.320   0.033  29.891  0.00  0.00    -0.258 N 
ATOM      4  C   UNL d   1      59.748   0.454  31.188  0.00  0.00     0.102 A 
ATOM      5  C   UNL d   1      58.966   0.465  31.444  0.00  0.00     0.276 A 
ATOM      6  C   UNL d   1      59.926   0.238  30.411  0.00  0.00     0.079 A 
ATOM      7  S   UNL d   1      60.456   0.626  31.571  0.00  0.00    -0.080 SA
ATOM      8  C   UNL d   1      60.742   0.279  30.321  0.00  0.00     0.025 A 
ATOM      9  O   UNL d   1      57.923  -0.164  29.618  0.00  0.00    -0.245 OA
ATOM     10  C   UNL d   1      61.074   0.518  31.034  0.00  0.00     0.037 A 
ATOM     11  O   UNL d   1      58.788   0.681  32.220  0.00  0.00    -0.266 OA
ENDROOT
BRANCH   1  12
ATOM     12  C   UNL d   1      57.567   0.270  31.178  0.00  0.00     0.150 C 
BRANCH  12  13
ATOM     13  C   UNL d   1      57.242  -0.395  31.543  0.00  0.00     0.297 C 
ATOM     14  N   UNL d   1      56.634  -0.308  32.102  0.00  0.00    -0.205 NA
ATOM     15  O   UNL d   1      57.518  -1.155  31.358  0.00  0.00    -0.264 OA
BRANCH  14  16
ATOM     16  C   UNL d   1      56.409   0.286  32.256  0.00  0.00     0.102 C 
BRANCH  16  17
ATOM     17  C   UNL d   1      55.985   0.382  32.970  0.00  0.00     0.019 A 
ATOM     18  C   UNL d   1      55.178   0.575  32.932  0.00  0.00     0.002 A 
ATOM     19  C   UNL d   1      54.745   0.672  33.637  0.00  0.00     0.000 A 
ATOM     20  C   UNL d   1      55.120   0.577  34.355  0.00  0.00     0.000 A 
ATOM     21  C   UNL d   1      55.928   0.384  34.394  0.00  0.00     0.000 A 
ATOM     22  C   UNL d   1      54.678   0.677  35.061  0.00  0.00     0.000 C 
ATOM     23  C   UNL d   1      56.360   0.287  33.698  0.00  0.00     0.002 A 
ENDBRANCH  16  17
ENDBRANCH  14  16
ENDBRANCH  12  13
ENDBRANCH   1  12
BRANCH   3  24
ATOM     24  C   UNL d   1      59.498  -0.183  29.115  0.00  0.00     0.085 C 
BRANCH  24  25
ATOM     25  C   UNL d   1      59.787  -0.936  28.952  0.00  0.00     0.019 A 
ATOM     26  C   UNL d   1      59.328  -1.600  29.123  0.00  0.00     0.025 A 
ATOM     27  C   UNL d   1      59.617  -2.354  28.961  0.00  0.00     0.127 A 
ATOM     28  C   UNL d   1      60.368  -2.445  28.626  0.00  0.00     0.024 A 
ATOM     29  C   UNL d   1      60.826  -1.781  28.455  0.00  0.00     0.002 A 
ATOM     30  C   UNL d   1      60.537  -1.028  28.618  0.00  0.00     0.002 A 
BRANCH  27  31
ATOM     31  N   UNL d   1      59.152  -3.013  29.135  0.00  0.00    -0.114 N 
ATOM     32  O   UNL d   1      58.367  -3.052  28.878  0.00  0.00    -0.532 OA
ATOM     33  O   UNL d   1      59.473  -3.641  29.569  0.00  0.00    -0.532 OA
ENDBRANCH  27  31
ENDBRANCH  24  25
ENDBRANCH   3  24
TORSDOF 7
ENDMDL
