MODEL 1
REMARK VINA RESULT:      -4.5      0.000      0.000
REMARK  3 active torsions:
REMARK  status: ('A' for Active; 'I' for Inactive)
REMARK    1  A    between atoms: C_2  and  S_1 
REMARK    2  A    between atoms: N_3  and  S_1 
REMARK    3  A    between atoms: C_10  and  N_3 
ROOT
ATOM      1  C   UNL d   1      58.168   0.182  30.415  0.00  0.00     0.107 A 
ATOM      2  C   UNL d   1      58.276  -0.458  29.905  0.00  0.00     0.040 A 
ATOM      3  C   UNL d   1      58.999  -0.622  29.565  0.00  0.00     0.123 A 
ATOM      4  C   UNL d   1      59.636  -0.139  29.731  0.00  0.00     0.123 A 
ATOM      5  O   UNL d   1      59.085  -1.240  29.078  0.00  0.00    -0.301 OA
ATOM      6  O   UNL d   1      60.365  -0.271  29.412  0.00  0.00    -0.301 OA
ATOM      7  C   UNL d   1      58.827   0.681  30.587  0.00  0.00     0.015 A 
ATOM      8  C   UNL d   1      59.556   0.512  30.239  0.00  0.00     0.028 A 
ATOM      9  C   UNL d   1      59.814  -1.410  28.730  0.00  0.00     0.149 A 
ATOM     10  C   UNL d   1      60.473  -0.911  28.902  0.00  0.00     0.149 A 
ENDROOT
BRANCH   1  11
ATOM     11  S   UNL d   1      57.407   0.317  30.745  0.00  0.00     0.285 S 
ATOM     12  O   UNL d   1      56.635   0.456  31.075  0.00  0.00    -0.198 OA
ATOM     13  O   UNL d   1      57.137   0.679  30.039  0.00  0.00    -0.198 OA
BRANCH  11  14
ATOM     14  N   UNL d   1      57.632  -0.030  31.453  0.00  0.00    -0.157 NA
BRANCH  14  15
ATOM     15  C   UNL d   1      57.107  -0.186  32.030  0.00  0.00     0.113 A 
ATOM     16  C   UNL d   1      56.978   0.360  32.635  0.00  0.00     0.119 A 
ATOM     17  N   UNL d   1      56.435   0.198  33.232  0.00  0.00    -0.241 NA
ATOM     18  C   UNL d   1      56.028  -0.494  33.226  0.00  0.00     0.099 A 
ATOM     19  C   UNL d   1      56.153  -1.059  32.612  0.00  0.00     0.022 A 
ATOM     20  C   UNL d   1      56.697  -0.879  32.029  0.00  0.00     0.023 A 
ENDBRANCH  14  15
ENDBRANCH  11  14
ENDBRANCH   1  11
TORSDOF 3
ENDMDL
MODEL 2
REMARK VINA RESULT:      -4.5      1.484      4.332
REMARK  3 active torsions:
REMARK  status: ('A' for Active; 'I' for Inactive)
REMARK    1  A    between atoms: C_2  and  S_1 
REMARK    2  A    between atoms: N_3  and  S_1 
REMARK    3  A    between atoms: C_10  and  N_3 
ROOT
ATOM      1  C   UNL d   1      56.874  -0.192  32.195  0.00  0.00     0.107 A 
ATOM      2  C   UNL d   1      56.094  -0.328  32.428  0.00  0.00     0.040 A 
ATOM      3  C   UNL d   1      55.799  -0.045  33.133  0.00  0.00     0.123 A 
ATOM      4  C   UNL d   1      56.287   0.387  33.626  0.00  0.00     0.123 A 
ATOM      5  O   UNL d   1      55.047  -0.185  33.341  0.00  0.00    -0.301 OA
ATOM      6  O   UNL d   1      56.028   0.682  34.330  0.00  0.00    -0.301 OA
ATOM      7  C   UNL d   1      57.379   0.254  32.704  0.00  0.00     0.015 A 
ATOM      8  C   UNL d   1      57.075   0.539  33.416  0.00  0.00     0.028 A 
ATOM      9  C   UNL d   1      54.743   0.100  34.054  0.00  0.00     0.149 A 
ATOM     10  C   UNL d   1      55.248   0.546  34.562  0.00  0.00     0.149 A 
ENDROOT
BRANCH   1  11
ATOM     11  S   UNL d   1      57.141  -0.501  31.460  0.00  0.00     0.285 S 
ATOM     12  O   UNL d   1      57.407  -0.820  30.718  0.00  0.00    -0.198 OA
ATOM     13  O   UNL d   1      56.736  -1.224  31.590  0.00  0.00    -0.198 OA
BRANCH  11  14
ATOM     14  N   UNL d   1      57.550   0.190  31.296  0.00  0.00    -0.157 NA
BRANCH  14  15
ATOM     15  C   UNL d   1      57.873   0.327  30.582  0.00  0.00     0.113 A 
ATOM     16  C   UNL d   1      57.397   0.540  29.943  0.00  0.00     0.119 A 
ATOM     17  N   UNL d   1      57.732   0.682  29.205  0.00  0.00    -0.241 NA
ATOM     18  C   UNL d   1      58.525   0.613  29.105  0.00  0.00     0.099 A 
ATOM     19  C   UNL d   1      59.021   0.395  29.752  0.00  0.00     0.022 A 
ATOM     20  C   UNL d   1      58.669   0.259  30.477  0.00  0.00     0.023 A 
ENDBRANCH  14  15
ENDBRANCH  11  14
ENDBRANCH   1  11
TORSDOF 3
ENDMDL
MODEL 3
REMARK VINA RESULT:      -4.4      1.215      1.256
REMARK  3 active torsions:
REMARK  status: ('A' for Active; 'I' for Inactive)
REMARK    1  A    between atoms: C_2  and  S_1 
REMARK    2  A    between atoms: N_3  and  S_1 
REMARK    3  A    between atoms: C_10  and  N_3 
ROOT
ATOM      1  C   UNL d   1      57.848   0.126  30.939  0.00  0.00     0.107 A 
ATOM      2  C   UNL d   1      58.159  -0.618  30.764  0.00  0.00     0.040 A 
ATOM      3  C   UNL d   1      58.368  -0.832  30.005  0.00  0.00     0.123 A 
ATOM      4  C   UNL d   1      58.266  -0.295  29.398  0.00  0.00     0.123 A 
ATOM      5  O   UNL d   1      58.665  -1.551  29.856  0.00  0.00    -0.301 OA
ATOM      6  O   UNL d   1      58.461  -0.473  28.636  0.00  0.00    -0.301 OA
ATOM      7  C   UNL d   1      57.743   0.681  30.311  0.00  0.00     0.015 A 
ATOM      8  C   UNL d   1      57.955   0.459  29.545  0.00  0.00     0.028 A 
ATOM      9  C   UNL d   1      58.878  -1.772  29.090  0.00  0.00     0.149 A 
ATOM     10  C   UNL d   1      58.773  -1.217  28.462  0.00  0.00     0.149 A 
ENDROOT
BRANCH   1  11
ATOM     11  S   UNL d   1      57.645   0.308  31.734  0.00  0.00     0.285 S 
ATOM     12  O   UNL d   1      57.447   0.495  32.540  0.00  0.00    -0.198 OA
ATOM     13  O   UNL d   1      58.391   0.668  31.867  0.00  0.00    -0.198 OA
BRANCH  11  14
ATOM     14  N   UNL d   1      56.906  -0.035  31.645  0.00  0.00    -0.157 NA
BRANCH  14  15
ATOM     15  C   UNL d   1      56.387  -0.076  32.246  0.00  0.00     0.113 A 
ATOM     16  C   UNL d   1      55.978   0.598  32.490  0.00  0.00     0.119 A 
ATOM     17  N   UNL d   1      55.441   0.555  33.112  0.00  0.00    -0.241 NA
ATOM     18  C   UNL d   1      55.313  -0.145  33.483  0.00  0.00     0.099 A 
ATOM     19  C   UNL d   1      55.726  -0.840  33.241  0.00  0.00     0.022 A 
ATOM     20  C   UNL d   1      56.255  -0.776  32.622  0.00  0.00     0.023 A 
ENDBRANCH  14  15
ENDBRANCH  11  14
ENDBRANCH   1  11
TORSDOF 3
ENDMDL
MODEL 4
REMARK VINA RESULT:      -3.5      8.976      9.580
REMARK  3 active torsions:
REMARK  status: ('A' for Active; 'I' for Inactive)
REMARK    1  A    between atoms: C_2  and  S_1 
REMARK    2  A    between atoms: N_3  and  S_1 
REMARK    3  A    between atoms: C_10  and  N_3 
ROOT
ATOM      1  C   UNL d   1      59.708  -9.278  34.153  0.00  0.00     0.107 A 
ATOM      2  C   UNL d   1      58.963  -9.251  33.799  0.00  0.00     0.040 A 
ATOM      3  C   UNL d   1      58.853  -9.427  33.010  0.00  0.00     0.123 A 
ATOM      4  C   UNL d   1      59.498  -9.635  32.554  0.00  0.00     0.123 A 
ATOM      5  O   UNL d   1      58.130  -9.396  32.686  0.00  0.00    -0.301 OA
ATOM      6  O   UNL d   1      59.426  -9.815  31.772  0.00  0.00    -0.301 OA
ATOM      7  C   UNL d   1      60.374  -9.493  33.682  0.00  0.00     0.015 A 
ATOM      8  C   UNL d   1      60.258  -9.670  32.884  0.00  0.00     0.028 A 
ATOM      9  C   UNL d   1      58.014  -9.573  31.889  0.00  0.00     0.149 A 
ATOM     10  C   UNL d   1      58.680  -9.788  31.418  0.00  0.00     0.149 A 
ENDROOT
BRANCH   1  11
ATOM     11  S   UNL d   1      59.779  -9.090  34.969  0.00  0.00     0.285 S 
ATOM     12  O   UNL d   1      59.848  -8.906  35.797  0.00  0.00    -0.198 OA
ATOM     13  O   UNL d   1      59.427  -9.818  35.192  0.00  0.00    -0.198 OA
BRANCH  11  14
ATOM     14  N   UNL d   1      60.127  -8.369  34.792  0.00  0.00    -0.157 NA
BRANCH  14  15
ATOM     15  C   UNL d   1      60.085  -7.750  35.290  0.00  0.00     0.113 A 
ATOM     16  C   UNL d   1      59.357  -7.404  35.465  0.00  0.00     0.119 A 
ATOM     17  N   UNL d   1      59.315  -6.763  35.980  0.00  0.00    -0.241 NA
ATOM     18  C   UNL d   1      59.984  -6.472  36.313  0.00  0.00     0.099 A 
ATOM     19  C   UNL d   1      60.734  -6.820  36.141  0.00  0.00     0.022 A 
ATOM     20  C   UNL d   1      60.754  -7.455  35.627  0.00  0.00     0.023 A 
ENDBRANCH  14  15
ENDBRANCH  11  14
ENDBRANCH   1  11
TORSDOF 3
ENDMDL
MODEL 5
REMARK VINA RESULT:      -3.3      1.347      2.042
REMARK  3 active torsions:
REMARK  status: ('A' for Active; 'I' for Inactive)
REMARK    1  A    between atoms: C_2  and  S_1 
REMARK    2  A    between atoms: N_3  and  S_1 
REMARK    3  A    between atoms: C_10  and  N_3 
ROOT
ATOM      1  C   UNL d   1      59.018  -1.062  29.250  0.00  0.00     0.107 A 
ATOM      2  C   UNL d   1      58.908  -1.871  29.132  0.00  0.00     0.040 A 
ATOM      3  C   UNL d   1      59.531  -2.373  28.974  0.00  0.00     0.123 A 
ATOM      4  C   UNL d   1      60.288  -2.068  28.929  0.00  0.00     0.123 A 
ATOM      5  O   UNL d   1      59.407  -3.148  28.863  0.00  0.00    -0.301 OA
ATOM      6  O   UNL d   1      60.926  -2.536  28.774  0.00  0.00    -0.301 OA
ATOM      7  C   UNL d   1      59.800  -0.747  29.205  0.00  0.00     0.015 A 
ATOM      8  C   UNL d   1      60.427  -1.259  29.044  0.00  0.00     0.028 A 
ATOM      9  C   UNL d   1      60.034  -3.660  28.702  0.00  0.00     0.149 A 
ATOM     10  C   UNL d   1      60.815  -3.345  28.656  0.00  0.00     0.149 A 
ENDROOT
BRANCH   1  11
ATOM     11  S   UNL d   1      58.350  -0.578  29.412  0.00  0.00     0.285 S 
ATOM     12  O   UNL d   1      57.673  -0.088  29.569  0.00  0.00    -0.198 OA
ATOM     13  O   UNL d   1      58.216  -0.448  28.594  0.00  0.00    -0.198 OA
BRANCH  11  14
ATOM     14  N   UNL d   1      58.447  -0.680  30.219  0.00  0.00    -0.157 NA
BRANCH  14  15
ATOM     15  C   UNL d   1      57.913  -0.411  30.744  0.00  0.00     0.113 A 
ATOM     16  C   UNL d   1      57.317  -0.908  31.024  0.00  0.00     0.119 A 
ATOM     17  N   UNL d   1      56.765  -0.628  31.567  0.00  0.00    -0.241 NA
ATOM     18  C   UNL d   1      56.806   0.130  31.826  0.00  0.00     0.099 A 
ATOM     19  C   UNL d   1      57.412   0.646  31.545  0.00  0.00     0.022 A 
ATOM     20  C   UNL d   1      57.950   0.349  31.006  0.00  0.00     0.023 A 
ENDBRANCH  14  15
ENDBRANCH  11  14
ENDBRANCH   1  11
TORSDOF 3
ENDMDL
MODEL 6
REMARK VINA RESULT:      -1.5      1.241      3.851
REMARK  3 active torsions:
REMARK  status: ('A' for Active; 'I' for Inactive)
REMARK    1  A    between atoms: C_2  and  S_1 
REMARK    2  A    between atoms: N_3  and  S_1 
REMARK    3  A    between atoms: C_10  and  N_3 
ROOT
ATOM      1  C   UNL d   1      57.526   0.119  30.979  0.00  0.00     0.107 A 
ATOM      2  C   UNL d   1      57.010  -0.484  31.207  0.00  0.00     0.040 A 
ATOM      3  C   UNL d   1      56.738  -0.552  31.973  0.00  0.00     0.123 A 
ATOM      4  C   UNL d   1      56.981  -0.010  32.533  0.00  0.00     0.123 A 
ATOM      5  O   UNL d   1      56.243  -1.138  32.174  0.00  0.00    -0.301 OA
ATOM      6  O   UNL d   1      56.731  -0.048  33.298  0.00  0.00    -0.301 OA
ATOM      7  C   UNL d   1      57.777   0.680  31.558  0.00  0.00     0.015 A 
ATOM      8  C   UNL d   1      57.499   0.606  32.331  0.00  0.00     0.028 A 
ATOM      9  C   UNL d   1      55.964  -1.211  32.947  0.00  0.00     0.149 A 
ATOM     10  C   UNL d   1      56.216  -0.651  33.526  0.00  0.00     0.149 A 
ENDROOT
BRANCH   1  11
ATOM     11  S   UNL d   1      57.784   0.155  30.180  0.00  0.00     0.285 S 
ATOM     12  O   UNL d   1      58.040   0.196  29.369  0.00  0.00    -0.198 OA
ATOM     13  O   UNL d   1      57.163   0.682  29.978  0.00  0.00    -0.198 OA
BRANCH  11  14
ATOM     14  N   UNL d   1      58.404  -0.358  30.336  0.00  0.00    -0.157 NA
BRANCH  14  15
ATOM     15  C   UNL d   1      58.931  -0.562  29.777  0.00  0.00     0.113 A 
ATOM     16  C   UNL d   1      59.577  -0.075  29.615  0.00  0.00     0.119 A 
ATOM     17  N   UNL d   1      60.122  -0.288  29.036  0.00  0.00    -0.241 NA
ATOM     18  C   UNL d   1      60.027  -0.971  28.627  0.00  0.00     0.099 A 
ATOM     19  C   UNL d   1      59.369  -1.476  28.786  0.00  0.00     0.022 A 
ATOM     20  C   UNL d   1      58.840  -1.247  29.364  0.00  0.00     0.023 A 
ENDBRANCH  14  15
ENDBRANCH  11  14
ENDBRANCH   1  11
TORSDOF 3
ENDMDL
