MODEL 1
REMARK VINA RESULT:      -8.3      0.000      0.000
REMARK  10 active torsions:
REMARK  status: ('A' for Active; 'I' for Inactive)
REMARK    1  A    between atoms: C_11  and  S_1 
REMARK    2  A    between atoms: N_12  and  S_1 
REMARK    3  A    between atoms: C_2  and  O_7 
REMARK    4  A    between atoms: C_3  and  S_18 
REMARK    5  A    between atoms: C_6  and  C_17 
REMARK    6  A    between atoms: O_7  and  C_6 
REMARK    7  A    between atoms: C_29  and  N_12 
REMARK    8  A    between atoms: C_30  and  N_12 
REMARK    9  A    between atoms: C_28  and  C_14 
REMARK   10  A    between atoms: S_18  and  C_28 
ROOT
ATOM      1  C   UNL d   1      49.264  34.595  52.218  0.00  0.00     0.167 A 
ATOM      2  C   UNL d   1      48.858  34.731  51.505  0.00  0.00     0.222 A 
ATOM      3  C   UNL d   1      48.215  35.256  51.512  0.00  0.00     0.069 A 
ATOM      4  C   UNL d   1      49.032  34.972  52.916  0.00  0.00     0.151 A 
ATOM      5  O   UNL d   1      48.392  35.489  52.907  0.00  0.00    -0.302 OA
ATOM      6  C   UNL d   1      47.983  35.633  52.209  0.00  0.00     0.110 A 
ATOM      7  O   UNL d   1      49.088  34.358  50.814  0.00  0.00    -0.284 OA
ENDROOT
BRANCH   1   8
ATOM      8  O   UNL d   1      49.913  34.125  52.431  0.00  0.00    -0.268 OA
BRANCH   8   9
ATOM      9  C   UNL d   1      50.540  34.452  52.855  0.00  0.00     0.300 C 
ATOM     10  O   UNL d   1      50.463  35.210  53.164  0.00  0.00    -0.259 OA
BRANCH   9  11
ATOM     11  C   UNL d   1      51.231  34.023  52.965  0.00  0.00     0.064 A 
ATOM     12  C   UNL d   1      51.207  33.232  53.215  0.00  0.00     0.006 A 
ATOM     13  C   UNL d   1      51.887  32.819  53.319  0.00  0.00     0.013 A 
ATOM     14  C   UNL d   1      52.607  33.163  53.184  0.00  0.00     0.104 A 
ATOM     15  C   UNL d   1      52.642  33.942  52.938  0.00  0.00     0.013 A 
ATOM     16  C   UNL d   1      51.963  34.376  52.826  0.00  0.00     0.006 A 
BRANCH  14  17
ATOM     17  S   UNL d   1      53.312  32.735  53.293  0.00  0.00     0.271 S 
ATOM     18  O   UNL d   1      52.962  32.422  52.602  0.00  0.00    -0.200 OA
ATOM     19  O   UNL d   1      53.937  32.202  53.202  0.00  0.00    -0.200 OA
BRANCH  17  20
ATOM     20  N   UNL d   1      53.806  32.894  53.925  0.00  0.00    -0.229 N 
BRANCH  20  21
ATOM     21  C   UNL d   1      54.524  33.257  53.797  0.00  0.00     0.092 C 
ATOM     22  C   UNL d   1      54.986  33.508  54.436  0.00  0.00     0.021 C 
ENDBRANCH  20  21
BRANCH  20  23
ATOM     23  C   UNL d   1      53.577  32.688  54.690  0.00  0.00     0.092 C 
ATOM     24  C   UNL d   1      54.139  32.579  55.274  0.00  0.00     0.021 C 
ENDBRANCH  20  23
ENDBRANCH  17  20
ENDBRANCH  14  17
ENDBRANCH   9  11
ENDBRANCH   8   9
ENDBRANCH   1   8
BRANCH   6  25
ATOM     25  C   UNL d   1      47.342  36.153  52.205  0.00  0.00     0.063 C 
BRANCH  25  26
ATOM     26  S   UNL d   1      46.674  35.663  52.180  0.00  0.00    -0.046 SA
BRANCH  26  27
ATOM     27  C   UNL d   1      45.923  35.990  52.226  0.00  0.00     0.194 A 
ATOM     28  N   UNL d   1      45.491  36.119  51.537  0.00  0.00    -0.221 NA
ATOM     29  C   UNL d   1      44.745  36.443  51.580  0.00  0.00     0.085 A 
ATOM     30  C   UNL d   1      44.314  36.572  50.892  0.00  0.00     0.021 C 
ATOM     31  C   UNL d   1      44.419  36.643  52.314  0.00  0.00     0.038 A 
ATOM     32  C   UNL d   1      44.862  36.509  52.999  0.00  0.00     0.085 A 
ATOM     33  N   UNL d   1      45.610  36.183  52.947  0.00  0.00    -0.221 NA
ATOM     34  C   UNL d   1      44.536  36.709  53.733  0.00  0.00     0.021 C 
ENDBRANCH  26  27
ENDBRANCH  25  26
ENDBRANCH   6  25
TORSDOF 10
ENDMDL
MODEL 2
REMARK VINA RESULT:      -7.8      1.243      7.323
REMARK  10 active torsions:
REMARK  status: ('A' for Active; 'I' for Inactive)
REMARK    1  A    between atoms: C_11  and  S_1 
REMARK    2  A    between atoms: N_12  and  S_1 
REMARK    3  A    between atoms: C_2  and  O_7 
REMARK    4  A    between atoms: C_3  and  S_18 
REMARK    5  A    between atoms: C_6  and  C_17 
REMARK    6  A    between atoms: O_7  and  C_6 
REMARK    7  A    between atoms: C_29  and  N_12 
REMARK    8  A    between atoms: C_30  and  N_12 
REMARK    9  A    between atoms: C_28  and  C_14 
REMARK   10  A    between atoms: S_18  and  C_28 
ROOT
ATOM      1  C   UNL d   1      50.015  34.446  52.428  0.00  0.00     0.167 A 
ATOM      2  C   UNL d   1      50.578  34.330  51.827  0.00  0.00     0.222 A 
ATOM      3  C   UNL d   1      51.356  34.142  52.048  0.00  0.00     0.069 A 
ATOM      4  C   UNL d   1      50.225  34.376  53.224  0.00  0.00     0.151 A 
ATOM      5  O   UNL d   1      51.000  34.189  53.428  0.00  0.00    -0.302 OA
ATOM      6  C   UNL d   1      51.566  34.072  52.844  0.00  0.00     0.110 A 
ATOM      7  O   UNL d   1      50.370  34.400  51.039  0.00  0.00    -0.284 OA
ENDROOT
BRANCH   1   8
ATOM      8  O   UNL d   1      49.207  34.635  52.433  0.00  0.00    -0.268 OA
BRANCH   8   9
ATOM      9  C   UNL d   1      48.955  35.371  52.708  0.00  0.00     0.300 C 
ATOM     10  O   UNL d   1      49.503  35.880  53.047  0.00  0.00    -0.259 OA
BRANCH   9  11
ATOM     11  C   UNL d   1      48.166  35.586  52.642  0.00  0.00     0.064 A 
ATOM     12  C   UNL d   1      47.723  35.383  51.971  0.00  0.00     0.006 A 
ATOM     13  C   UNL d   1      46.952  35.597  51.914  0.00  0.00     0.013 A 
ATOM     14  C   UNL d   1      46.591  36.014  52.507  0.00  0.00     0.104 A 
ATOM     15  C   UNL d   1      47.019  36.219  53.174  0.00  0.00     0.013 A 
ATOM     16  C   UNL d   1      47.802  36.010  53.249  0.00  0.00     0.006 A 
BRANCH  14  17
ATOM     17  S   UNL d   1      45.791  36.236  52.449  0.00  0.00     0.271 S 
ATOM     18  O   UNL d   1      46.199  36.709  51.894  0.00  0.00    -0.200 OA
ATOM     19  O   UNL d   1      45.086  36.604  52.226  0.00  0.00    -0.200 OA
BRANCH  17  20
ATOM     20  N   UNL d   1      45.223  35.882  52.918  0.00  0.00    -0.229 N 
BRANCH  20  21
ATOM     21  C   UNL d   1      45.064  36.182  53.658  0.00  0.00     0.092 C 
ATOM     22  C   UNL d   1      44.345  36.014  54.032  0.00  0.00     0.021 C 
ENDBRANCH  20  21
BRANCH  20  23
ATOM     23  C   UNL d   1      44.812  35.222  52.642  0.00  0.00     0.092 C 
ATOM     24  C   UNL d   1      44.315  34.807  53.140  0.00  0.00     0.021 C 
ENDBRANCH  20  23
ENDBRANCH  17  20
ENDBRANCH  14  17
ENDBRANCH   9  11
ENDBRANCH   8   9
ENDBRANCH   1   8
BRANCH   6  25
ATOM     25  C   UNL d   1      52.342  33.885  53.051  0.00  0.00     0.063 C 
BRANCH  25  26
ATOM     26  S   UNL d   1      52.285  33.162  53.453  0.00  0.00    -0.046 SA
BRANCH  26  27
ATOM     27  C   UNL d   1      52.960  32.799  53.744  0.00  0.00     0.194 A 
ATOM     28  N   UNL d   1      53.414  33.180  54.315  0.00  0.00    -0.221 NA
ATOM     29  C   UNL d   1      54.086  32.821  54.606  0.00  0.00     0.085 A 
ATOM     30  C   UNL d   1      54.539  33.202  55.176  0.00  0.00     0.021 C 
ATOM     31  C   UNL d   1      54.312  32.074  54.329  0.00  0.00     0.038 A 
ATOM     32  C   UNL d   1      53.847  31.702  53.756  0.00  0.00     0.085 A 
ATOM     33  N   UNL d   1      53.176  32.068  53.470  0.00  0.00    -0.221 NA
ATOM     34  C   UNL d   1      54.074  30.955  53.480  0.00  0.00     0.021 C 
ENDBRANCH  26  27
ENDBRANCH  25  26
ENDBRANCH   6  25
TORSDOF 10
ENDMDL
