MODEL 1
REMARK VINA RESULT:      63.9      0.000      0.000
REMARK  3 active torsions:
REMARK  status: ('A' for Active; 'I' for Inactive)
REMARK    1  A    between atoms: N_7  and  C_6 
REMARK       I    between atoms: C_8  and  N_7 
REMARK    2  A    between atoms: C_12  and  C_8 
REMARK    3  A    between atoms: C_16  and  C_12 
ROOT
ATOM      1  C   UNL d   1     -57.709 -99.321 -44.559  0.00  0.00     0.269 A 
ATOM      2  N   UNL d   1     -58.527 -99.180 -44.465  0.00  0.00    -0.239 N 
ATOM      3  C   UNL d   1     -57.357 -99.171 -43.826  0.00  0.00     0.079 A 
ATOM      4  C   UNL d   1     -58.661 -98.952 -43.700  0.00  0.00     0.267 A 
ATOM      5  C   UNL d   1     -57.946 -98.943 -43.295  0.00  0.00     0.063 A 
ATOM      6  C   UNL d   1     -56.574 -99.214 -43.581  0.00  0.00     0.089 A 
ATOM      7  O   UNL d   1     -57.323 -99.563 -45.244  0.00  0.00    -0.267 OA
ATOM      8  O   UNL d   1     -59.410 -98.758 -43.374  0.00  0.00    -0.267 OA
ATOM      9  C   UNL d   1     -59.097 -99.261 -45.056  0.00  0.00     0.105 C 
ATOM     10  C   UNL d   1     -57.752 -98.758 -42.519  0.00  0.00     0.005 A 
ATOM     11  C   UNL d   1     -56.377 -99.029 -42.801  0.00  0.00     0.019 A 
ATOM     12  C   UNL d   1     -56.966 -98.801 -42.270  0.00  0.00     0.002 A 
ENDROOT
BRANCH   6  13
ATOM     13  N   UNL d   1     -55.985 -99.443 -44.112  0.00  0.00    -0.208 NA
ATOM     14  C   UNL d   1     -55.526-100.106 -43.951  0.00  0.00     0.279 C 
ATOM     15  O   UNL d   1     -55.649-100.545 -43.265  0.00  0.00    -0.265 OA
BRANCH  14  16
ATOM     16  C   UNL d   1     -54.937-100.335 -44.482  0.00  0.00     0.062 C 
BRANCH  16  17
ATOM     17  C   UNL d   1     -54.867-101.126 -44.704  0.00  0.00     0.005 A 
ATOM     18  C   UNL d   1     -54.857-101.717 -44.128  0.00  0.00     0.000 A 
ATOM     19  C   UNL d   1     -54.788-102.500 -44.340  0.00  0.00     0.000 A 
ATOM     20  C   UNL d   1     -54.727-102.704 -45.141  0.00  0.00     0.000 A 
ATOM     21  C   UNL d   1     -54.737-102.114 -45.718  0.00  0.00     0.000 A 
ATOM     22  C   UNL d   1     -54.807-101.322 -45.496  0.00  0.00     0.000 A 
ENDBRANCH  16  17
ENDBRANCH  14  16
ENDBRANCH   6  13
TORSDOF 3
ENDMDL
MODEL 2
REMARK VINA RESULT:      65.5      1.421      3.807
REMARK  3 active torsions:
REMARK  status: ('A' for Active; 'I' for Inactive)
REMARK    1  A    between atoms: N_7  and  C_6 
REMARK       I    between atoms: C_8  and  N_7 
REMARK    2  A    between atoms: C_12  and  C_8 
REMARK    3  A    between atoms: C_16  and  C_12 
ROOT
ATOM      1  C   UNL d   1     -55.267-101.401 -44.614  0.00  0.00     0.269 A 
ATOM      2  N   UNL d   1     -55.054-102.166 -44.356  0.00  0.00    -0.239 N 
ATOM      3  C   UNL d   1     -55.271-100.917 -43.944  0.00  0.00     0.079 A 
ATOM      4  C   UNL d   1     -54.934-102.142 -43.556  0.00  0.00     0.267 A 
ATOM      5  C   UNL d   1     -55.065-101.375 -43.290  0.00  0.00     0.063 A 
ATOM      6  C   UNL d   1     -55.436-100.118 -43.853  0.00  0.00     0.089 A 
ATOM      7  O   UNL d   1     -55.440-101.168 -45.384  0.00  0.00    -0.267 OA
ATOM      8  O   UNL d   1     -54.712-102.794 -43.077  0.00  0.00    -0.267 OA
ATOM      9  C   UNL d   1     -54.979-102.831 -44.839  0.00  0.00     0.105 C 
ATOM     10  C   UNL d   1     -55.025-101.034 -42.544  0.00  0.00     0.005 A 
ATOM     11  C   UNL d   1     -55.397 -99.773 -43.104  0.00  0.00     0.019 A 
ATOM     12  C   UNL d   1     -55.191-100.231 -42.449  0.00  0.00     0.002 A 
ENDROOT
BRANCH   6  13
ATOM     13  N   UNL d   1     -55.642 -99.660 -44.508  0.00  0.00    -0.208 NA
ATOM     14  C   UNL d   1     -56.421 -99.409 -44.602  0.00  0.00     0.279 C 
ATOM     15  O   UNL d   1     -56.996 -99.612 -44.048  0.00  0.00    -0.265 OA
BRANCH  14  16
ATOM     16  C   UNL d   1     -56.626 -98.951 -45.256  0.00  0.00     0.062 C 
BRANCH  16  17
ATOM     17  C   UNL d   1     -57.418 -98.888 -45.483  0.00  0.00     0.005 A 
ATOM     18  C   UNL d   1     -58.010 -98.873 -44.909  0.00  0.00     0.000 A 
ATOM     19  C   UNL d   1     -58.793 -98.811 -45.125  0.00  0.00     0.000 A 
ATOM     20  C   UNL d   1     -58.994 -98.762 -45.928  0.00  0.00     0.000 A 
ATOM     21  C   UNL d   1     -58.401 -98.777 -46.502  0.00  0.00     0.000 A 
ATOM     22  C   UNL d   1     -57.610 -98.840 -46.276  0.00  0.00     0.000 A 
ENDBRANCH  16  17
ENDBRANCH  14  16
ENDBRANCH   6  13
TORSDOF 3
ENDMDL
