MODEL 1
REMARK VINA RESULT:      -7.8      0.000      0.000
REMARK  3 active torsions:
REMARK  status: ('A' for Active; 'I' for Inactive)
REMARK    1  A    between atoms: C_4  and  C_1 
REMARK    2  A    between atoms: N_2  and  C_9 
REMARK       I    between atoms: N_7  and  C_4 
REMARK    3  A    between atoms: C_11  and  N_7 
ROOT
ATOM      1  C   UNL d   1     -47.885  13.461  23.016  0.00  0.00     0.087 A 
ATOM      2  S   UNL d   1     -47.615  12.747  23.329  0.00  0.00    -0.082 SA
ATOM      3  C   UNL d   1     -47.278  13.801  22.589  0.00  0.00     0.012 A 
ATOM      4  C   UNL d   1     -46.616  13.302  22.629  0.00  0.00     0.008 A 
ATOM      5  C   UNL d   1     -46.830  12.631  23.100  0.00  0.00     0.030 A 
ATOM      6  C   UNL d   1     -45.322  12.764  22.452  0.00  0.00     0.127 A 
ATOM      7  C   UNL d   1     -45.869  13.353  22.316  0.00  0.00     0.024 A 
ATOM      8  C   UNL d   1     -46.285  12.050  23.232  0.00  0.00     0.008 A 
ATOM      9  C   UNL d   1     -45.537  12.094  22.923  0.00  0.00     0.024 A 
ENDROOT
BRANCH   1  10
ATOM     10  C   UNL d   1     -48.641  13.775  23.120  0.00  0.00     0.286 C 
ATOM     11  N   UNL d   1     -48.812  14.547  22.887  0.00  0.00    -0.189 NA
ATOM     12  O   UNL d   1     -49.248  13.309  23.465  0.00  0.00    -0.265 OA
BRANCH  11  13
ATOM     13  C   UNL d   1     -49.563  14.877  22.983  0.00  0.00     0.166 A 
ATOM     14  N   UNL d   1     -49.675  15.442  23.588  0.00  0.00    -0.225 NA
ATOM     15  C   UNL d   1     -50.419  15.782  23.698  0.00  0.00     0.101 A 
ATOM     16  C   UNL d   1     -51.057  15.559  23.203  0.00  0.00     0.021 A 
ATOM     17  C   UNL d   1     -50.943  15.008  22.616  0.00  0.00     0.005 A 
ATOM     18  C   UNL d   1     -50.190  14.664  22.504  0.00  0.00     0.039 A 
ENDBRANCH  11  13
ENDBRANCH   1  10
BRANCH   6  19
ATOM     19  N   UNL d   1     -44.539  12.800  22.135  0.00  0.00    -0.114 N 
ATOM     20  O   UNL d   1     -44.247  13.475  21.793  0.00  0.00    -0.532 OA
ATOM     21  O   UNL d   1     -44.064  12.122  22.179  0.00  0.00    -0.532 OA
ENDBRANCH   6  19
TORSDOF 3
ENDMDL
MODEL 2
REMARK VINA RESULT:      -7.3      1.358      4.919
REMARK  3 active torsions:
REMARK  status: ('A' for Active; 'I' for Inactive)
REMARK    1  A    between atoms: C_4  and  C_1 
REMARK    2  A    between atoms: N_2  and  C_9 
REMARK       I    between atoms: N_7  and  C_4 
REMARK    3  A    between atoms: C_11  and  N_7 
ROOT
ATOM      1  C   UNL d   1     -47.152  13.663  22.919  0.00  0.00     0.087 A 
ATOM      2  S   UNL d   1     -47.795  13.173  23.081  0.00  0.00    -0.082 SA
ATOM      3  C   UNL d   1     -47.431  14.417  22.778  0.00  0.00     0.012 A 
ATOM      4  C   UNL d   1     -48.258  14.410  22.851  0.00  0.00     0.008 A 
ATOM      5  C   UNL d   1     -48.490  13.618  23.044  0.00  0.00     0.030 A 
ATOM      6  C   UNL d   1     -49.611  14.813  22.879  0.00  0.00     0.127 A 
ATOM      7  C   UNL d   1     -48.823  14.987  22.773  0.00  0.00     0.024 A 
ATOM      8  C   UNL d   1     -49.273  13.449  23.148  0.00  0.00     0.008 A 
ATOM      9  C   UNL d   1     -49.843  14.021  23.072  0.00  0.00     0.024 A 
ENDROOT
BRANCH   1  10
ATOM     10  C   UNL d   1     -46.361  13.427  22.902  0.00  0.00     0.286 C 
ATOM     11  N   UNL d   1     -46.052  13.032  22.249  0.00  0.00    -0.189 NA
ATOM     12  O   UNL d   1     -45.859  13.589  23.556  0.00  0.00    -0.265 OA
BRANCH  11  13
ATOM     13  C   UNL d   1     -45.264  12.790  22.216  0.00  0.00     0.166 A 
ATOM     14  N   UNL d   1     -45.027  12.141  22.686  0.00  0.00    -0.225 NA
ATOM     15  C   UNL d   1     -44.243  11.886  22.665  0.00  0.00     0.101 A 
ATOM     16  C   UNL d   1     -43.689  12.277  22.173  0.00  0.00     0.021 A 
ATOM     17  C   UNL d   1     -43.924  12.908  21.717  0.00  0.00     0.005 A 
ATOM     18  C   UNL d   1     -44.719  13.166  21.739  0.00  0.00     0.039 A 
ENDBRANCH  11  13
ENDBRANCH   1  10
BRANCH   6  19
ATOM     19  N   UNL d   1     -50.214  15.402  22.802  0.00  0.00    -0.114 N 
ATOM     20  O   UNL d   1     -50.387  15.917  23.405  0.00  0.00    -0.532 OA
ATOM     21  O   UNL d   1     -50.634  15.446  22.089  0.00  0.00    -0.532 OA
ENDBRANCH   6  19
TORSDOF 3
ENDMDL
MODEL 3
REMARK VINA RESULT:      -6.4      1.705      2.155
REMARK  3 active torsions:
REMARK  status: ('A' for Active; 'I' for Inactive)
REMARK    1  A    between atoms: C_4  and  C_1 
REMARK    2  A    between atoms: N_2  and  C_9 
REMARK       I    between atoms: N_7  and  C_4 
REMARK    3  A    between atoms: C_11  and  N_7 
ROOT
ATOM      1  C   UNL d   1     -47.195  12.631  22.966  0.00  0.00     0.087 A 
ATOM      2  S   UNL d   1     -46.777  13.168  22.500  0.00  0.00    -0.082 SA
ATOM      3  C   UNL d   1     -46.688  12.030  23.185  0.00  0.00     0.012 A 
ATOM      4  C   UNL d   1     -45.941  12.183  22.858  0.00  0.00     0.008 A 
ATOM      5  C   UNL d   1     -45.997  12.907  22.422  0.00  0.00     0.030 A 
ATOM      6  C   UNL d   1     -44.578  12.076  22.502  0.00  0.00     0.127 A 
ATOM      7  C   UNL d   1     -45.234  11.785  22.888  0.00  0.00     0.024 A 
ATOM      8  C   UNL d   1     -45.345  13.192  22.041  0.00  0.00     0.008 A 
ATOM      9  C   UNL d   1     -44.635  12.800  22.066  0.00  0.00     0.024 A 
ENDROOT
BRANCH   1  10
ATOM     10  C   UNL d   1     -47.991  12.693  23.174  0.00  0.00     0.286 C 
ATOM     11  N   UNL d   1     -48.547  12.158  22.884  0.00  0.00    -0.189 NA
ATOM     12  O   UNL d   1     -48.247  13.307  23.687  0.00  0.00    -0.265 OA
BRANCH  11  13
ATOM     13  C   UNL d   1     -49.346  12.206  23.081  0.00  0.00     0.166 A 
ATOM     14  N   UNL d   1     -49.696  11.563  23.484  0.00  0.00    -0.225 NA
ATOM     15  C   UNL d   1     -50.495  11.594  23.689  0.00  0.00     0.101 A 
ATOM     16  C   UNL d   1     -50.950  12.270  23.493  0.00  0.00     0.021 A 
ATOM     17  C   UNL d   1     -50.605  12.894  23.101  0.00  0.00     0.005 A 
ATOM     18  C   UNL d   1     -49.796  12.861  22.894  0.00  0.00     0.039 A 
ENDBRANCH  11  13
ENDBRANCH   1  10
BRANCH   6  19
ATOM     19  N   UNL d   1     -43.833  11.675  22.522  0.00  0.00    -0.114 N 
ATOM     20  O   UNL d   1     -43.772  10.900  22.754  0.00  0.00    -0.532 OA
ATOM     21  O   UNL d   1     -43.154  12.093  22.298  0.00  0.00    -0.532 OA
ENDBRANCH   6  19
TORSDOF 3
ENDMDL
MODEL 4
REMARK VINA RESULT:      -6.3      8.498      9.248
REMARK  3 active torsions:
REMARK  status: ('A' for Active; 'I' for Inactive)
REMARK    1  A    between atoms: C_4  and  C_1 
REMARK    2  A    between atoms: N_2  and  C_9 
REMARK       I    between atoms: N_7  and  C_4 
REMARK    3  A    between atoms: C_11  and  N_7 
ROOT
ATOM      1  C   UNL d   1     -39.982  15.001  20.107  0.00  0.00     0.087 A 
ATOM      2  S   UNL d   1     -39.705  14.417  19.594  0.00  0.00    -0.082 SA
ATOM      3  C   UNL d   1     -40.419  15.537  19.675  0.00  0.00     0.012 A 
ATOM      4  C   UNL d   1     -40.422  15.296  18.880  0.00  0.00     0.008 A 
ATOM      5  C   UNL d   1     -39.968  14.584  18.829  0.00  0.00     0.030 A 
ATOM      6  C   UNL d   1     -40.666  15.241  17.490  0.00  0.00     0.127 A 
ATOM      7  C   UNL d   1     -40.760  15.608  18.212  0.00  0.00     0.024 A 
ATOM      8  C   UNL d   1     -39.876  14.222  18.112  0.00  0.00     0.008 A 
ATOM      9  C   UNL d   1     -40.211  14.528  17.439  0.00  0.00     0.024 A 
ENDROOT
BRANCH   1  10
ATOM     10  C   UNL d   1     -39.840  15.033  20.919  0.00  0.00     0.286 C 
ATOM     11  N   UNL d   1     -39.085  15.193  21.209  0.00  0.00    -0.189 NA
ATOM     12  O   UNL d   1     -40.466  14.903  21.463  0.00  0.00    -0.265 OA
BRANCH  11  13
ATOM     13  C   UNL d   1     -38.926  15.230  22.018  0.00  0.00     0.166 A 
ATOM     14  N   UNL d   1     -38.601  14.555  22.390  0.00  0.00    -0.225 NA
ATOM     15  C   UNL d   1     -38.435  14.575  23.198  0.00  0.00     0.101 A 
ATOM     16  C   UNL d   1     -38.593  15.268  23.641  0.00  0.00     0.021 A 
ATOM     17  C   UNL d   1     -38.909  15.922  23.275  0.00  0.00     0.005 A 
ATOM     18  C   UNL d   1     -39.077  15.902  22.456  0.00  0.00     0.039 A 
ENDBRANCH  11  13
ENDBRANCH   1  10
BRANCH   6  19
ATOM     19  N   UNL d   1     -41.010  15.550  16.783  0.00  0.00    -0.114 N 
ATOM     20  O   UNL d   1     -40.560  15.898  16.205  0.00  0.00    -0.532 OA
ATOM     21  O   UNL d   1     -41.832  15.492  16.685  0.00  0.00    -0.532 OA
ENDBRANCH   6  19
TORSDOF 3
ENDMDL
MODEL 5
REMARK VINA RESULT:      -5.7      8.735      9.233
REMARK  3 active torsions:
REMARK  status: ('A' for Active; 'I' for Inactive)
REMARK    1  A    between atoms: C_4  and  C_1 
REMARK    2  A    between atoms: N_2  and  C_9 
REMARK       I    between atoms: N_7  and  C_4 
REMARK    3  A    between atoms: C_11  and  N_7 
ROOT
ATOM      1  C   UNL d   1     -39.225  14.624  19.853  0.00  0.00     0.087 A 
ATOM      2  S   UNL d   1     -38.612  14.075  19.911  0.00  0.00    -0.082 SA
ATOM      3  C   UNL d   1     -39.524  14.756  20.601  0.00  0.00     0.012 A 
ATOM      4  C   UNL d   1     -39.101  14.289  21.141  0.00  0.00     0.008 A 
ATOM      5  C   UNL d   1     -38.520  13.856  20.703  0.00  0.00     0.030 A 
ATOM      6  C   UNL d   1     -38.651  13.684  22.335  0.00  0.00     0.127 A 
ATOM      7  C   UNL d   1     -39.153  14.194  21.945  0.00  0.00     0.024 A 
ATOM      8  C   UNL d   1     -38.024  13.352  21.093  0.00  0.00     0.008 A 
ATOM      9  C   UNL d   1     -38.070  13.251  21.896  0.00  0.00     0.024 A 
ENDROOT
BRANCH   1  10
ATOM     10  C   UNL d   1     -39.488  14.978  19.156  0.00  0.00     0.286 C 
ATOM     11  N   UNL d   1     -40.114  14.654  18.729  0.00  0.00    -0.189 NA
ATOM     12  O   UNL d   1     -39.119  15.676  18.871  0.00  0.00    -0.265 OA
BRANCH  11  13
ATOM     13  C   UNL d   1     -40.390  14.995  18.029  0.00  0.00     0.166 A 
ATOM     14  N   UNL d   1     -40.993  15.571  18.078  0.00  0.00    -0.225 NA
ATOM     15  C   UNL d   1     -41.280  15.922  17.389  0.00  0.00     0.101 A 
ATOM     16  C   UNL d   1     -40.966  15.699  16.645  0.00  0.00     0.021 A 
ATOM     17  C   UNL d   1     -40.379  15.138  16.602  0.00  0.00     0.005 A 
ATOM     18  C   UNL d   1     -40.089  14.782  17.301  0.00  0.00     0.039 A 
ENDBRANCH  11  13
ENDBRANCH   1  10
BRANCH   6  19
ATOM     19  N   UNL d   1     -38.690  13.571  23.173  0.00  0.00    -0.114 N 
ATOM     20  O   UNL d   1     -38.319  14.075  23.689  0.00  0.00    -0.532 OA
ATOM     21  O   UNL d   1     -39.121  12.926  23.465  0.00  0.00    -0.532 OA
ENDBRANCH   6  19
TORSDOF 3
ENDMDL
MODEL 6
REMARK VINA RESULT:      -5.6      8.256     10.173
REMARK  3 active torsions:
REMARK  status: ('A' for Active; 'I' for Inactive)
REMARK    1  A    between atoms: C_4  and  C_1 
REMARK    2  A    between atoms: N_2  and  C_9 
REMARK       I    between atoms: N_7  and  C_4 
REMARK    3  A    between atoms: C_11  and  N_7 
ROOT
ATOM      1  C   UNL d   1     -39.388  14.154  18.949  0.00  0.00     0.087 A 
ATOM      2  S   UNL d   1     -40.085  14.470  19.256  0.00  0.00    -0.082 SA
ATOM      3  C   UNL d   1     -38.861  14.048  19.563  0.00  0.00     0.012 A 
ATOM      4  C   UNL d   1     -39.223  14.296  20.268  0.00  0.00     0.008 A 
ATOM      5  C   UNL d   1     -40.002  14.565  20.073  0.00  0.00     0.030 A 
ATOM      6  C   UNL d   1     -39.459  14.598  21.627  0.00  0.00     0.127 A 
ATOM      7  C   UNL d   1     -38.970  14.319  21.039  0.00  0.00     0.024 A 
ATOM      8  C   UNL d   1     -40.484  14.841  20.659  0.00  0.00     0.008 A 
ATOM      9  C   UNL d   1     -40.238  14.867  21.432  0.00  0.00     0.024 A 
ENDROOT
BRANCH   1  10
ATOM     10  C   UNL d   1     -39.249  13.978  18.155  0.00  0.00     0.286 C 
ATOM     11  N   UNL d   1     -38.574  14.254  17.773  0.00  0.00    -0.189 NA
ATOM     12  O   UNL d   1     -39.799  13.511  17.725  0.00  0.00    -0.265 OA
BRANCH  11  13
ATOM     13  C   UNL d   1     -38.420  14.087  16.979  0.00  0.00     0.166 A 
ATOM     14  N   UNL d   1     -38.585  14.676  16.409  0.00  0.00    -0.225 NA
ATOM     15  C   UNL d   1     -38.437  14.525  15.612  0.00  0.00     0.101 A 
ATOM     16  C   UNL d   1     -38.124  13.784  15.378  0.00  0.00     0.021 A 
ATOM     17  C   UNL d   1     -37.965  13.215  15.936  0.00  0.00     0.005 A 
ATOM     18  C   UNL d   1     -38.114  13.367  16.744  0.00  0.00     0.039 A 
ENDBRANCH  11  13
ENDBRANCH   1  10
BRANCH   6  19
ATOM     19  N   UNL d   1     -39.213  14.630  22.436  0.00  0.00    -0.114 N 
ATOM     20  O   UNL d   1     -39.108  15.335  22.823  0.00  0.00    -0.532 OA
ATOM     21  O   UNL d   1     -39.079  13.916  22.836  0.00  0.00    -0.532 OA
ENDBRANCH   6  19
TORSDOF 3
ENDMDL
MODEL 7
REMARK VINA RESULT:      -5.5      7.738      9.761
REMARK  3 active torsions:
REMARK  status: ('A' for Active; 'I' for Inactive)
REMARK    1  A    between atoms: C_4  and  C_1 
REMARK    2  A    between atoms: N_2  and  C_9 
REMARK       I    between atoms: N_7  and  C_4 
REMARK    3  A    between atoms: C_11  and  N_7 
ROOT
ATOM      1  C   UNL d   1     -39.747  14.388  18.059  0.00  0.00     0.087 A 
ATOM      2  S   UNL d   1     -39.192  13.778  18.047  0.00  0.00    -0.082 SA
ATOM      3  C   UNL d   1     -39.737  14.759  17.332  0.00  0.00     0.012 A 
ATOM      4  C   UNL d   1     -39.174  14.385  16.851  0.00  0.00     0.008 A 
ATOM      5  C   UNL d   1     -38.827  13.760  17.306  0.00  0.00     0.030 A 
ATOM      6  C   UNL d   1     -38.351  14.044  15.755  0.00  0.00     0.127 A 
ATOM      7  C   UNL d   1     -38.929  14.512  16.089  0.00  0.00     0.024 A 
ATOM      8  C   UNL d   1     -38.255  13.298  16.972  0.00  0.00     0.008 A 
ATOM      9  C   UNL d   1     -38.005  13.419  16.210  0.00  0.00     0.024 A 
ENDROOT
BRANCH   1  10
ATOM     10  C   UNL d   1     -40.227  14.588  18.699  0.00  0.00     0.286 C 
ATOM     11  N   UNL d   1     -39.898  14.823  19.417  0.00  0.00    -0.189 NA
ATOM     12  O   UNL d   1     -41.063  14.553  18.627  0.00  0.00    -0.265 OA
BRANCH  11  13
ATOM     13  C   UNL d   1     -40.364  15.026  20.067  0.00  0.00     0.166 A 
ATOM     14  N   UNL d   1     -40.385  14.504  20.720  0.00  0.00    -0.225 NA
ATOM     15  C   UNL d   1     -40.846  14.691  21.378  0.00  0.00     0.101 A 
ATOM     16  C   UNL d   1     -41.289  15.402  21.389  0.00  0.00     0.021 A 
ATOM     17  C   UNL d   1     -41.266  15.906  20.752  0.00  0.00     0.005 A 
ATOM     18  C   UNL d   1     -40.799  15.717  20.085  0.00  0.00     0.039 A 
ENDBRANCH  11  13
ENDBRANCH   1  10
BRANCH   6  19
ATOM     19  N   UNL d   1     -38.083  14.161  14.962  0.00  0.00    -0.114 N 
ATOM     20  O   UNL d   1     -37.964  13.540  14.454  0.00  0.00    -0.532 OA
ATOM     21  O   UNL d   1     -37.940  14.936  14.704  0.00  0.00    -0.532 OA
ENDBRANCH   6  19
TORSDOF 3
ENDMDL
