MODEL 1
REMARK VINA RESULT:      52.4      0.000      0.000
REMARK  5 active torsions:
REMARK  status: ('A' for Active; 'I' for Inactive)
REMARK    1  A    between atoms: C_2  and  N_8 
REMARK    2  A    between atoms: C_14  and  C_4 
REMARK    3  A    between atoms: S_13  and  C_5 
REMARK       I    between atoms: N_8  and  C_11 
REMARK    4  A    between atoms: C_11  and  C_17 
REMARK    5  A    between atoms: C_17  and  S_13 
ROOT
ATOM      1  O   UNL d   1     -48.869  28.428  34.448  0.00  0.00    -0.263 OA
ATOM      2  N   UNL d   1     -48.520  27.781  35.562  0.00  0.00    -0.120 NA
ATOM      3  C   UNL d   1     -48.420  28.478  35.147  0.00  0.00     0.205 A 
ATOM      4  C   UNL d   1     -49.241  27.690  34.447  0.00  0.00     0.236 A 
ATOM      5  N   UNL d   1     -49.028  27.291  35.131  0.00  0.00    -0.114 NA
ENDROOT
BRANCH   4   6
ATOM      6  S   UNL d   1     -49.751  27.391  33.854  0.00  0.00    -0.036 SA
BRANCH   6   7
ATOM      7  C   UNL d   1     -50.350  26.858  34.053  0.00  0.00     0.101 C 
BRANCH   7   8
ATOM      8  C   UNL d   1     -51.111  26.971  33.758  0.00  0.00     0.288 C 
ATOM      9  N   UNL d   1     -51.536  26.336  33.445  0.00  0.00    -0.182 NA
ATOM     10  O   UNL d   1     -51.458  27.728  33.773  0.00  0.00    -0.265 OA
BRANCH   9  11
ATOM     11  C   UNL d   1     -51.197  25.592  33.430  0.00  0.00     0.197 A 
ATOM     12  N   UNL d   1     -50.401  25.346  33.384  0.00  0.00    -0.221 NA
ATOM     13  C   UNL d   1     -50.400  24.526  33.389  0.00  0.00     0.090 A 
ATOM     14  C   UNL d   1     -49.717  24.041  33.351  0.00  0.00     0.021 C 
ATOM     15  C   UNL d   1     -51.169  24.260  33.437  0.00  0.00     0.058 A 
ATOM     16  S   UNL d   1     -51.660  24.917  33.462  0.00  0.00    -0.046 SA
ENDBRANCH   9  11
ENDBRANCH   7   8
ENDBRANCH   6   7
ENDBRANCH   4   6
BRANCH   3  17
ATOM     17  C   UNL d   1     -47.970  29.147  35.334  0.00  0.00     0.046 A 
ATOM     18  C   UNL d   1     -47.680  29.260  36.099  0.00  0.00     0.024 A 
ATOM     19  C   UNL d   1     -47.233  29.926  36.282  0.00  0.00     0.099 A 
ATOM     20  N   UNL d   1     -47.071  30.490  35.693  0.00  0.00    -0.242 NA
ATOM     21  C   UNL d   1     -47.362  30.373  34.929  0.00  0.00     0.099 A 
ATOM     22  C   UNL d   1     -47.810  29.703  34.752  0.00  0.00     0.024 A 
ENDBRANCH   3  17
TORSDOF 5
ENDMDL
MODEL 2
REMARK VINA RESULT:      54.7      1.740      5.443
REMARK  5 active torsions:
REMARK  status: ('A' for Active; 'I' for Inactive)
REMARK    1  A    between atoms: C_2  and  N_8 
REMARK    2  A    between atoms: C_14  and  C_4 
REMARK    3  A    between atoms: S_13  and  C_5 
REMARK       I    between atoms: N_8  and  C_11 
REMARK    4  A    between atoms: C_11  and  C_17 
REMARK    5  A    between atoms: C_17  and  S_13 
ROOT
ATOM      1  O   UNL d   1     -49.273  27.691  34.230  0.00  0.00    -0.263 OA
ATOM      2  N   UNL d   1     -50.005  28.449  33.412  0.00  0.00    -0.120 NA
ATOM      3  C   UNL d   1     -49.928  27.695  33.717  0.00  0.00     0.205 A 
ATOM      4  C   UNL d   1     -48.956  28.454  34.231  0.00  0.00     0.236 A 
ATOM      5  N   UNL d   1     -49.405  28.922  33.728  0.00  0.00    -0.114 NA
ENDROOT
BRANCH   4   6
ATOM      6  S   UNL d   1     -48.290  28.716  34.666  0.00  0.00    -0.036 SA
BRANCH   6   7
ATOM      7  C   UNL d   1     -48.264  29.489  34.957  0.00  0.00     0.101 C 
BRANCH   7   8
ATOM      8  C   UNL d   1     -47.874  29.644  35.667  0.00  0.00     0.288 C 
ATOM      9  N   UNL d   1     -47.552  30.390  35.811  0.00  0.00    -0.182 NA
ATOM     10  O   UNL d   1     -47.803  29.049  36.245  0.00  0.00    -0.265 OA
BRANCH   9  11
ATOM     11  C   UNL d   1     -47.621  30.976  35.245  0.00  0.00     0.197 A 
ATOM     12  N   UNL d   1     -48.258  31.204  34.756  0.00  0.00    -0.221 NA
ATOM     13  C   UNL d   1     -47.999  31.830  34.297  0.00  0.00     0.090 A 
ATOM     14  C   UNL d   1     -48.459  32.235  33.723  0.00  0.00     0.021 C 
ATOM     15  C   UNL d   1     -47.224  31.996  34.485  0.00  0.00     0.058 A 
ATOM     16  S   UNL d   1     -46.991  31.469  35.070  0.00  0.00    -0.046 SA
ENDBRANCH   9  11
ENDBRANCH   7   8
ENDBRANCH   6   7
ENDBRANCH   4   6
BRANCH   3  17
ATOM     17  C   UNL d   1     -50.385  27.017  33.581  0.00  0.00     0.046 A 
ATOM     18  C   UNL d   1     -51.200  27.074  33.469  0.00  0.00     0.024 A 
ATOM     19  C   UNL d   1     -51.651  26.399  33.333  0.00  0.00     0.099 A 
ATOM     20  N   UNL d   1     -51.283  25.654  33.308  0.00  0.00    -0.242 NA
ATOM     21  C   UNL d   1     -50.466  25.602  33.421  0.00  0.00     0.099 A 
ATOM     22  C   UNL d   1     -50.020  26.282  33.556  0.00  0.00     0.024 A 
ENDBRANCH   3  17
TORSDOF 5
ENDMDL
MODEL 3
REMARK VINA RESULT:      54.7      2.929      4.081
REMARK  5 active torsions:
REMARK  status: ('A' for Active; 'I' for Inactive)
REMARK    1  A    between atoms: C_2  and  N_8 
REMARK    2  A    between atoms: C_14  and  C_4 
REMARK    3  A    between atoms: S_13  and  C_5 
REMARK       I    between atoms: N_8  and  C_11 
REMARK    4  A    between atoms: C_11  and  C_17 
REMARK    5  A    between atoms: C_17  and  S_13 
ROOT
ATOM      1  O   UNL d   1     -51.507  26.395  36.341  0.00  0.00    -0.263 OA
ATOM      2  N   UNL d   1     -50.670  26.917  37.240  0.00  0.00    -0.120 NA
ATOM      3  C   UNL d   1     -51.324  26.435  37.151  0.00  0.00     0.205 A 
ATOM      4  C   UNL d   1     -50.954  26.861  35.940  0.00  0.00     0.236 A 
ATOM      5  N   UNL d   1     -50.439  27.183  36.492  0.00  0.00    -0.114 NA
ENDROOT
BRANCH   4   6
ATOM      6  S   UNL d   1     -50.916  26.990  35.114  0.00  0.00    -0.036 SA
BRANCH   6   7
ATOM      7  C   UNL d   1     -50.825  26.351  34.599  0.00  0.00     0.101 C 
BRANCH   7   8
ATOM      8  C   UNL d   1     -50.331  26.422  33.943  0.00  0.00     0.288 C 
ATOM      9  N   UNL d   1     -50.406  25.903  33.306  0.00  0.00    -0.182 NA
ATOM     10  O   UNL d   1     -49.752  27.020  33.918  0.00  0.00    -0.265 OA
BRANCH   9  11
ATOM     11  C   UNL d   1     -50.974  25.315  33.328  0.00  0.00     0.197 A 
ATOM     12  N   UNL d   1     -51.808  25.349  33.306  0.00  0.00    -0.221 NA
ATOM     13  C   UNL d   1     -52.082  24.578  33.347  0.00  0.00     0.090 A 
ATOM     14  C   UNL d   1     -52.889  24.348  33.342  0.00  0.00     0.021 C 
ATOM     15  C   UNL d   1     -51.446  24.071  33.394  0.00  0.00     0.058 A 
ATOM     16  S   UNL d   1     -50.762  24.526  33.383  0.00  0.00    -0.046 SA
ENDBRANCH   9  11
ENDBRANCH   7   8
ENDBRANCH   6   7
ENDBRANCH   4   6
BRANCH   3  17
ATOM     17  C   UNL d   1     -51.767  26.031  37.723  0.00  0.00     0.046 A 
ATOM     18  C   UNL d   1     -51.442  25.854  38.460  0.00  0.00     0.024 A 
ATOM     19  C   UNL d   1     -51.885  25.453  39.026  0.00  0.00     0.099 A 
ATOM     20  N   UNL d   1     -52.665  25.223  38.854  0.00  0.00    -0.242 NA
ATOM     21  C   UNL d   1     -52.987  25.402  38.115  0.00  0.00     0.099 A 
ATOM     22  C   UNL d   1     -52.538  25.805  37.552  0.00  0.00     0.024 A 
ENDBRANCH   3  17
TORSDOF 5
ENDMDL
