MODEL 1
REMARK VINA RESULT:      -3.2      0.000      0.000
REMARK  6 active torsions:
REMARK  status: ('A' for Active; 'I' for Inactive)
REMARK    1  A    between atoms: C_6  and  N_1 
REMARK    2  A    between atoms: C_7  and  C_4 
REMARK    3  A    between atoms: C_8  and  C_6 
REMARK    4  A    between atoms: C_11  and  C_6 
REMARK    5  A    between atoms: C_13  and  C_7 
REMARK    6  A    between atoms: C_16  and  C_11 
ROOT
ATOM      1  N   UNL d   1      32.724  18.245 -23.811  0.00  0.00    -0.254 N 
ATOM      2  C   UNL d   1      32.842  18.899 -24.178  0.00  0.00     0.153 A 
ATOM      3  C   UNL d   1      32.854  18.363 -23.014  0.00  0.00     0.272 A 
ATOM      4  C   UNL d   1      33.065  19.145 -22.898  0.00  0.00     0.088 A 
ATOM      5  S   UNL d   1      33.056  19.477 -23.633  0.00  0.00    -0.054 SA
ATOM      6  S   UNL d   1      32.746  18.936 -25.023  0.00  0.00    -0.052 SA
ATOM      7  O   UNL d   1      32.787  17.791 -22.396  0.00  0.00    -0.266 OA
ENDROOT
BRANCH   1   8
ATOM      8  C   UNL d   1      32.496  17.526 -24.188  0.00  0.00     0.132 C 
BRANCH   8   9
ATOM      9  C   UNL d   1      32.985  16.883 -24.196  0.00  0.00     0.228 C 
ATOM     10  O   UNL d   1      33.233  16.516 -23.499  0.00  0.00    -0.643 OA
ATOM     11  O   UNL d   1      33.241  16.586 -24.935  0.00  0.00    -0.643 OA
ENDBRANCH   8   9
BRANCH   8  12
ATOM     12  C   UNL d   1      31.726  17.508 -24.561  0.00  0.00     0.024 C 
BRANCH  12  13
ATOM     13  C   UNL d   1      31.221  16.892 -24.378  0.00  0.00     0.002 A 
ATOM     14  C   UNL d   1      30.766  16.896 -23.726  0.00  0.00     0.000 A 
ATOM     15  C   UNL d   1      30.256  16.249 -23.563  0.00  0.00     0.000 A 
ATOM     16  C   UNL d   1      30.243  15.642 -24.071  0.00  0.00     0.000 A 
ATOM     17  C   UNL d   1      30.703  15.616 -24.748  0.00  0.00     0.000 A 
ATOM     18  C   UNL d   1      31.211  16.258 -24.915  0.00  0.00     0.000 A 
ENDBRANCH  12  13
ENDBRANCH   8  12
ENDBRANCH   1   8
BRANCH   4  19
ATOM     19  C   UNL d   1      33.236  19.454 -22.153  0.00  0.00     0.011 C 
BRANCH  19  20
ATOM     20  C   UNL d   1      33.054  20.254 -21.938  0.00  0.00     0.001 A 
ATOM     21  C   UNL d   1      33.240  20.850 -22.455  0.00  0.00     0.001 A 
ATOM     22  C   UNL d   1      33.073  21.643 -22.270  0.00  0.00     0.007 A 
ATOM     23  C   UNL d   1      32.694  21.810 -21.507  0.00  0.00     0.035 A 
ATOM     24  C   UNL d   1      32.519  21.185 -21.008  0.00  0.00     0.007 A 
ATOM     25 BR   UNL d   1      32.510  22.607 -21.287  0.00  0.00    -0.049 Br
ATOM     26  C   UNL d   1      32.693  20.422 -21.215  0.00  0.00     0.001 A 
ENDBRANCH  19  20
ENDBRANCH   4  19
TORSDOF 6
ENDMDL
