MODEL 1
REMARK VINA RESULT:       7.1      0.000      0.000
REMARK  4 active torsions:
REMARK  status: ('A' for Active; 'I' for Inactive)
REMARK    1  A    between atoms: C_7  and  C_2 
REMARK    2  A    between atoms: O_8  and  C_7 
REMARK    3  A    between atoms: C_9  and  O_8 
REMARK    4  A    between atoms: O_11  and  C_10 
ROOT
ATOM      1  C   UNL d   1      46.010 -16.680  43.884  0.00  0.00     0.161 C 
ENDROOT
BRANCH   1   2
ATOM      2  C   UNL d   1      46.161 -17.487  43.848  0.00  0.00     0.188 A 
ATOM      3  N   UNL d   1      46.176 -17.763  43.055  0.00  0.00    -0.224 NA
ATOM      4  C   UNL d   1      46.332 -18.579  43.078  0.00  0.00     0.101 A 
ATOM      5  C   UNL d   1      46.413 -18.809  43.869  0.00  0.00     0.101 A 
ATOM      6  C   UNL d   1      46.407 -19.129  42.472  0.00  0.00     0.021 A 
ATOM      7  C   UNL d   1      46.571 -19.603  44.045  0.00  0.00     0.021 A 
ATOM      8  N   UNL d   1      46.308 -18.138  44.344  0.00  0.00    -0.224 NA
ATOM      9  C   UNL d   1      46.647 -20.153  43.440  0.00  0.00     0.002 A 
ATOM     10  C   UNL d   1      46.565 -19.916  42.651  0.00  0.00     0.002 A 
ENDBRANCH   1   2
BRANCH   1  11
ATOM     11  O   UNL d   1      45.996 -16.296  44.603  0.00  0.00    -0.302 OA
BRANCH  11  12
ATOM     12  C   UNL d   1      45.661 -15.544  44.668  0.00  0.00     0.102 A 
ATOM     13  C   UNL d   1      46.121 -14.882  44.511  0.00  0.00     0.049 A 
ATOM     14  C   UNL d   1      45.786 -14.129  44.576  0.00  0.00     0.096 A 
ATOM     15  C   UNL d   1      44.994 -14.050  44.798  0.00  0.00     0.024 A 
ATOM     16  C   UNL d   1      44.536 -14.724  44.955  0.00  0.00     0.004 A 
ATOM     17  C   UNL d   1      44.882 -15.467  44.886  0.00  0.00     0.025 A 
BRANCH  14  18
ATOM     18  O   UNL d   1      46.241 -13.460  44.420  0.00  0.00    -0.328 OA
ATOM     19  C   UNL d   1      45.875 -12.719  44.370  0.00  0.00     0.181 C 
ENDBRANCH  14  18
ENDBRANCH  11  12
ENDBRANCH   1  11
TORSDOF 4
ENDMDL
MODEL 2
REMARK VINA RESULT:       8.6      1.383      4.772
REMARK  4 active torsions:
REMARK  status: ('A' for Active; 'I' for Inactive)
REMARK    1  A    between atoms: C_7  and  C_2 
REMARK    2  A    between atoms: O_8  and  C_7 
REMARK    3  A    between atoms: C_9  and  O_8 
REMARK    4  A    between atoms: O_11  and  C_10 
ROOT
ATOM      1  C   UNL d   1      45.771 -16.941  44.240  0.00  0.00     0.161 C 
ENDROOT
BRANCH   1   2
ATOM      2  C   UNL d   1      45.801 -16.138  44.410  0.00  0.00     0.188 A 
ATOM      3  N   UNL d   1      45.084 -15.752  44.206  0.00  0.00    -0.224 NA
ATOM      4  C   UNL d   1      45.170 -14.947  44.397  0.00  0.00     0.101 A 
ATOM      5  C   UNL d   1      45.926 -14.833  44.716  0.00  0.00     0.101 A 
ATOM      6  C   UNL d   1      44.649 -14.317  44.317  0.00  0.00     0.021 A 
ATOM      7  C   UNL d   1      46.152 -14.072  44.955  0.00  0.00     0.021 A 
ATOM      8  N   UNL d   1      46.314 -15.564  44.725  0.00  0.00    -0.224 NA
ATOM      9  C   UNL d   1      45.632 -13.442  44.875  0.00  0.00     0.002 A 
ATOM     10  C   UNL d   1      44.878 -13.564  44.555  0.00  0.00     0.002 A 
ENDBRANCH   1   2
BRANCH   1  11
ATOM     11  O   UNL d   1      46.385 -17.431  44.459  0.00  0.00    -0.302 OA
BRANCH  11  12
ATOM     12  C   UNL d   1      46.401 -18.217  44.207  0.00  0.00     0.102 A 
ATOM     13  C   UNL d   1      46.445 -18.384  43.404  0.00  0.00     0.049 A 
ATOM     14  C   UNL d   1      46.462 -19.171  43.153  0.00  0.00     0.096 A 
ATOM     15  C   UNL d   1      46.435 -19.780  43.709  0.00  0.00     0.024 A 
ATOM     16  C   UNL d   1      46.391 -19.604  44.519  0.00  0.00     0.004 A 
ATOM     17  C   UNL d   1      46.374 -18.817  44.756  0.00  0.00     0.025 A 
BRANCH  14  18
ATOM     18  O   UNL d   1      46.506 -19.346  42.349  0.00  0.00    -0.328 OA
ATOM     19  C   UNL d   1      46.596 -20.132  42.106  0.00  0.00     0.181 C 
ENDBRANCH  14  18
ENDBRANCH  11  12
ENDBRANCH   1  11
TORSDOF 4
ENDMDL
