MODEL 1
REMARK VINA RESULT:     -13.2      0.000      0.000
REMARK  2 active torsions:
REMARK  status: ('A' for Active; 'I' for Inactive)
REMARK    1  A    between atoms: N_11  and  C_2 
REMARK    2  A    between atoms: C_16  and  N_11 
ROOT
ATOM      1  C   UNL d   1      53.163  33.074  53.594  0.00  0.00     0.024 A 
ATOM      2  C   UNL d   1      53.188  32.328  53.259  0.00  0.00     0.139 A 
ATOM      3  C   UNL d   1      52.567  33.605  53.388  0.00  0.00     0.022 A 
ATOM      4  C   UNL d   1      52.618  32.096  52.713  0.00  0.00     0.297 A 
ATOM      5  C   UNL d   1      53.740  33.305  54.146  0.00  0.00     0.005 A 
ATOM      6  C   UNL d   1      52.542  34.356  53.724  0.00  0.00     0.041 A 
ATOM      7  C   UNL d   1      53.111  34.593  54.273  0.00  0.00     0.196 A 
ATOM      8  N   UNL d   1      52.024  32.626  52.508  0.00  0.00    -0.207 NA
ATOM      9  C   UNL d   1      51.999  33.372  52.842  0.00  0.00     0.085 A 
ATOM     10  C   UNL d   1      53.715  34.056  54.482  0.00  0.00     0.039 A 
ATOM     11  O   UNL d   1      52.643  31.350  52.379  0.00  0.00    -0.264 OA
ATOM     12  O   UNL d   1      53.086  35.360  54.617  0.00  0.00    -0.287 OA
ATOM     13  C   UNL d   1      51.948  34.891  53.522  0.00  0.00     0.003 A 
ATOM     14  C   UNL d   1      54.334  32.775  54.351  0.00  0.00     0.000 A 
ATOM     15  C   UNL d   1      51.400  33.903  52.633  0.00  0.00     0.019 A 
ATOM     16  C   UNL d   1      54.283  34.294  55.031  0.00  0.00     0.003 A 
ATOM     17  C   UNL d   1      51.375  34.655  52.970  0.00  0.00     0.002 A 
ATOM     18  C   UNL d   1      54.909  33.006  54.901  0.00  0.00     0.000 A 
ATOM     19  C   UNL d   1      54.883  33.758  55.237  0.00  0.00     0.000 A 
ENDROOT
BRANCH   2  20
ATOM     20  N   UNL d   1      53.791  31.797  53.471  0.00  0.00    -0.241 NA
BRANCH  20  21
ATOM     21  C   UNL d   1      53.606  31.028  53.682  0.00  0.00     0.082 A 
ATOM     22  C   UNL d   1      53.857  30.412  53.193  0.00  0.00     0.019 A 
ATOM     23  C   UNL d   1      53.682  29.624  53.385  0.00  0.00     0.002 A 
ATOM     24  C   UNL d   1      53.241  29.457  54.090  0.00  0.00     0.000 A 
ATOM     25  C   UNL d   1      52.998  30.067  54.565  0.00  0.00     0.002 A 
ATOM     26  C   UNL d   1      53.174  30.860  54.371  0.00  0.00     0.019 A 
ENDBRANCH  20  21
ENDBRANCH   2  20
TORSDOF 2
ENDMDL
MODEL 2
REMARK VINA RESULT:     -12.1      1.139      3.579
REMARK  2 active torsions:
REMARK  status: ('A' for Active; 'I' for Inactive)
REMARK    1  A    between atoms: N_11  and  C_2 
REMARK    2  A    between atoms: C_16  and  N_11 
ROOT
ATOM      1  C   UNL d   1      53.111  33.159  53.635  0.00  0.00     0.024 A 
ATOM      2  C   UNL d   1      52.725  33.741  53.211  0.00  0.00     0.139 A 
ATOM      3  C   UNL d   1      53.598  33.356  54.269  0.00  0.00     0.022 A 
ATOM      4  C   UNL d   1      52.817  34.534  53.412  0.00  0.00     0.297 A 
ATOM      5  C   UNL d   1      53.016  32.359  53.429  0.00  0.00     0.005 A 
ATOM      6  C   UNL d   1      53.987  32.769  54.696  0.00  0.00     0.041 A 
ATOM      7  C   UNL d   1      53.898  31.972  54.499  0.00  0.00     0.196 A 
ATOM      8  N   UNL d   1      53.302  34.731  54.045  0.00  0.00    -0.207 NA
ATOM      9  C   UNL d   1      53.689  34.148  54.469  0.00  0.00     0.085 A 
ATOM     10  C   UNL d   1      53.406  31.771  53.856  0.00  0.00     0.039 A 
ATOM     11  O   UNL d   1      52.430  35.117  52.988  0.00  0.00    -0.264 OA
ATOM     12  O   UNL d   1      54.295  31.374  54.934  0.00  0.00    -0.287 OA
ATOM     13  C   UNL d   1      54.476  32.962  55.332  0.00  0.00     0.003 A 
ATOM     14  C   UNL d   1      52.530  32.162  52.796  0.00  0.00     0.000 A 
ATOM     15  C   UNL d   1      54.177  34.349  55.106  0.00  0.00     0.019 A 
ATOM     16  C   UNL d   1      53.317  30.976  53.659  0.00  0.00     0.003 A 
ATOM     17  C   UNL d   1      54.567  33.762  55.533  0.00  0.00     0.002 A 
ATOM     18  C   UNL d   1      52.436  31.365  52.592  0.00  0.00     0.000 A 
ATOM     19  C   UNL d   1      52.826  30.778  53.019  0.00  0.00     0.000 A 
ENDROOT
BRANCH   2  20
ATOM     20  N   UNL d   1      52.235  33.536  52.572  0.00  0.00    -0.241 NA
BRANCH  20  21
ATOM     21  C   UNL d   1      51.467  33.816  52.537  0.00  0.00     0.082 A 
ATOM     22  C   UNL d   1      51.201  34.158  51.833  0.00  0.00     0.019 A 
ATOM     23  C   UNL d   1      50.427  34.449  51.773  0.00  0.00     0.002 A 
ATOM     24  C   UNL d   1      49.909  34.392  52.441  0.00  0.00     0.000 A 
ATOM     25  C   UNL d   1      50.176  34.056  53.128  0.00  0.00     0.002 A 
ATOM     26  C   UNL d   1      50.956  33.763  53.189  0.00  0.00     0.019 A 
ENDBRANCH  20  21
ENDBRANCH   2  20
TORSDOF 2
ENDMDL
MODEL 3
REMARK VINA RESULT:     -11.9      0.846      2.315
REMARK  2 active torsions:
REMARK  status: ('A' for Active; 'I' for Inactive)
REMARK    1  A    between atoms: N_11  and  C_2 
REMARK    2  A    between atoms: C_16  and  N_11 
ROOT
ATOM      1  C   UNL d   1      53.219  33.199  53.620  0.00  0.00     0.024 A 
ATOM      2  C   UNL d   1      53.454  32.446  53.403  0.00  0.00     0.139 A 
ATOM      3  C   UNL d   1      53.638  33.620  54.190  0.00  0.00     0.022 A 
ATOM      4  C   UNL d   1      54.113  32.099  53.752  0.00  0.00     0.297 A 
ATOM      5  C   UNL d   1      52.552  33.547  53.264  0.00  0.00     0.005 A 
ATOM      6  C   UNL d   1      53.401  34.379  54.408  0.00  0.00     0.041 A 
ATOM      7  C   UNL d   1      52.740  34.732  54.060  0.00  0.00     0.196 A 
ATOM      8  N   UNL d   1      54.531  32.519  54.321  0.00  0.00    -0.207 NA
ATOM      9  C   UNL d   1      54.296  33.272  54.538  0.00  0.00     0.085 A 
ATOM     10  C   UNL d   1      52.315  34.306  53.483  0.00  0.00     0.039 A 
ATOM     11  O   UNL d   1      54.348  31.346  53.535  0.00  0.00    -0.264 OA
ATOM     12  O   UNL d   1      52.499  35.505  54.283  0.00  0.00    -0.287 OA
ATOM     13  C   UNL d   1      53.817  34.804  54.978  0.00  0.00     0.003 A 
ATOM     14  C   UNL d   1      52.134  33.126  52.695  0.00  0.00     0.000 A 
ATOM     15  C   UNL d   1      54.719  33.693  55.111  0.00  0.00     0.019 A 
ATOM     16  C   UNL d   1      51.656  34.659  53.136  0.00  0.00     0.003 A 
ATOM     17  C   UNL d   1      54.482  34.451  55.329  0.00  0.00     0.002 A 
ATOM     18  C   UNL d   1      51.471  33.475  52.343  0.00  0.00     0.000 A 
ATOM     19  C   UNL d   1      51.234  34.233  52.561  0.00  0.00     0.000 A 
ENDROOT
BRANCH   2  20
ATOM     20  N   UNL d   1      53.028  32.026  52.827  0.00  0.00    -0.241 NA
BRANCH  20  21
ATOM     21  C   UNL d   1      52.815  31.247  52.961  0.00  0.00     0.082 A 
ATOM     22  C   UNL d   1      53.148  30.659  52.487  0.00  0.00     0.019 A 
ATOM     23  C   UNL d   1      52.948  29.862  52.602  0.00  0.00     0.002 A 
ATOM     24  C   UNL d   1      52.397  29.656  53.213  0.00  0.00     0.000 A 
ATOM     25  C   UNL d   1      52.074  30.239  53.674  0.00  0.00     0.002 A 
ATOM     26  C   UNL d   1      52.275  31.042  53.558  0.00  0.00     0.019 A 
ENDBRANCH  20  21
ENDBRANCH   2  20
TORSDOF 2
ENDMDL
MODEL 4
REMARK VINA RESULT:     -11.0      1.091      3.242
REMARK  2 active torsions:
REMARK  status: ('A' for Active; 'I' for Inactive)
REMARK    1  A    between atoms: N_11  and  C_2 
REMARK    2  A    between atoms: C_16  and  N_11 
ROOT
ATOM      1  C   UNL d   1      52.936  33.292  53.563  0.00  0.00     0.024 A 
ATOM      2  C   UNL d   1      52.426  33.377  52.929  0.00  0.00     0.139 A 
ATOM      3  C   UNL d   1      53.251  32.555  53.751  0.00  0.00     0.022 A 
ATOM      4  C   UNL d   1      52.222  32.726  52.469  0.00  0.00     0.297 A 
ATOM      5  C   UNL d   1      53.140  33.952  54.026  0.00  0.00     0.005 A 
ATOM      6  C   UNL d   1      53.764  32.470  54.390  0.00  0.00     0.041 A 
ATOM      7  C   UNL d   1      53.972  33.120  54.855  0.00  0.00     0.196 A 
ATOM      8  N   UNL d   1      52.537  31.991  52.655  0.00  0.00    -0.207 NA
ATOM      9  C   UNL d   1      53.046  31.906  53.290  0.00  0.00     0.085 A 
ATOM     10  C   UNL d   1      53.653  33.867  54.666  0.00  0.00     0.039 A 
ATOM     11  O   UNL d   1      51.713  32.811  51.834  0.00  0.00    -0.264 OA
ATOM     12  O   UNL d   1      54.495  33.033  55.507  0.00  0.00    -0.287 OA
ATOM     13  C   UNL d   1      54.082  31.734  54.582  0.00  0.00     0.003 A 
ATOM     14  C   UNL d   1      52.824  34.688  53.839  0.00  0.00     0.000 A 
ATOM     15  C   UNL d   1      53.362  31.164  53.477  0.00  0.00     0.019 A 
ATOM     16  C   UNL d   1      53.861  34.515  55.131  0.00  0.00     0.003 A 
ATOM     17  C   UNL d   1      53.875  31.079  54.116  0.00  0.00     0.002 A 
ATOM     18  C   UNL d   1      53.029  35.344  54.301  0.00  0.00     0.000 A 
ATOM     19  C   UNL d   1      53.542  35.259  54.940  0.00  0.00     0.000 A 
ENDROOT
BRANCH   2  20
ATOM     20  N   UNL d   1      52.111  34.123  52.744  0.00  0.00    -0.241 NA
BRANCH  20  21
ATOM     21  C   UNL d   1      51.307  34.209  52.618  0.00  0.00     0.082 A 
ATOM     22  C   UNL d   1      51.044  34.401  51.859  0.00  0.00     0.019 A 
ATOM     23  C   UNL d   1      50.234  34.494  51.705  0.00  0.00     0.002 A 
ATOM     24  C   UNL d   1      49.677  34.389  52.335  0.00  0.00     0.000 A 
ATOM     25  C   UNL d   1      49.942  34.201  53.077  0.00  0.00     0.002 A 
ATOM     26  C   UNL d   1      50.758  34.107  53.232  0.00  0.00     0.019 A 
ENDBRANCH  20  21
ENDBRANCH   2  20
TORSDOF 2
ENDMDL
