MODEL 1
REMARK VINA RESULT:      -5.2      0.000      0.000
REMARK  4 active torsions:
REMARK  status: ('A' for Active; 'I' for Inactive)
REMARK    1  A    between atoms: C_2  and  S_1 
REMARK    2  A    between atoms: N_3  and  S_1 
REMARK    3  A    between atoms: C_10  and  N_3 
REMARK    4  A    between atoms: C_5  and  C_10 
ROOT
ATOM      1  S   UNL d   1     -41.963-122.954 -51.048  0.00  0.00     0.285 S 
ATOM      2  O   UNL d   1     -41.951-122.134 -51.012  0.00  0.00    -0.198 OA
ATOM      3  O   UNL d   1     -41.977-123.799 -51.081  0.00  0.00    -0.198 OA
ENDROOT
BRANCH   1   4
ATOM      4  C   UNL d   1     -42.108-122.987 -50.207  0.00  0.00     0.105 A 
ATOM      5  C   UNL d   1     -41.559-123.349 -49.703  0.00  0.00     0.013 A 
ATOM      6  C   UNL d   1     -41.705-123.378 -48.894  0.00  0.00     0.001 A 
ATOM      7  C   UNL d   1     -41.140-123.748 -48.391  0.00  0.00     0.000 C 
ATOM      8  C   UNL d   1     -42.393-123.049 -48.586  0.00  0.00     0.000 A 
ATOM      9  C   UNL d   1     -42.933-122.692 -49.090  0.00  0.00     0.001 A 
ATOM     10  C   UNL d   1     -42.539-123.082 -47.748  0.00  0.00     0.000 C 
ATOM     11  C   UNL d   1     -42.796-122.658 -49.903  0.00  0.00     0.013 A 
ENDBRANCH   1   4
BRANCH   1  12
ATOM     12  N   UNL d   1     -41.820-122.919 -51.880  0.00  0.00    -0.155 NA
BRANCH  12  13
ATOM     13  C   UNL d   1     -41.573-122.305 -52.350  0.00  0.00     0.137 C 
BRANCH  13  14
ATOM     14  C   UNL d   1     -41.560-122.394 -53.173  0.00  0.00     0.120 A 
ATOM     15  O   UNL d   1     -41.990-121.937 -53.753  0.00  0.00    -0.304 OA
ATOM     16  C   UNL d   1     -41.785-122.246 -54.492  0.00  0.00     0.123 A 
ATOM     17  C   UNL d   1     -41.234-122.887 -54.366  0.00  0.00     0.029 A 
ATOM     18  C   UNL d   1     -41.125-122.944 -53.563  0.00  0.00     0.028 A 
ENDBRANCH  13  14
ENDBRANCH  12  13
ENDBRANCH   1  12
TORSDOF 4
ENDMDL
MODEL 2
REMARK VINA RESULT:      -5.0      0.810      4.531
REMARK  4 active torsions:
REMARK  status: ('A' for Active; 'I' for Inactive)
REMARK    1  A    between atoms: C_2  and  S_1 
REMARK    2  A    between atoms: N_3  and  S_1 
REMARK    3  A    between atoms: C_10  and  N_3 
REMARK    4  A    between atoms: C_5  and  C_10 
ROOT
ATOM      1  S   UNL d   1     -41.546-122.826 -52.074  0.00  0.00     0.285 S 
ATOM      2  O   UNL d   1     -41.770-123.614 -52.119  0.00  0.00    -0.198 OA
ATOM      3  O   UNL d   1     -41.315-122.014 -52.031  0.00  0.00    -0.198 OA
ENDROOT
BRANCH   1   4
ATOM      4  C   UNL d   1     -41.546-122.778 -52.927  0.00  0.00     0.105 A 
ATOM      5  C   UNL d   1     -41.969-122.179 -53.311  0.00  0.00     0.013 A 
ATOM      6  C   UNL d   1     -41.965-122.139 -54.132  0.00  0.00     0.001 A 
ATOM      7  C   UNL d   1     -42.399-121.525 -54.512  0.00  0.00     0.000 C 
ATOM      8  C   UNL d   1     -41.543-122.691 -54.572  0.00  0.00     0.000 A 
ATOM      9  C   UNL d   1     -41.126-123.283 -54.185  0.00  0.00     0.001 A 
ATOM     10  C   UNL d   1     -41.543-122.645 -55.421  0.00  0.00     0.000 C 
ATOM     11  C   UNL d   1     -41.124-123.332 -53.362  0.00  0.00     0.013 A 
ENDBRANCH   1   4
BRANCH   1  12
ATOM     12  N   UNL d   1     -41.546-122.875 -51.230  0.00  0.00    -0.155 NA
BRANCH  12  13
ATOM     13  C   UNL d   1     -42.065-122.576 -50.682  0.00  0.00     0.137 C 
BRANCH  13  14
ATOM     14  C   UNL d   1     -42.008-122.807 -49.890  0.00  0.00     0.120 A 
ATOM     15  O   UNL d   1     -41.316-123.097 -49.480  0.00  0.00    -0.304 OA
ATOM     16  C   UNL d   1     -41.552-123.250 -48.703  0.00  0.00     0.123 A 
ATOM     17  C   UNL d   1     -42.381-123.055 -48.637  0.00  0.00     0.029 A 
ATOM     18  C   UNL d   1     -42.617-122.794 -49.368  0.00  0.00     0.028 A 
ENDBRANCH  13  14
ENDBRANCH  12  13
ENDBRANCH   1  12
TORSDOF 4
ENDMDL
