MODEL 1
REMARK VINA RESULT:       4.0      0.000      0.000
REMARK  5 active torsions:
REMARK  status: ('A' for Active; 'I' for Inactive)
REMARK    1  A    between atoms: C_9  and  N_1 
REMARK    2  A    between atoms: C_8  and  C_3 
REMARK       I    between atoms: N_12  and  C_8 
REMARK    3  A    between atoms: C_21  and  C_9 
REMARK    4  A    between atoms: C_20  and  N_12 
REMARK    5  A    between atoms: C_13  and  C_20 
ROOT
ATOM      1  N   UNL d   1     -41.209-122.445 -50.989  0.00  0.00    -0.273 N 
ATOM      2  C   UNL d   1     -41.251-122.995 -51.593  0.00  0.00     0.177 A 
ATOM      3  C   UNL d   1     -41.269-122.576 -52.313  0.00  0.00     0.115 A 
ATOM      4  C   UNL d   1     -41.199-121.693 -51.315  0.00  0.00     0.167 A 
ATOM      5  C   UNL d   1     -41.236-121.774 -52.138  0.00  0.00     0.123 A 
ATOM      6  N   UNL d   1     -41.162-120.933 -50.977  0.00  0.00    -0.225 NA
ATOM      7  N   UNL d   1     -41.236-121.096 -52.621  0.00  0.00    -0.241 NA
ATOM      8  C   UNL d   1     -41.161-120.264 -51.459  0.00  0.00     0.101 A 
ATOM      9  C   UNL d   1     -41.198-120.346 -52.281  0.00  0.00     0.099 A 
ATOM     10  N   UNL d   1     -41.274-123.817 -51.510  0.00  0.00    -0.128 N 
ATOM     11  C   UNL d   1     -41.198-119.676 -52.763  0.00  0.00     0.021 A 
ATOM     12  C   UNL d   1     -41.123-119.513 -51.119  0.00  0.00     0.021 A 
ATOM     13  C   UNL d   1     -41.160-118.924 -52.423  0.00  0.00     0.002 A 
ATOM     14  C   UNL d   1     -41.123-118.843 -51.601  0.00  0.00     0.002 A 
ENDROOT
BRANCH   3  15
ATOM     15  C   UNL d   1     -41.311-122.910 -53.072  0.00  0.00     0.284 C 
ATOM     16  N   UNL d   1     -41.464-122.433 -53.726  0.00  0.00    -0.204 NA
ATOM     17  O   UNL d   1     -41.198-123.727 -53.167  0.00  0.00    -0.265 OA
BRANCH  16  18
ATOM     18  C   UNL d   1     -41.505-122.776 -54.483  0.00  0.00     0.127 C 
BRANCH  18  19
ATOM     19  C   UNL d   1     -41.844-122.350 -55.109  0.00  0.00     0.119 A 
ATOM     20  O   UNL d   1     -41.443-121.828 -55.610  0.00  0.00    -0.304 OA
ATOM     21  C   UNL d   1     -41.990-121.535 -56.144  0.00  0.00     0.123 A 
ATOM     22  C   UNL d   1     -42.730-121.877 -55.973  0.00  0.00     0.029 A 
ATOM     23  C   UNL d   1     -42.631-122.375 -55.338  0.00  0.00     0.028 A 
ENDBRANCH  18  19
ENDBRANCH  16  18
ENDBRANCH   3  15
BRANCH   1  24
ATOM     24  C   UNL d   1     -41.180-122.623 -50.170  0.00  0.00     0.083 C 
BRANCH  24  25
ATOM     25  C   UNL d   1     -41.878-122.699 -49.738  0.00  0.00     0.018 A 
ATOM     26  C   UNL d   1     -41.868-122.613 -48.922  0.00  0.00     0.002 A 
ATOM     27  C   UNL d   1     -42.570-122.690 -48.488  0.00  0.00     0.000 A 
ATOM     28  C   UNL d   1     -43.278-122.851 -48.870  0.00  0.00     0.000 A 
ATOM     29  C   UNL d   1     -43.288-122.938 -49.696  0.00  0.00     0.000 A 
ATOM     30  C   UNL d   1     -42.586-122.861 -50.130  0.00  0.00     0.002 A 
ENDBRANCH  24  25
ENDBRANCH   1  24
TORSDOF 5
ENDMDL
