MODEL 1
REMARK VINA RESULT:      -8.3      0.000      0.000
REMARK  8 active torsions:
REMARK  status: ('A' for Active; 'I' for Inactive)
REMARK    1  A    between atoms: C_2  and  C_1 
REMARK    2  A    between atoms: C_5  and  C_1 
REMARK    3  A    between atoms: O_11  and  C_2 
REMARK    4  A    between atoms: C_13  and  C_3 
REMARK    5  A    between atoms: C_6  and  C_5 
REMARK    6  A    between atoms: C_23  and  O_11 
REMARK    7  A    between atoms: C_12  and  S_14 
REMARK    8  A    between atoms: S_14  and  C_18 
ROOT
ATOM      1  C   UNL d   1      52.683  34.573  53.247  0.00  0.00     0.134 C 
ATOM      2  C   UNL d   1      52.810  35.118  53.852  0.00  0.00     0.106 C 
ATOM      3  N   UNL d   1      52.942  35.662  54.459  0.00  0.00    -0.191 NA
ENDROOT
BRANCH   1   4
ATOM      4  C   UNL d   1      51.933  34.512  52.905  0.00  0.00     0.310 C 
ATOM      5  O   UNL d   1      51.848  34.534  52.085  0.00  0.00    -0.258 OA
BRANCH   4   6
ATOM      6  O   UNL d   1      51.263  34.428  53.384  0.00  0.00    -0.273 OA
BRANCH   6   7
ATOM      7  C   UNL d   1      50.536  34.269  53.044  0.00  0.00     0.103 C 
ATOM      8  C   UNL d   1      50.015  34.884  52.867  0.00  0.00     0.027 C 
ATOM      9  C   UNL d   1      50.321  33.488  52.878  0.00  0.00     0.027 C 
ENDBRANCH   6   7
ENDBRANCH   4   6
ENDBRANCH   1   4
BRANCH   1  10
ATOM     10  C   UNL d   1      53.293  34.093  52.981  0.00  0.00     0.040 C 
BRANCH  10  11
ATOM     11  C   UNL d   1      53.551  33.472  53.447  0.00  0.00     0.101 A 
ATOM     12  O   UNL d   1      53.320  32.719  53.215  0.00  0.00    -0.307 OA
ATOM     13  C   UNL d   1      53.632  32.178  53.750  0.00  0.00     0.100 A 
ATOM     14  C   UNL d   1      54.058  32.599  54.316  0.00  0.00     0.027 A 
ATOM     15  C   UNL d   1      54.013  33.389  54.139  0.00  0.00     0.027 A 
BRANCH  13  16
ATOM     16  C   UNL d   1      53.539  31.365  53.728  0.00  0.00     0.023 A 
ATOM     17  C   UNL d   1      53.303  31.113  54.485  0.00  0.00     0.003 A 
ATOM     18  C   UNL d   1      53.167  30.306  54.627  0.00  0.00     0.007 A 
ATOM     19  C   UNL d   1      53.265  29.758  54.021  0.00  0.00     0.034 A 
ATOM     20  C   UNL d   1      53.498  30.009  53.271  0.00  0.00     0.007 A 
ATOM     21  C   UNL d   1      53.636  30.810  53.120  0.00  0.00     0.003 A 
BRANCH  19  22
ATOM     22  S   UNL d   1      53.129  28.961  54.165  0.00  0.00    -0.028 SA
BRANCH  22  23
ATOM     23  C   UNL d   1      53.547  28.575  54.760  0.00  0.00     0.309 C 
ATOM     24  F   UNL d   1      54.270  28.217  54.589  0.00  0.00    -0.165 F 
ATOM     25  F   UNL d   1      53.244  28.547  55.525  0.00  0.00    -0.165 F 
ENDBRANCH  22  23
ENDBRANCH  19  22
ENDBRANCH  13  16
ENDBRANCH  10  11
ENDBRANCH   1  10
TORSDOF 8
ENDMDL
MODEL 2
REMARK VINA RESULT:      -8.3      3.755      5.798
REMARK  8 active torsions:
REMARK  status: ('A' for Active; 'I' for Inactive)
REMARK    1  A    between atoms: C_2  and  C_1 
REMARK    2  A    between atoms: C_5  and  C_1 
REMARK    3  A    between atoms: O_11  and  C_2 
REMARK    4  A    between atoms: C_13  and  C_3 
REMARK    5  A    between atoms: C_6  and  C_5 
REMARK    6  A    between atoms: C_23  and  O_11 
REMARK    7  A    between atoms: C_12  and  S_14 
REMARK    8  A    between atoms: S_14  and  C_18 
ROOT
ATOM      1  C   UNL d   1      52.734  34.309  53.552  0.00  0.00     0.134 C 
ATOM      2  C   UNL d   1      52.762  35.011  53.984  0.00  0.00     0.106 C 
ATOM      3  N   UNL d   1      52.787  35.716  54.413  0.00  0.00    -0.191 NA
ENDROOT
BRANCH   1   4
ATOM      4  C   UNL d   1      53.188  33.663  53.796  0.00  0.00     0.310 C 
ATOM      5  O   UNL d   1      53.149  33.401  54.578  0.00  0.00    -0.258 OA
BRANCH   4   6
ATOM      6  O   UNL d   1      53.685  33.276  53.259  0.00  0.00    -0.273 OA
BRANCH   6   7
ATOM      7  C   UNL d   1      54.247  32.747  53.530  0.00  0.00     0.103 C 
ATOM      8  C   UNL d   1      55.013  33.004  53.698  0.00  0.00     0.027 C 
ATOM      9  C   UNL d   1      54.048  31.952  53.637  0.00  0.00     0.027 C 
ENDBRANCH   6   7
ENDBRANCH   4   6
ENDBRANCH   1   4
BRANCH   1  10
ATOM     10  C   UNL d   1      52.261  34.247  52.886  0.00  0.00     0.040 C 
BRANCH  10  11
ATOM     11  C   UNL d   1      51.457  34.121  52.971  0.00  0.00     0.101 A 
ATOM     12  O   UNL d   1      50.961  34.600  52.524  0.00  0.00    -0.307 OA
ATOM     13  C   UNL d   1      50.184  34.388  52.687  0.00  0.00     0.100 A 
ATOM     14  C   UNL d   1      50.198  33.775  53.239  0.00  0.00     0.027 A 
ATOM     15  C   UNL d   1      50.971  33.607  53.417  0.00  0.00     0.027 A 
BRANCH  13  16
ATOM     16  C   UNL d   1      49.511  34.722  52.363  0.00  0.00     0.023 A 
ATOM     17  C   UNL d   1      49.167  35.217  52.937  0.00  0.00     0.003 A 
ATOM     18  C   UNL d   1      48.471  35.632  52.759  0.00  0.00     0.007 A 
ATOM     19  C   UNL d   1      48.121  35.555  52.018  0.00  0.00     0.034 A 
ATOM     20  C   UNL d   1      48.462  35.065  51.450  0.00  0.00     0.007 A 
ATOM     21  C   UNL d   1      49.155  34.647  51.618  0.00  0.00     0.003 A 
BRANCH  19  22
ATOM     22  S   UNL d   1      47.432  35.968  51.846  0.00  0.00    -0.028 SA
BRANCH  22  23
ATOM     23  C   UNL d   1      46.701  35.606  51.952  0.00  0.00     0.309 C 
ATOM     24  F   UNL d   1      46.329  35.637  52.688  0.00  0.00    -0.165 F 
ATOM     25  F   UNL d   1      46.340  35.213  51.324  0.00  0.00    -0.165 F 
ENDBRANCH  22  23
ENDBRANCH  19  22
ENDBRANCH  13  16
ENDBRANCH  10  11
ENDBRANCH   1  10
TORSDOF 8
ENDMDL
MODEL 3
REMARK VINA RESULT:      -8.2      2.541      3.888
REMARK  8 active torsions:
REMARK  status: ('A' for Active; 'I' for Inactive)
REMARK    1  A    between atoms: C_2  and  C_1 
REMARK    2  A    between atoms: C_5  and  C_1 
REMARK    3  A    between atoms: O_11  and  C_2 
REMARK    4  A    between atoms: C_13  and  C_3 
REMARK    5  A    between atoms: C_6  and  C_5 
REMARK    6  A    between atoms: C_23  and  O_11 
REMARK    7  A    between atoms: C_12  and  S_14 
REMARK    8  A    between atoms: S_14  and  C_18 
ROOT
ATOM      1  C   UNL d   1      48.950  34.908  52.457  0.00  0.00     0.134 C 
ATOM      2  C   UNL d   1      48.755  34.687  51.687  0.00  0.00     0.106 C 
ATOM      3  N   UNL d   1      48.563  34.461  50.917  0.00  0.00    -0.191 NA
ENDROOT
BRANCH   1   4
ATOM      4  C   UNL d   1      48.614  35.590  52.782  0.00  0.00     0.310 C 
ATOM      5  O   UNL d   1      48.685  36.313  52.391  0.00  0.00    -0.258 OA
BRANCH   4   6
ATOM      6  O   UNL d   1      48.205  35.551  53.500  0.00  0.00    -0.273 OA
BRANCH   6   7
ATOM      7  C   UNL d   1      47.762  36.191  53.753  0.00  0.00     0.103 C 
ATOM      8  C   UNL d   1      47.006  36.321  53.447  0.00  0.00     0.027 C 
ATOM      9  C   UNL d   1      48.071  36.709  54.317  0.00  0.00     0.027 C 
ENDBRANCH   6   7
ENDBRANCH   4   6
ENDBRANCH   1   4
BRANCH   1  10
ATOM     10  C   UNL d   1      49.474  34.459  52.901  0.00  0.00     0.040 C 
BRANCH  10  11
ATOM     11  C   UNL d   1      50.253  34.393  52.661  0.00  0.00     0.101 A 
ATOM     12  O   UNL d   1      50.804  34.225  53.247  0.00  0.00    -0.307 OA
ATOM     13  C   UNL d   1      51.546  34.181  52.896  0.00  0.00     0.100 A 
ATOM     14  C   UNL d   1      51.455  34.321  52.089  0.00  0.00     0.027 A 
ATOM     15  C   UNL d   1      50.668  34.451  51.938  0.00  0.00     0.027 A 
BRANCH  13  16
ATOM     16  C   UNL d   1      52.254  34.026  53.276  0.00  0.00     0.023 A 
ATOM     17  C   UNL d   1      52.427  33.218  53.179  0.00  0.00     0.003 A 
ATOM     18  C   UNL d   1      53.119  32.902  53.510  0.00  0.00     0.007 A 
ATOM     19  C   UNL d   1      53.634  33.385  53.932  0.00  0.00     0.034 A 
ATOM     20  C   UNL d   1      53.462  34.186  54.028  0.00  0.00     0.007 A 
ATOM     21  C   UNL d   1      52.775  34.510  53.702  0.00  0.00     0.003 A 
BRANCH  19  22
ATOM     22  S   UNL d   1      54.318  33.068  54.258  0.00  0.00    -0.028 SA
BRANCH  22  23
ATOM     23  C   UNL d   1      54.398  33.021  55.075  0.00  0.00     0.309 C 
ATOM     24  F   UNL d   1      54.003  32.431  55.495  0.00  0.00    -0.165 F 
ATOM     25  F   UNL d   1      54.873  33.563  55.476  0.00  0.00    -0.165 F 
ENDBRANCH  22  23
ENDBRANCH  19  22
ENDBRANCH  13  16
ENDBRANCH  10  11
ENDBRANCH   1  10
TORSDOF 8
ENDMDL
MODEL 4
REMARK VINA RESULT:      -8.2      3.208      5.060
REMARK  8 active torsions:
REMARK  status: ('A' for Active; 'I' for Inactive)
REMARK    1  A    between atoms: C_2  and  C_1 
REMARK    2  A    between atoms: C_5  and  C_1 
REMARK    3  A    between atoms: O_11  and  C_2 
REMARK    4  A    between atoms: C_13  and  C_3 
REMARK    5  A    between atoms: C_6  and  C_5 
REMARK    6  A    between atoms: C_23  and  O_11 
REMARK    7  A    between atoms: C_12  and  S_14 
REMARK    8  A    between atoms: S_14  and  C_18 
ROOT
ATOM      1  C   UNL d   1      53.933  32.565  53.926  0.00  0.00     0.134 C 
ATOM      2  C   UNL d   1      54.363  32.911  54.540  0.00  0.00     0.106 C 
ATOM      3  N   UNL d   1      54.793  33.261  55.151  0.00  0.00    -0.191 NA
ENDROOT
BRANCH   1   4
ATOM      4  C   UNL d   1      53.673  31.784  54.001  0.00  0.00     0.310 C 
ATOM      5  O   UNL d   1      53.341  31.525  54.711  0.00  0.00    -0.258 OA
BRANCH   4   6
ATOM      6  O   UNL d   1      53.745  31.259  53.367  0.00  0.00    -0.273 OA
BRANCH   6   7
ATOM      7  C   UNL d   1      53.475  30.490  53.440  0.00  0.00     0.103 C 
ATOM      8  C   UNL d   1      53.955  29.910  53.780  0.00  0.00     0.027 C 
ATOM      9  C   UNL d   1      52.718  30.292  53.174  0.00  0.00     0.027 C 
ENDBRANCH   6   7
ENDBRANCH   4   6
ENDBRANCH   1   4
BRANCH   1  10
ATOM     10  C   UNL d   1      53.762  32.989  53.246  0.00  0.00     0.040 C 
BRANCH  10  11
ATOM     11  C   UNL d   1      53.192  33.576  53.267  0.00  0.00     0.101 A 
ATOM     12  O   UNL d   1      52.519  33.449  52.814  0.00  0.00    -0.307 OA
ATOM     13  C   UNL d   1      52.020  34.096  52.910  0.00  0.00     0.100 A 
ATOM     14  C   UNL d   1      52.386  34.625  53.425  0.00  0.00     0.027 A 
ATOM     15  C   UNL d   1      53.102  34.315  53.647  0.00  0.00     0.027 A 
BRANCH  13  16
ATOM     16  C   UNL d   1      51.288  34.201  52.559  0.00  0.00     0.023 A 
ATOM     17  C   UNL d   1      50.720  34.273  53.163  0.00  0.00     0.003 A 
ATOM     18  C   UNL d   1      49.922  34.386  52.967  0.00  0.00     0.007 A 
ATOM     19  C   UNL d   1      49.692  34.425  52.178  0.00  0.00     0.034 A 
ATOM     20  C   UNL d   1      50.255  34.353  51.580  0.00  0.00     0.007 A 
ATOM     21  C   UNL d   1      51.052  34.241  51.765  0.00  0.00     0.003 A 
BRANCH  19  22
ATOM     22  S   UNL d   1      48.901  34.537  51.987  0.00  0.00    -0.028 SA
BRANCH  22  23
ATOM     23  C   UNL d   1      48.590  35.298  51.959  0.00  0.00     0.309 C 
ATOM     24  F   UNL d   1      48.419  35.701  52.658  0.00  0.00    -0.165 F 
ATOM     25  F   UNL d   1      48.449  35.659  51.231  0.00  0.00    -0.165 F 
ENDBRANCH  22  23
ENDBRANCH  19  22
ENDBRANCH  13  16
ENDBRANCH  10  11
ENDBRANCH   1  10
TORSDOF 8
ENDMDL
