MODEL 1
REMARK VINA RESULT:      -7.2      0.000      0.000
REMARK  5 active torsions:
REMARK  status: ('A' for Active; 'I' for Inactive)
REMARK    1  A    between atoms: C_2  and  S_1 
REMARK    2  A    between atoms: N_8  and  S_1 
REMARK    3  A    between atoms: C_3  and  C_14 
REMARK    4  A    between atoms: C_17  and  N_8 
REMARK    5  A    between atoms: C_23  and  C_11 
ROOT
ATOM      1  C   UNL d   1     -46.176  12.780  23.033  0.00  0.00     0.024 A 
ATOM      2  C   UNL d   1     -47.177  14.087  22.830  0.00  0.00     0.094 A 
ATOM      3  C   UNL d   1     -46.710  12.983  23.632  0.00  0.00     0.004 A 
ATOM      4  C   UNL d   1     -46.150  13.231  22.345  0.00  0.00     0.004 A 
ATOM      5  C   UNL d   1     -46.643  13.875  22.245  0.00  0.00     0.020 A 
ATOM      6  C   UNL d   1     -47.207  13.630  23.535  0.00  0.00     0.020 A 
ENDROOT
BRANCH   2   7
ATOM      7  N   UNL d   1     -47.671  14.729  22.734  0.00  0.00    -0.158 NA
BRANCH   7   8
ATOM      8  S   UNL d   1     -48.464  14.615  22.542  0.00  0.00     0.291 S 
ATOM      9  O   UNL d   1     -48.272  14.637  21.750  0.00  0.00    -0.198 OA
ATOM     10  O   UNL d   1     -48.656  14.593  23.335  0.00  0.00    -0.198 OA
BRANCH   8  11
ATOM     11  C   UNL d   1     -49.254  14.502  22.359  0.00  0.00     0.135 A 
ATOM     12  S   UNL d   1     -49.585  13.877  21.926  0.00  0.00    -0.074 SA
ATOM     13  C   UNL d   1     -50.400  13.989  21.879  0.00  0.00     0.030 A 
ATOM     14  C   UNL d   1     -50.576  14.689  22.286  0.00  0.00     0.008 A 
ATOM     15  C   UNL d   1     -49.885  15.008  22.582  0.00  0.00     0.020 A 
BRANCH  13  16
ATOM     16  C   UNL d   1     -50.930  13.503  21.502  0.00  0.00     0.006 C 
ATOM     17  C   UNL d   1     -50.932  12.689  21.668  0.00  0.00     0.001 C 
ENDBRANCH  13  16
ENDBRANCH   8  11
ENDBRANCH   7   8
ENDBRANCH   2   7
BRANCH   1  18
ATOM     18  C   UNL d   1     -45.678  12.130  23.134  0.00  0.00     0.112 A 
ATOM     19  S   UNL d   1     -45.899  11.405  23.449  0.00  0.00    -0.047 SA
ATOM     20  C   UNL d   1     -45.226  10.905  23.451  0.00  0.00     0.130 A 
ATOM     21  N   UNL d   1     -45.114  10.128  23.698  0.00  0.00    -0.236 NA
ATOM     22  C   UNL d   1     -44.592  11.342  23.132  0.00  0.00     0.106 A 
ATOM     23  C   UNL d   1     -44.365   9.783  23.625  0.00  0.00     0.100 A 
ATOM     24  C   UNL d   1     -43.732  10.213  23.308  0.00  0.00     0.022 A 
ATOM     25  C   UNL d   1     -43.847  10.989  23.063  0.00  0.00     0.023 A 
ATOM     26  N   UNL d   1     -44.875  12.102  22.935  0.00  0.00    -0.237 NA
ENDBRANCH   1  18
TORSDOF 5
ENDMDL
MODEL 2
REMARK VINA RESULT:      -5.9      8.180      9.962
REMARK  5 active torsions:
REMARK  status: ('A' for Active; 'I' for Inactive)
REMARK    1  A    between atoms: C_2  and  S_1 
REMARK    2  A    between atoms: N_8  and  S_1 
REMARK    3  A    between atoms: C_3  and  C_14 
REMARK    4  A    between atoms: C_17  and  N_8 
REMARK    5  A    between atoms: C_23  and  C_11 
ROOT
ATOM      1  C   UNL d   1     -39.417  14.934  18.042  0.00  0.00     0.024 A 
ATOM      2  C   UNL d   1     -40.111  15.071  19.543  0.00  0.00     0.094 A 
ATOM      3  C   UNL d   1     -39.217  15.572  18.529  0.00  0.00     0.004 A 
ATOM      4  C   UNL d   1     -39.960  14.376  18.311  0.00  0.00     0.004 A 
ATOM      5  C   UNL d   1     -40.301  14.443  19.051  0.00  0.00     0.020 A 
ATOM      6  C   UNL d   1     -39.558  15.643  19.273  0.00  0.00     0.020 A 
ENDROOT
BRANCH   2   7
ATOM      7  N   UNL d   1     -40.450  15.141  20.282  0.00  0.00    -0.158 NA
BRANCH   7   8
ATOM      8  S   UNL d   1     -40.035  14.900  20.952  0.00  0.00     0.291 S 
ATOM      9  O   UNL d   1     -40.305  14.138  20.839  0.00  0.00    -0.198 OA
ATOM     10  O   UNL d   1     -39.764  15.661  21.063  0.00  0.00    -0.198 OA
BRANCH   8  11
ATOM     11  C   UNL d   1     -39.620  14.666  21.618  0.00  0.00     0.135 A 
ATOM     12  S   UNL d   1     -39.446  13.891  21.856  0.00  0.00    -0.074 SA
ATOM     13  C   UNL d   1     -39.018  13.919  22.560  0.00  0.00     0.030 A 
ATOM     14  C   UNL d   1     -38.926  14.719  22.760  0.00  0.00     0.008 A 
ATOM     15  C   UNL d   1     -39.289  15.180  22.192  0.00  0.00     0.020 A 
BRANCH  13  16
ATOM     16  C   UNL d   1     -38.740  13.282  22.978  0.00  0.00     0.006 C 
ATOM     17  C   UNL d   1     -38.098  13.378  23.495  0.00  0.00     0.001 C 
ENDBRANCH  13  16
ENDBRANCH   8  11
ENDBRANCH   7   8
ENDBRANCH   2   7
BRANCH   1  18
ATOM     18  C   UNL d   1     -39.073  14.866  17.296  0.00  0.00     0.112 A 
ATOM     19  S   UNL d   1     -38.868  15.492  16.807  0.00  0.00    -0.047 SA
ATOM     20  C   UNL d   1     -38.535  15.177  16.104  0.00  0.00     0.130 A 
ATOM     21  N   UNL d   1     -38.235  15.533  15.426  0.00  0.00    -0.236 NA
ATOM     22  C   UNL d   1     -38.543  14.347  16.177  0.00  0.00     0.106 A 
ATOM     23  C   UNL d   1     -37.940  15.058  14.815  0.00  0.00     0.100 A 
ATOM     24  C   UNL d   1     -37.946  14.232  14.883  0.00  0.00     0.022 A 
ATOM     25  C   UNL d   1     -38.247  13.880  15.562  0.00  0.00     0.023 A 
ATOM     26  N   UNL d   1     -38.878  14.156  16.917  0.00  0.00    -0.237 NA
ENDBRANCH   1  18
TORSDOF 5
ENDMDL
MODEL 3
REMARK VINA RESULT:      -5.5      1.607      2.078
REMARK  5 active torsions:
REMARK  status: ('A' for Active; 'I' for Inactive)
REMARK    1  A    between atoms: C_2  and  S_1 
REMARK    2  A    between atoms: N_8  and  S_1 
REMARK    3  A    between atoms: C_3  and  C_14 
REMARK    4  A    between atoms: C_17  and  N_8 
REMARK    5  A    between atoms: C_23  and  C_11 
ROOT
ATOM      1  C   UNL d   1     -45.992  12.592  22.742  0.00  0.00     0.024 A 
ATOM      2  C   UNL d   1     -47.522  12.547  23.381  0.00  0.00     0.094 A 
ATOM      3  C   UNL d   1     -46.315  11.869  22.981  0.00  0.00     0.004 A 
ATOM      4  C   UNL d   1     -46.438  13.280  22.825  0.00  0.00     0.004 A 
ATOM      5  C   UNL d   1     -47.191  13.258  23.140  0.00  0.00     0.020 A 
ATOM      6  C   UNL d   1     -47.072  11.843  23.298  0.00  0.00     0.020 A 
ENDROOT
BRANCH   2   7
ATOM      7  N   UNL d   1     -48.275  12.522  23.696  0.00  0.00    -0.158 NA
BRANCH   7   8
ATOM      8  S   UNL d   1     -48.927  12.696  23.224  0.00  0.00     0.291 S 
ATOM      9  O   UNL d   1     -48.996  11.905  23.035  0.00  0.00    -0.198 OA
ATOM     10  O   UNL d   1     -48.857  13.486  23.413  0.00  0.00    -0.198 OA
BRANCH   8  11
ATOM     11  C   UNL d   1     -49.574  12.876  22.756  0.00  0.00     0.135 A 
ATOM     12  S   UNL d   1     -49.932  13.617  22.657  0.00  0.00    -0.074 SA
ATOM     13  C   UNL d   1     -50.565  13.539  22.135  0.00  0.00     0.030 A 
ATOM     14  C   UNL d   1     -50.600  12.742  21.909  0.00  0.00     0.008 A 
ATOM     15  C   UNL d   1     -50.000  12.331  22.282  0.00  0.00     0.020 A 
BRANCH  13  16
ATOM     16  C   UNL d   1     -51.061  14.133  21.890  0.00  0.00     0.006 C 
ATOM     17  C   UNL d   1     -50.934  14.498  21.156  0.00  0.00     0.001 C 
ENDBRANCH  13  16
ENDBRANCH   8  11
ENDBRANCH   7   8
ENDBRANCH   2   7
BRANCH   1  18
ATOM     18  C   UNL d   1     -45.231  12.614  22.424  0.00  0.00     0.112 A 
ATOM     19  S   UNL d   1     -44.633  12.075  22.583  0.00  0.00    -0.047 SA
ATOM     20  C   UNL d   1     -43.954  12.303  22.146  0.00  0.00     0.130 A 
ATOM     21  N   UNL d   1     -43.200  11.979  22.086  0.00  0.00    -0.236 NA
ATOM     22  C   UNL d   1     -44.153  12.990  21.719  0.00  0.00     0.106 A 
ATOM     23  C   UNL d   1     -42.640  12.342  21.596  0.00  0.00     0.100 A 
ATOM     24  C   UNL d   1     -42.834  13.026  21.169  0.00  0.00     0.022 A 
ATOM     25  C   UNL d   1     -43.588  13.347  21.232  0.00  0.00     0.023 A 
ATOM     26  N   UNL d   1     -44.947  13.182  21.893  0.00  0.00    -0.237 NA
ENDBRANCH   1  18
TORSDOF 5
ENDMDL
