MODEL 1
REMARK VINA RESULT:      -7.8      0.000      0.000
REMARK  3 active torsions:
REMARK  status: ('A' for Active; 'I' for Inactive)
REMARK    1  A    between atoms: C_6  and  C_1 
REMARK       I    between atoms: N_8  and  C_6 
REMARK    2  A    between atoms: C_16  and  N_8 
REMARK       I    between atoms: C_12  and  N_13 
REMARK    3  A    between atoms: N_13  and  C_17 
ROOT
ATOM      1  C   UNL d   1     -47.498  12.813  22.726  0.00  0.00     0.302 C 
ATOM      2  N   UNL d   1     -47.283  12.467  23.444  0.00  0.00    -0.206 NA
ATOM      3  O   UNL d   1     -47.074  12.643  22.045  0.00  0.00    -0.263 OA
ENDROOT
BRANCH   1   4
ATOM      4  C   UNL d   1     -48.139  13.331  22.696  0.00  0.00     0.158 A 
ATOM      5  O   UNL d   1     -48.306  13.935  23.241  0.00  0.00    -0.302 OA
ATOM      6  C   UNL d   1     -49.004  14.313  22.989  0.00  0.00     0.100 A 
ATOM      7  C   UNL d   1     -49.439  14.948  23.303  0.00  0.00     0.025 A 
ATOM      8  C   UNL d   1     -49.269  13.946  22.294  0.00  0.00     0.025 A 
ATOM      9  C   UNL d   1     -50.123  15.207  22.926  0.00  0.00     0.002 A 
ATOM     10  C   UNL d   1     -50.554  15.839  23.239  0.00  0.00     0.000 C 
ATOM     11  C   UNL d   1     -50.381  14.835  22.231  0.00  0.00     0.000 A 
ATOM     12  C   UNL d   1     -49.953  14.205  21.917  0.00  0.00     0.002 A 
ATOM     13  C   UNL d   1     -51.064  15.096  21.857  0.00  0.00     0.000 C 
ATOM     14  C   UNL d   1     -48.748  13.341  22.102  0.00  0.00     0.029 A 
ATOM     15  C   UNL d   1     -48.798  12.832  21.453  0.00  0.00     0.002 C 
ENDBRANCH   1   4
BRANCH   2  16
ATOM     16  C   UNL d   1     -46.642  11.948  23.478  0.00  0.00     0.085 A 
ATOM     17  C   UNL d   1     -45.884  12.233  23.322  0.00  0.00     0.021 A 
ATOM     18  C   UNL d   1     -45.248  11.717  23.355  0.00  0.00     0.021 A 
ATOM     19  C   UNL d   1     -45.361  10.917  23.544  0.00  0.00     0.085 A 
ATOM     20  C   UNL d   1     -46.123  10.641  23.698  0.00  0.00     0.021 A 
ATOM     21  C   UNL d   1     -46.767  11.156  23.665  0.00  0.00     0.021 A 
BRANCH  19  22
ATOM     22  N   UNL d   1     -44.718  10.402  23.576  0.00  0.00    -0.208 NA
ATOM     23  C   UNL d   1     -43.982  10.647  23.293  0.00  0.00     0.279 C 
ATOM     24  O   UNL d   1     -43.884  11.407  22.974  0.00  0.00    -0.265 OA
ATOM     25  C   UNL d   1     -43.334  10.137  23.322  0.00  0.00     0.068 C 
ENDBRANCH  19  22
ENDBRANCH   2  16
TORSDOF 3
ENDMDL
MODEL 2
REMARK VINA RESULT:      -7.7      1.190      5.594
REMARK  3 active torsions:
REMARK  status: ('A' for Active; 'I' for Inactive)
REMARK    1  A    between atoms: C_6  and  C_1 
REMARK       I    between atoms: N_8  and  C_6 
REMARK    2  A    between atoms: C_16  and  N_8 
REMARK       I    between atoms: C_12  and  N_13 
REMARK    3  A    between atoms: N_13  and  C_17 
ROOT
ATOM      1  C   UNL d   1     -47.072  12.620  23.213  0.00  0.00     0.302 C 
ATOM      2  N   UNL d   1     -47.764  12.335  22.864  0.00  0.00    -0.206 NA
ATOM      3  O   UNL d   1     -47.055  13.373  23.536  0.00  0.00    -0.263 OA
ENDROOT
BRANCH   1   4
ATOM      4  C   UNL d   1     -46.398  12.145  23.235  0.00  0.00     0.158 A 
ATOM      5  O   UNL d   1     -46.348  11.382  23.559  0.00  0.00    -0.302 OA
ATOM      6  C   UNL d   1     -45.564  11.118  23.458  0.00  0.00     0.100 A 
ATOM      7  C   UNL d   1     -45.183  10.410  23.665  0.00  0.00     0.025 A 
ATOM      8  C   UNL d   1     -45.132  11.712  23.074  0.00  0.00     0.025 A 
ATOM      9  C   UNL d   1     -44.387  10.303  23.491  0.00  0.00     0.002 A 
ATOM     10  C   UNL d   1     -44.009   9.597  23.698  0.00  0.00     0.000 C 
ATOM     11  C   UNL d   1     -43.961  10.901  23.106  0.00  0.00     0.000 A 
ATOM     12  C   UNL d   1     -44.335  11.605  22.898  0.00  0.00     0.002 A 
ATOM     13  C   UNL d   1     -43.165  10.791  22.933  0.00  0.00     0.000 C 
ATOM     14  C   UNL d   1     -45.630  12.349  22.930  0.00  0.00     0.029 A 
ATOM     15  C   UNL d   1     -45.432  13.061  22.559  0.00  0.00     0.002 C 
ENDBRANCH   1   4
BRANCH   2  16
ATOM     16  C   UNL d   1     -48.440  12.808  22.839  0.00  0.00     0.085 A 
ATOM     17  C   UNL d   1     -48.550  13.321  22.204  0.00  0.00     0.021 A 
ATOM     18  C   UNL d   1     -49.222  13.791  22.179  0.00  0.00     0.021 A 
ATOM     19  C   UNL d   1     -49.787  13.752  22.786  0.00  0.00     0.085 A 
ATOM     20  C   UNL d   1     -49.667  13.235  23.418  0.00  0.00     0.021 A 
ATOM     21  C   UNL d   1     -48.993  12.761  23.447  0.00  0.00     0.021 A 
BRANCH  19  22
ATOM     22  N   UNL d   1     -50.461  14.226  22.758  0.00  0.00    -0.208 NA
ATOM     23  C   UNL d   1     -50.394  15.041  22.875  0.00  0.00     0.279 C 
ATOM     24  O   UNL d   1     -49.654  15.387  23.020  0.00  0.00    -0.265 OA
ATOM     25  C   UNL d   1     -51.064  15.521  22.849  0.00  0.00     0.068 C 
ENDBRANCH  19  22
ENDBRANCH   2  16
TORSDOF 3
ENDMDL
MODEL 3
REMARK VINA RESULT:      -6.9      1.741      2.065
REMARK  3 active torsions:
REMARK  status: ('A' for Active; 'I' for Inactive)
REMARK    1  A    between atoms: C_6  and  C_1 
REMARK       I    between atoms: N_8  and  C_6 
REMARK    2  A    between atoms: C_16  and  N_8 
REMARK       I    between atoms: C_12  and  N_13 
REMARK    3  A    between atoms: N_13  and  C_17 
ROOT
ATOM      1  C   UNL d   1     -46.857  13.648  22.666  0.00  0.00     0.302 C 
ATOM      2  N   UNL d   1     -46.621  12.921  22.357  0.00  0.00    -0.206 NA
ATOM      3  O   UNL d   1     -46.300  14.231  22.818  0.00  0.00    -0.263 OA
ENDROOT
BRANCH   1   4
ATOM      4  C   UNL d   1     -47.655  13.788  22.822  0.00  0.00     0.158 A 
ATOM      5  O   UNL d   1     -48.203  13.232  23.105  0.00  0.00    -0.302 OA
ATOM      6  C   UNL d   1     -48.937  13.619  23.179  0.00  0.00     0.100 A 
ATOM      7  C   UNL d   1     -49.683  13.356  23.431  0.00  0.00     0.025 A 
ATOM      8  C   UNL d   1     -48.845  14.409  22.944  0.00  0.00     0.025 A 
ATOM      9  C   UNL d   1     -50.321  13.875  23.446  0.00  0.00     0.002 A 
ATOM     10  C   UNL d   1     -51.064  13.611  23.697  0.00  0.00     0.000 C 
ATOM     11  C   UNL d   1     -50.221  14.663  23.210  0.00  0.00     0.000 A 
ATOM     12  C   UNL d   1     -49.484  14.929  22.959  0.00  0.00     0.002 A 
ATOM     13  C   UNL d   1     -50.861  15.179  23.226  0.00  0.00     0.000 C 
ATOM     14  C   UNL d   1     -48.063  14.528  22.722  0.00  0.00     0.029 A 
ATOM     15  C   UNL d   1     -47.726  15.233  22.451  0.00  0.00     0.002 C 
ENDBRANCH   1   4
BRANCH   2  16
ATOM     16  C   UNL d   1     -45.823  12.777  22.200  0.00  0.00     0.085 A 
ATOM     17  C   UNL d   1     -45.361  12.403  22.771  0.00  0.00     0.021 A 
ATOM     18  C   UNL d   1     -44.568  12.261  22.614  0.00  0.00     0.021 A 
ATOM     19  C   UNL d   1     -44.233  12.489  21.891  0.00  0.00     0.085 A 
ATOM     20  C   UNL d   1     -44.704  12.864  21.326  0.00  0.00     0.021 A 
ATOM     21  C   UNL d   1     -45.501  13.009  21.478  0.00  0.00     0.021 A 
BRANCH  19  22
ATOM     22  N   UNL d   1     -43.436  12.344  21.737  0.00  0.00    -0.208 NA
ATOM     23  C   UNL d   1     -42.931  12.974  21.560  0.00  0.00     0.279 C 
ATOM     24  O   UNL d   1     -43.220  13.752  21.535  0.00  0.00    -0.265 OA
ATOM     25  C   UNL d   1     -42.133  12.837  21.405  0.00  0.00     0.068 C 
ENDBRANCH  19  22
ENDBRANCH   2  16
TORSDOF 3
ENDMDL
MODEL 4
REMARK VINA RESULT:      -6.7      2.001      2.394
REMARK  3 active torsions:
REMARK  status: ('A' for Active; 'I' for Inactive)
REMARK    1  A    between atoms: C_6  and  C_1 
REMARK       I    between atoms: N_8  and  C_6 
REMARK    2  A    between atoms: C_16  and  N_8 
REMARK       I    between atoms: C_12  and  N_13 
REMARK    3  A    between atoms: N_13  and  C_17 
ROOT
ATOM      1  C   UNL d   1     -46.780  12.927  22.931  0.00  0.00     0.302 C 
ATOM      2  N   UNL d   1     -46.427  12.892  22.186  0.00  0.00    -0.206 NA
ATOM      3  O   UNL d   1     -46.316  12.974  23.604  0.00  0.00    -0.263 OA
ENDROOT
BRANCH   1   4
ATOM      4  C   UNL d   1     -47.603  12.914  22.996  0.00  0.00     0.158 A 
ATOM      5  O   UNL d   1     -48.124  13.500  22.723  0.00  0.00    -0.302 OA
ATOM      6  C   UNL d   1     -48.898  13.253  22.908  0.00  0.00     0.100 A 
ATOM      7  C   UNL d   1     -49.641  13.600  22.777  0.00  0.00     0.025 A 
ATOM      8  C   UNL d   1     -48.856  12.519  23.293  0.00  0.00     0.025 A 
ATOM      9  C   UNL d   1     -50.325  13.219  23.027  0.00  0.00     0.002 A 
ATOM     10  C   UNL d   1     -51.064  13.566  22.896  0.00  0.00     0.000 C 
ATOM     11  C   UNL d   1     -50.276  12.486  23.411  0.00  0.00     0.000 A 
ATOM     12  C   UNL d   1     -49.542  12.137  23.543  0.00  0.00     0.002 A 
ATOM     13  C   UNL d   1     -50.962  12.107  23.659  0.00  0.00     0.000 C 
ATOM     14  C   UNL d   1     -48.068  12.298  23.354  0.00  0.00     0.029 A 
ATOM     15  C   UNL d   1     -47.772  11.607  23.698  0.00  0.00     0.002 C 
ENDBRANCH   1   4
BRANCH   2  16
ATOM     16  C   UNL d   1     -45.605  12.904  22.117  0.00  0.00     0.085 A 
ATOM     17  C   UNL d   1     -45.227  13.611  21.924  0.00  0.00     0.021 A 
ATOM     18  C   UNL d   1     -44.409  13.623  21.856  0.00  0.00     0.021 A 
ATOM     19  C   UNL d   1     -43.965  12.934  21.979  0.00  0.00     0.085 A 
ATOM     20  C   UNL d   1     -44.352  12.231  22.172  0.00  0.00     0.021 A 
ATOM     21  C   UNL d   1     -45.174  12.213  22.242  0.00  0.00     0.021 A 
BRANCH  19  22
ATOM     22  N   UNL d   1     -43.144  12.950  21.910  0.00  0.00    -0.208 NA
ATOM     23  C   UNL d   1     -42.795  12.914  21.162  0.00  0.00     0.279 C 
ATOM     24  O   UNL d   1     -43.264  12.863  20.479  0.00  0.00    -0.265 OA
ATOM     25  C   UNL d   1     -41.974  12.930  21.084  0.00  0.00     0.068 C 
ENDBRANCH  19  22
ENDBRANCH   2  16
TORSDOF 3
ENDMDL
MODEL 5
REMARK VINA RESULT:      -5.9      2.480      3.191
REMARK  3 active torsions:
REMARK  status: ('A' for Active; 'I' for Inactive)
REMARK    1  A    between atoms: C_6  and  C_1 
REMARK       I    between atoms: N_8  and  C_6 
REMARK    2  A    between atoms: C_16  and  N_8 
REMARK       I    between atoms: C_12  and  N_13 
REMARK    3  A    between atoms: N_13  and  C_17 
ROOT
ATOM      1  C   UNL d   1     -45.611  13.029  22.510  0.00  0.00     0.302 C 
ATOM      2  N   UNL d   1     -45.221  12.499  22.012  0.00  0.00    -0.206 NA
ATOM      3  O   UNL d   1     -45.219  13.689  22.796  0.00  0.00    -0.263 OA
ENDROOT
BRANCH   1   4
ATOM      4  C   UNL d   1     -46.398  12.892  22.718  0.00  0.00     0.158 A 
ATOM      5  O   UNL d   1     -46.727  12.162  22.936  0.00  0.00    -0.302 OA
ATOM      6  C   UNL d   1     -47.534  12.289  23.098  0.00  0.00     0.100 A 
ATOM      7  C   UNL d   1     -48.142  11.777  23.339  0.00  0.00     0.025 A 
ATOM      8  C   UNL d   1     -47.704  13.092  22.981  0.00  0.00     0.025 A 
ATOM      9  C   UNL d   1     -48.903  12.065  23.459  0.00  0.00     0.002 A 
ATOM     10  C   UNL d   1     -49.507  11.554  23.698  0.00  0.00     0.000 C 
ATOM     11  C   UNL d   1     -49.065  12.869  23.339  0.00  0.00     0.000 A 
ATOM     12  C   UNL d   1     -48.466  13.381  23.101  0.00  0.00     0.002 A 
ATOM     13  C   UNL d   1     -49.827  13.155  23.460  0.00  0.00     0.000 C 
ATOM     14  C   UNL d   1     -47.017  13.476  22.748  0.00  0.00     0.029 A 
ATOM     15  C   UNL d   1     -46.933  14.279  22.572  0.00  0.00     0.002 C 
ENDBRANCH   1   4
BRANCH   2  16
ATOM     16  C   UNL d   1     -44.435  12.632  21.801  0.00  0.00     0.085 A 
ATOM     17  C   UNL d   1     -44.265  13.137  21.172  0.00  0.00     0.021 A 
ATOM     18  C   UNL d   1     -43.484  13.269  20.963  0.00  0.00     0.021 A 
ATOM     19  C   UNL d   1     -42.867  12.900  21.377  0.00  0.00     0.085 A 
ATOM     20  C   UNL d   1     -43.046  12.396  22.006  0.00  0.00     0.021 A 
ATOM     21  C   UNL d   1     -43.831  12.260  22.220  0.00  0.00     0.021 A 
BRANCH  19  22
ATOM     22  N   UNL d   1     -42.083  13.036  21.164  0.00  0.00    -0.208 NA
ATOM     23  C   UNL d   1     -41.778  13.803  21.186  0.00  0.00     0.279 C 
ATOM     24  O   UNL d   1     -42.256  14.440  21.421  0.00  0.00    -0.265 OA
ATOM     25  C   UNL d   1     -40.994  13.947  20.974  0.00  0.00     0.068 C 
ENDBRANCH  19  22
ENDBRANCH   2  16
TORSDOF 3
ENDMDL
MODEL 6
REMARK VINA RESULT:      -5.3      8.455      9.788
REMARK  3 active torsions:
REMARK  status: ('A' for Active; 'I' for Inactive)
REMARK    1  A    between atoms: C_6  and  C_1 
REMARK       I    between atoms: N_8  and  C_6 
REMARK    2  A    between atoms: C_16  and  N_8 
REMARK       I    between atoms: C_12  and  N_13 
REMARK    3  A    between atoms: N_13  and  C_17 
ROOT
ATOM      1  C   UNL d   1     -40.054  14.888  19.855  0.00  0.00     0.302 C 
ATOM      2  N   UNL d   1     -39.617  15.208  19.232  0.00  0.00    -0.206 NA
ATOM      3  O   UNL d   1     -40.840  14.687  19.746  0.00  0.00    -0.263 OA
ENDROOT
BRANCH   1   4
ATOM      4  C   UNL d   1     -39.695  14.772  20.590  0.00  0.00     0.158 A 
ATOM      5  O   UNL d   1     -39.346  15.358  21.062  0.00  0.00    -0.302 OA
ATOM      6  C   UNL d   1     -39.058  14.987  21.750  0.00  0.00     0.100 A 
ATOM      7  C   UNL d   1     -38.660  15.281  22.417  0.00  0.00     0.025 A 
ATOM      8  C   UNL d   1     -39.227  14.177  21.704  0.00  0.00     0.025 A 
ATOM      9  C   UNL d   1     -38.438  14.772  23.024  0.00  0.00     0.002 A 
ATOM     10  C   UNL d   1     -38.043  15.066  23.688  0.00  0.00     0.000 C 
ATOM     11  C   UNL d   1     -38.611  13.962  22.971  0.00  0.00     0.000 A 
ATOM     12  C   UNL d   1     -39.004  13.666  22.311  0.00  0.00     0.002 A 
ATOM     13  C   UNL d   1     -38.388  13.456  23.579  0.00  0.00     0.000 C 
ATOM     14  C   UNL d   1     -39.618  14.029  20.998  0.00  0.00     0.029 A 
ATOM     15  C   UNL d   1     -39.890  13.297  20.725  0.00  0.00     0.002 C 
ENDBRANCH   1   4
BRANCH   2  16
ATOM     16  C   UNL d   1     -39.972  15.325  18.497  0.00  0.00     0.085 A 
ATOM     17  C   UNL d   1     -39.653  14.957  17.832  0.00  0.00     0.021 A 
ATOM     18  C   UNL d   1     -40.006  15.074  17.100  0.00  0.00     0.021 A 
ATOM     19  C   UNL d   1     -40.677  15.557  17.027  0.00  0.00     0.085 A 
ATOM     20  C   UNL d   1     -40.989  15.922  17.699  0.00  0.00     0.021 A 
ATOM     21  C   UNL d   1     -40.637  15.807  18.436  0.00  0.00     0.021 A 
BRANCH  19  22
ATOM     22  N   UNL d   1     -41.028  15.673  16.291  0.00  0.00    -0.208 NA
ATOM     23  C   UNL d   1     -41.850  15.731  16.234  0.00  0.00     0.279 C 
ATOM     24  O   UNL d   1     -42.325  15.675  16.912  0.00  0.00    -0.265 OA
ATOM     25  C   UNL d   1     -42.209  15.846  15.500  0.00  0.00     0.068 C 
ENDBRANCH  19  22
ENDBRANCH   2  16
TORSDOF 3
ENDMDL
MODEL 7
REMARK VINA RESULT:      -5.2      8.853     10.668
REMARK  3 active torsions:
REMARK  status: ('A' for Active; 'I' for Inactive)
REMARK    1  A    between atoms: C_6  and  C_1 
REMARK       I    between atoms: N_8  and  C_6 
REMARK    2  A    between atoms: C_16  and  N_8 
REMARK       I    between atoms: C_12  and  N_13 
REMARK    3  A    between atoms: N_13  and  C_17 
ROOT
ATOM      1  C   UNL d   1     -39.200  14.769  17.837  0.00  0.00     0.302 C 
ATOM      2  N   UNL d   1     -38.488  14.965  17.469  0.00  0.00    -0.206 NA
ATOM      3  O   UNL d   1     -39.787  14.381  17.417  0.00  0.00    -0.263 OA
ENDROOT
BRANCH   1   4
ATOM      4  C   UNL d   1     -39.320  14.965  18.629  0.00  0.00     0.158 A 
ATOM      5  O   UNL d   1     -38.742  14.967  19.226  0.00  0.00    -0.302 OA
ATOM      6  C   UNL d   1     -39.113  15.199  19.934  0.00  0.00     0.100 A 
ATOM      7  C   UNL d   1     -38.826  15.302  20.706  0.00  0.00     0.025 A 
ATOM      8  C   UNL d   1     -39.915  15.340  19.778  0.00  0.00     0.025 A 
ATOM      9  C   UNL d   1     -39.334  15.541  21.308  0.00  0.00     0.002 A 
ATOM     10  C   UNL d   1     -39.046  15.643  22.077  0.00  0.00     0.000 C 
ATOM     11  C   UNL d   1     -40.134  15.681  21.145  0.00  0.00     0.000 A 
ATOM     12  C   UNL d   1     -40.424  15.580  20.381  0.00  0.00     0.002 A 
ATOM     13  C   UNL d   1     -40.639  15.920  21.748  0.00  0.00     0.000 C 
ATOM     14  C   UNL d   1     -40.057  15.201  18.982  0.00  0.00     0.029 A 
ATOM     15  C   UNL d   1     -40.780  15.273  18.587  0.00  0.00     0.002 C 
ENDBRANCH   1   4
BRANCH   2  16
ATOM     16  C   UNL d   1     -38.365  14.771  16.676  0.00  0.00     0.085 A 
ATOM     17  C   UNL d   1     -38.491  15.343  16.097  0.00  0.00     0.021 A 
ATOM     18  C   UNL d   1     -38.369  15.150  15.309  0.00  0.00     0.021 A 
ATOM     19  C   UNL d   1     -38.121  14.388  15.094  0.00  0.00     0.085 A 
ATOM     20  C   UNL d   1     -37.997  13.822  15.682  0.00  0.00     0.021 A 
ATOM     21  C   UNL d   1     -38.119  14.011  16.475  0.00  0.00     0.021 A 
BRANCH  19  22
ATOM     22  N   UNL d   1     -37.999  14.198  14.302  0.00  0.00    -0.208 NA
ATOM     23  C   UNL d   1     -38.060  13.413  14.054  0.00  0.00     0.279 C 
ATOM     24  O   UNL d   1     -38.243  12.812  14.598  0.00  0.00    -0.265 OA
ATOM     25  C   UNL d   1     -37.940  13.215  13.263  0.00  0.00     0.068 C 
ENDBRANCH  19  22
ENDBRANCH   2  16
TORSDOF 3
ENDMDL
MODEL 8
REMARK VINA RESULT:      -4.9      4.170      5.597
REMARK  3 active torsions:
REMARK  status: ('A' for Active; 'I' for Inactive)
REMARK    1  A    between atoms: C_6  and  C_1 
REMARK       I    between atoms: N_8  and  C_6 
REMARK    2  A    between atoms: C_16  and  N_8 
REMARK       I    between atoms: C_12  and  N_13 
REMARK    3  A    between atoms: N_13  and  C_17 
ROOT
ATOM      1  C   UNL d   1     -43.046  13.128  21.338  0.00  0.00     0.302 C 
ATOM      2  N   UNL d   1     -42.637  13.838  21.434  0.00  0.00    -0.206 NA
ATOM      3  O   UNL d   1     -42.723  12.526  20.885  0.00  0.00    -0.263 OA
ENDROOT
BRANCH   1   4
ATOM      4  C   UNL d   1     -43.780  13.025  21.700  0.00  0.00     0.158 A 
ATOM      5  O   UNL d   1     -44.418  13.554  21.671  0.00  0.00    -0.302 OA
ATOM      6  C   UNL d   1     -45.041  13.222  22.114  0.00  0.00     0.100 A 
ATOM      7  C   UNL d   1     -45.808  13.488  22.285  0.00  0.00     0.025 A 
ATOM      8  C   UNL d   1     -44.790  12.491  22.415  0.00  0.00     0.025 A 
ATOM      9  C   UNL d   1     -46.312  13.031  22.748  0.00  0.00     0.002 A 
ATOM     10  C   UNL d   1     -47.076  13.298  22.917  0.00  0.00     0.000 C 
ATOM     11  C   UNL d   1     -46.054  12.301  23.045  0.00  0.00     0.000 A 
ATOM     12  C   UNL d   1     -45.294  12.033  22.879  0.00  0.00     0.002 A 
ATOM     13  C   UNL d   1     -46.559  11.846  23.507  0.00  0.00     0.000 C 
ATOM     14  C   UNL d   1     -44.018  12.356  22.170  0.00  0.00     0.029 A 
ATOM     15  C   UNL d   1     -43.551  11.696  22.342  0.00  0.00     0.002 C 
ENDBRANCH   1   4
BRANCH   2  16
ATOM     16  C   UNL d   1     -41.903  13.945  21.074  0.00  0.00     0.085 A 
ATOM     17  C   UNL d   1     -41.219  13.915  21.534  0.00  0.00     0.021 A 
ATOM     18  C   UNL d   1     -40.489  14.020  21.176  0.00  0.00     0.021 A 
ATOM     19  C   UNL d   1     -40.435  14.157  20.360  0.00  0.00     0.085 A 
ATOM     20  C   UNL d   1     -41.125  14.185  19.907  0.00  0.00     0.021 A 
ATOM     21  C   UNL d   1     -41.861  14.079  20.263  0.00  0.00     0.021 A 
BRANCH  19  22
ATOM     22  N   UNL d   1     -39.700  14.263  20.003  0.00  0.00    -0.208 NA
ATOM     23  C   UNL d   1     -39.396  15.025  19.909  0.00  0.00     0.279 C 
ATOM     24  O   UNL d   1     -39.825  15.686  20.170  0.00  0.00    -0.265 OA
ATOM     25  C   UNL d   1     -38.660  15.139  19.553  0.00  0.00     0.068 C 
ENDBRANCH  19  22
ENDBRANCH   2  16
TORSDOF 3
ENDMDL
