MODEL 1
REMARK VINA RESULT:      62.4      0.000      0.000
REMARK  4 active torsions:
REMARK  status: ('A' for Active; 'I' for Inactive)
REMARK    1  A    between atoms: N_9  and  C_3 
REMARK    2  A    between atoms: C_11  and  C_4 
REMARK    3  A    between atoms: C_15  and  C_10 
REMARK    4  A    between atoms: C_20  and  C_15 
ROOT
ATOM      1  N   UNL d   1     -57.454 -98.950 -45.492  0.00  0.00    -0.196 N 
ATOM      2  C   UNL d   1     -57.043 -98.982 -44.763  0.00  0.00     0.167 A 
ATOM      3  C   UNL d   1     -58.254 -98.856 -45.479  0.00  0.00     0.153 A 
ATOM      4  C   UNL d   1     -56.240 -99.076 -44.752  0.00  0.00     0.057 A 
ATOM      5  N   UNL d   1     -56.227 -99.108 -46.175  0.00  0.00    -0.161 NA
ATOM      6  N   UNL d   1     -57.456 -98.918 -44.061  0.00  0.00    -0.227 NA
ATOM      7  C   UNL d   1     -58.679 -98.790 -44.781  0.00  0.00     0.057 A 
ATOM      8  C   UNL d   1     -55.823 -99.140 -45.456  0.00  0.00     0.124 A 
ATOM      9  C   UNL d   1     -58.275 -98.822 -44.062  0.00  0.00     0.086 A 
ENDROOT
BRANCH   3  10
ATOM     10  N   UNL d   1     -58.672 -98.823 -46.221  0.00  0.00    -0.285 N 
ATOM     11  C   UNL d   1     -58.240 -98.796 -46.958  0.00  0.00     0.108 A 
ATOM     12  C   UNL d   1     -58.660 -98.764 -47.688  0.00  0.00     0.142 A 
ATOM     13  O   UNL d   1     -59.513 -98.758 -47.698  0.00  0.00    -0.300 OA
ATOM     14  C   UNL d   1     -59.930 -98.785 -46.959  0.00  0.00     0.142 A 
ATOM     15  C   UNL d   1     -59.518 -98.817 -46.226  0.00  0.00     0.108 A 
ENDBRANCH   3  10
BRANCH   9  16
ATOM     16  C   UNL d   1     -58.703 -98.756 -43.327  0.00  0.00     0.019 C 
BRANCH  16  17
ATOM     17  C   UNL d   1     -59.547 -98.827 -43.312  0.00  0.00     0.002 C 
ATOM     18  C   UNL d   1     -59.945 -99.201 -42.661  0.00  0.00     0.000 C 
ENDBRANCH  16  17
ENDBRANCH   9  16
BRANCH   4  19
ATOM     19  C   UNL d   1     -55.845 -99.106 -44.024  0.00  0.00     0.004 A 
ATOM     20  C   UNL d   1     -55.130 -99.502 -43.983  0.00  0.00     0.000 A 
ATOM     21  C   UNL d   1     -54.728 -99.539 -43.264  0.00  0.00     0.000 A 
ATOM     22  C   UNL d   1     -55.048 -99.179 -42.600  0.00  0.00     0.000 A 
ATOM     23  C   UNL d   1     -55.752 -98.792 -42.652  0.00  0.00     0.000 A 
ATOM     24  C   UNL d   1     -56.155 -98.755 -43.372  0.00  0.00     0.000 A 
ENDBRANCH   4  19
TORSDOF 4
ENDMDL
