MODEL 1
REMARK VINA RESULT:      -4.9      0.000      0.000
REMARK  3 active torsions:
REMARK  status: ('A' for Active; 'I' for Inactive)
REMARK    1  A    between atoms: N_2  and  S_1 
REMARK    2  A    between atoms: C_3  and  S_1 
REMARK    3  A    between atoms: C_5  and  N_4 
ROOT
ATOM      1  N   UNL d   1     -41.849-122.835 -51.123  0.00  0.00    -0.226 N 
ATOM      2  N   UNL d   1     -41.869-122.516 -52.733  0.00  0.00    -0.301 N 
ATOM      3  C   UNL d   1     -42.132-123.399 -51.651  0.00  0.00     0.111 A 
ATOM      4  C   UNL d   1     -41.576-122.111 -51.403  0.00  0.00     0.111 A 
ATOM      5  C   UNL d   1     -42.142-123.238 -52.460  0.00  0.00     0.100 A 
ATOM      6  C   UNL d   1     -41.586-121.951 -52.212  0.00  0.00     0.100 A 
ENDROOT
BRANCH   1   7
ATOM      7  S   UNL d   1     -41.839-122.995 -50.314  0.00  0.00     0.271 S 
ATOM      8  O   UNL d   1     -41.302-123.608 -50.441  0.00  0.00    -0.200 OA
ATOM      9  O   UNL d   1     -42.376-122.382 -50.186  0.00  0.00    -0.200 OA
BRANCH   7  10
ATOM     10  C   UNL d   1     -41.829-123.155 -49.504  0.00  0.00     0.104 A 
ATOM     11  C   UNL d   1     -42.515-123.403 -49.124  0.00  0.00     0.015 A 
ATOM     12  C   UNL d   1     -42.505-123.563 -48.315  0.00  0.00     0.028 A 
ATOM     13  C   UNL d   1     -43.197-123.812 -47.935  0.00  0.00     0.002 C 
ATOM     14  C   UNL d   1     -41.809-123.475 -47.886  0.00  0.00     0.140 A 
ATOM     15  C   UNL d   1     -41.123-123.227 -48.265  0.00  0.00     0.030 A 
ATOM     16  F   UNL d   1     -41.799-123.635 -47.077  0.00  0.00    -0.204 F 
ATOM     17  C   UNL d   1     -41.133-123.067 -49.075  0.00  0.00     0.015 A 
ENDBRANCH   7  10
ENDBRANCH   1   7
BRANCH   2  18
ATOM     18  C   UNL d   1     -41.879-122.356 -53.542  0.00  0.00     0.064 A 
ATOM     19  C   UNL d   1     -41.508-122.868 -54.069  0.00  0.00     0.016 A 
ATOM     20  C   UNL d   1     -41.518-122.708 -54.878  0.00  0.00     0.001 A 
ATOM     21  C   UNL d   1     -41.123-123.544 -53.786  0.00  0.00     0.002 C 
ATOM     22  C   UNL d   1     -41.899-122.036 -55.161  0.00  0.00     0.000 A 
ATOM     23  C   UNL d   1     -42.271-121.524 -54.634  0.00  0.00     0.002 A 
ATOM     24  C   UNL d   1     -41.909-121.876 -55.970  0.00  0.00     0.000 C 
ATOM     25  C   UNL d   1     -42.261-121.684 -53.825  0.00  0.00     0.018 A 
ENDBRANCH   2  18
TORSDOF 3
ENDMDL
