MODEL 1
REMARK VINA RESULT:      -7.0      0.000      0.000
REMARK  2 active torsions:
REMARK  status: ('A' for Active; 'I' for Inactive)
REMARK    1  A    between atoms: C_12  and  C_9 
REMARK    2  A    between atoms: N_15  and  C_12 
ROOT
ATOM      1  C   UNL d   1     -47.990  12.792  23.298  0.00  0.00     0.176 A 
ATOM      2  C   UNL d   1     -47.203  13.041  23.283  0.00  0.00     0.174 A 
ATOM      3  N   UNL d   1     -48.169  11.983  23.438  0.00  0.00    -0.240 N 
ATOM      4  N   UNL d   1     -46.772  11.693  23.544  0.00  0.00    -0.223 N 
ATOM      5  C   UNL d   1     -47.571  11.440  23.559  0.00  0.00     0.343 A 
ATOM      6  C   UNL d   1     -46.583  12.484  23.408  0.00  0.00     0.289 A 
ATOM      7  N   UNL d   1     -48.604  13.320  23.179  0.00  0.00    -0.206 NA
ATOM      8  N   UNL d   1     -47.635  14.380  23.024  0.00  0.00    -0.217 NA
ATOM      9  C   UNL d   1     -48.430  14.116  23.041  0.00  0.00     0.182 A 
ATOM     10  O   UNL d   1     -47.748  10.640  23.698  0.00  0.00    -0.245 OA
ATOM     11  O   UNL d   1     -45.793  12.733  23.393  0.00  0.00    -0.265 OA
ATOM     12  C   UNL d   1     -48.963  11.732  23.453  0.00  0.00     0.105 C 
ATOM     13  C   UNL d   1     -46.131  11.111  23.675  0.00  0.00     0.107 C 
ENDROOT
BRANCH   9  14
ATOM     14  C   UNL d   1     -49.154  14.476  22.948  0.00  0.00     0.120 C 
BRANCH  14  15
ATOM     15  N   UNL d   1     -49.400  15.235  22.890  0.00  0.00    -0.297 N 
ATOM     16  C   UNL d   1     -49.264  15.657  22.216  0.00  0.00     0.100 C 
ATOM     17  C   UNL d   1     -49.785  15.578  23.509  0.00  0.00     0.100 C 
ENDBRANCH  14  15
ENDBRANCH   9  14
TORSDOF 2
ENDMDL
MODEL 2
REMARK VINA RESULT:      -6.4      1.425      1.961
REMARK  2 active torsions:
REMARK  status: ('A' for Active; 'I' for Inactive)
REMARK    1  A    between atoms: C_12  and  C_9 
REMARK    2  A    between atoms: N_15  and  C_12 
ROOT
ATOM      1  C   UNL d   1     -47.809  12.965  23.190  0.00  0.00     0.176 A 
ATOM      2  C   UNL d   1     -47.613  13.721  22.925  0.00  0.00     0.174 A 
ATOM      3  N   UNL d   1     -47.200  12.405  23.340  0.00  0.00    -0.240 N 
ATOM      4  N   UNL d   1     -46.218  13.371  22.957  0.00  0.00    -0.223 N 
ATOM      5  C   UNL d   1     -46.417  12.603  23.226  0.00  0.00     0.343 A 
ATOM      6  C   UNL d   1     -46.805  13.929  22.806  0.00  0.00     0.289 A 
ATOM      7  N   UNL d   1     -48.589  12.745  23.310  0.00  0.00    -0.206 NA
ATOM      8  N   UNL d   1     -49.001  14.066  22.894  0.00  0.00    -0.217 NA
ATOM      9  C   UNL d   1     -49.188  13.294  23.163  0.00  0.00     0.182 A 
ATOM     10  O   UNL d   1     -45.814  12.049  23.375  0.00  0.00    -0.245 OA
ATOM     11  O   UNL d   1     -46.608  14.689  22.540  0.00  0.00    -0.265 OA
ATOM     12  C   UNL d   1     -47.398  11.641  23.607  0.00  0.00     0.105 C 
ATOM     13  C   UNL d   1     -45.376  13.584  22.836  0.00  0.00     0.107 C 
ENDROOT
BRANCH   9  14
ATOM     14  C   UNL d   1     -49.879  12.901  23.336  0.00  0.00     0.120 C 
BRANCH  14  15
ATOM     15  N   UNL d   1     -50.656  13.050  23.211  0.00  0.00    -0.297 N 
ATOM     16  C   UNL d   1     -51.059  13.551  23.698  0.00  0.00     0.100 C 
ATOM     17  C   UNL d   1     -51.035  12.696  22.595  0.00  0.00     0.100 C 
ENDBRANCH  14  15
ENDBRANCH   9  14
TORSDOF 2
ENDMDL
MODEL 3
REMARK VINA RESULT:      -6.3      1.821      2.959
REMARK  2 active torsions:
REMARK  status: ('A' for Active; 'I' for Inactive)
REMARK    1  A    between atoms: C_12  and  C_9 
REMARK    2  A    between atoms: N_15  and  C_12 
ROOT
ATOM      1  C   UNL d   1     -48.552  12.643  23.172  0.00  0.00     0.176 A 
ATOM      2  C   UNL d   1     -49.060  13.258  22.959  0.00  0.00     0.174 A 
ATOM      3  N   UNL d   1     -48.871  11.906  23.420  0.00  0.00    -0.240 N 
ATOM      4  N   UNL d   1     -50.194  12.417  23.236  0.00  0.00    -0.223 N 
ATOM      5  C   UNL d   1     -49.679  11.793  23.452  0.00  0.00     0.343 A 
ATOM      6  C   UNL d   1     -49.894  13.145  22.991  0.00  0.00     0.289 A 
ATOM      7  N   UNL d   1     -47.739  12.736  23.147  0.00  0.00    -0.206 NA
ATOM      8  N   UNL d   1     -47.929  14.091  22.684  0.00  0.00    -0.217 NA
ATOM      9  C   UNL d   1     -47.424  13.460  22.903  0.00  0.00     0.182 A 
ATOM     10  O   UNL d   1     -49.994  11.064  23.698  0.00  0.00    -0.245 OA
ATOM     11  O   UNL d   1     -50.404  13.762  22.776  0.00  0.00    -0.265 OA
ATOM     12  C   UNL d   1     -48.359  11.286  23.636  0.00  0.00     0.105 C 
ATOM     13  C   UNL d   1     -51.061  12.295  23.270  0.00  0.00     0.107 C 
ENDROOT
BRANCH   9  14
ATOM     14  C   UNL d   1     -46.617  13.361  22.943  0.00  0.00     0.120 C 
BRANCH  14  15
ATOM     15  N   UNL d   1     -45.990  13.726  22.606  0.00  0.00    -0.297 N 
ATOM     16  C   UNL d   1     -45.450  13.300  22.183  0.00  0.00     0.100 C 
ATOM     17  C   UNL d   1     -45.899  14.522  22.688  0.00  0.00     0.100 C 
ENDBRANCH  14  15
ENDBRANCH   9  14
TORSDOF 2
ENDMDL
MODEL 4
REMARK VINA RESULT:      -6.2      0.720      1.619
REMARK  2 active torsions:
REMARK  status: ('A' for Active; 'I' for Inactive)
REMARK    1  A    between atoms: C_12  and  C_9 
REMARK    2  A    between atoms: N_15  and  C_12 
ROOT
ATOM      1  C   UNL d   1     -47.813  13.147  23.138  0.00  0.00     0.176 A 
ATOM      2  C   UNL d   1     -48.208  12.446  23.321  0.00  0.00     0.174 A 
ATOM      3  N   UNL d   1     -46.973  13.165  23.139  0.00  0.00    -0.240 N 
ATOM      4  N   UNL d   1     -46.945  11.782  23.505  0.00  0.00    -0.223 N 
ATOM      5  C   UNL d   1     -46.544  12.494  23.319  0.00  0.00     0.343 A 
ATOM      6  C   UNL d   1     -47.769  11.752  23.507  0.00  0.00     0.289 A 
ATOM      7  N   UNL d   1     -48.225  13.831  22.954  0.00  0.00    -0.206 NA
ATOM      8  N   UNL d   1     -49.463  13.110  23.137  0.00  0.00    -0.217 NA
ATOM      9  C   UNL d   1     -49.050  13.816  22.953  0.00  0.00     0.182 A 
ATOM     10  O   UNL d   1     -45.713  12.511  23.320  0.00  0.00    -0.245 OA
ATOM     11  O   UNL d   1     -48.165  11.047  23.691  0.00  0.00    -0.265 OA
ATOM     12  C   UNL d   1     -46.574  13.872  22.954  0.00  0.00     0.105 C 
ATOM     13  C   UNL d   1     -46.484  11.063  23.698  0.00  0.00     0.107 C 
ENDROOT
BRANCH   9  14
ATOM     14  C   UNL d   1     -49.274  14.572  22.751  0.00  0.00     0.120 C 
BRANCH  14  15
ATOM     15  N   UNL d   1     -49.967  14.972  22.757  0.00  0.00    -0.297 N 
ATOM     16  C   UNL d   1     -50.536  14.809  22.209  0.00  0.00     0.100 C 
ATOM     17  C   UNL d   1     -50.094  15.541  23.313  0.00  0.00     0.100 C 
ENDBRANCH  14  15
ENDBRANCH   9  14
TORSDOF 2
ENDMDL
MODEL 5
REMARK VINA RESULT:      -5.5      1.683      3.522
REMARK  2 active torsions:
REMARK  status: ('A' for Active; 'I' for Inactive)
REMARK    1  A    between atoms: C_12  and  C_9 
REMARK    2  A    between atoms: N_15  and  C_12 
ROOT
ATOM      1  C   UNL d   1     -48.803  12.995  22.959  0.00  0.00     0.176 A 
ATOM      2  C   UNL d   1     -48.650  13.806  22.974  0.00  0.00     0.174 A 
ATOM      3  N   UNL d   1     -49.582  12.721  22.802  0.00  0.00    -0.240 N 
ATOM      4  N   UNL d   1     -50.033  14.072  22.680  0.00  0.00    -0.223 N 
ATOM      5  C   UNL d   1     -50.189  13.249  22.665  0.00  0.00     0.343 A 
ATOM      6  C   UNL d   1     -49.274  14.355  22.832  0.00  0.00     0.289 A 
ATOM      7  N   UNL d   1     -48.209  12.448  23.094  0.00  0.00    -0.206 NA
ATOM      8  N   UNL d   1     -47.275  13.537  23.266  0.00  0.00    -0.217 NA
ATOM      9  C   UNL d   1     -47.443  12.716  23.248  0.00  0.00     0.182 A 
ATOM     10  O   UNL d   1     -50.959  12.978  22.510  0.00  0.00    -0.245 OA
ATOM     11  O   UNL d   1     -49.120  15.169  22.847  0.00  0.00    -0.265 OA
ATOM     12  C   UNL d   1     -49.737  11.902  22.787  0.00  0.00     0.105 C 
ATOM     13  C   UNL d   1     -50.684  14.640  22.532  0.00  0.00     0.107 C 
ENDROOT
BRANCH   9  14
ATOM     14  C   UNL d   1     -47.002  12.040  23.354  0.00  0.00     0.120 C 
BRANCH  14  15
ATOM     15  N   UNL d   1     -46.219  11.878  23.370  0.00  0.00    -0.297 N 
ATOM     16  C   UNL d   1     -45.687  12.404  23.066  0.00  0.00     0.100 C 
ATOM     17  C   UNL d   1     -45.961  11.186  23.691  0.00  0.00     0.100 C 
ENDBRANCH  14  15
ENDBRANCH   9  14
TORSDOF 2
ENDMDL
MODEL 6
REMARK VINA RESULT:      -4.5      2.068      3.845
REMARK  2 active torsions:
REMARK  status: ('A' for Active; 'I' for Inactive)
REMARK    1  A    between atoms: C_12  and  C_9 
REMARK    2  A    between atoms: N_15  and  C_12 
ROOT
ATOM      1  C   UNL d   1     -48.652  13.927  22.358  0.00  0.00     0.176 A 
ATOM      2  C   UNL d   1     -49.009  13.301  21.956  0.00  0.00     0.174 A 
ATOM      3  N   UNL d   1     -49.091  14.626  22.515  0.00  0.00    -0.240 N 
ATOM      4  N   UNL d   1     -50.231  14.056  21.866  0.00  0.00    -0.223 N 
ATOM      5  C   UNL d   1     -49.868  14.691  22.274  0.00  0.00     0.343 A 
ATOM      6  C   UNL d   1     -49.811  13.364  21.705  0.00  0.00     0.289 A 
ATOM      7  N   UNL d   1     -47.874  13.882  22.609  0.00  0.00    -0.206 NA
ATOM      8  N   UNL d   1     -47.792  12.553  22.048  0.00  0.00    -0.217 NA
ATOM      9  C   UNL d   1     -47.441  13.195  22.456  0.00  0.00     0.182 A 
ATOM     10  O   UNL d   1     -50.303  15.383  22.429  0.00  0.00    -0.245 OA
ATOM     11  O   UNL d   1     -50.170  12.735  21.301  0.00  0.00    -0.265 OA
ATOM     12  C   UNL d   1     -48.731  15.258  22.921  0.00  0.00     0.105 C 
ATOM     13  C   UNL d   1     -51.065  14.126  21.606  0.00  0.00     0.107 C 
ENDROOT
BRANCH   9  14
ATOM     14  C   UNL d   1     -46.705  13.336  22.774  0.00  0.00     0.120 C 
BRANCH  14  15
ATOM     15  N   UNL d   1     -45.987  12.991  22.702  0.00  0.00    -0.297 N 
ATOM     16  C   UNL d   1     -45.436  13.297  22.199  0.00  0.00     0.100 C 
ATOM     17  C   UNL d   1     -45.815  12.333  23.135  0.00  0.00     0.100 C 
ENDBRANCH  14  15
ENDBRANCH   9  14
TORSDOF 2
ENDMDL
MODEL 7
REMARK VINA RESULT:      -4.2      8.504      9.383
REMARK  2 active torsions:
REMARK  status: ('A' for Active; 'I' for Inactive)
REMARK    1  A    between atoms: C_12  and  C_9 
REMARK    2  A    between atoms: N_15  and  C_12 
ROOT
ATOM      1  C   UNL d   1     -39.971  15.062  19.639  0.00  0.00     0.176 A 
ATOM      2  C   UNL d   1     -39.378  14.498  19.535  0.00  0.00     0.174 A 
ATOM      3  N   UNL d   1     -40.190  15.296  20.416  0.00  0.00    -0.240 N 
ATOM      4  N   UNL d   1     -39.220  14.398  20.961  0.00  0.00    -0.223 N 
ATOM      5  C   UNL d   1     -39.822  14.971  21.068  0.00  0.00     0.343 A 
ATOM      6  C   UNL d   1     -38.995  14.160  20.205  0.00  0.00     0.289 A 
ATOM      7  N   UNL d   1     -40.353  15.401  18.999  0.00  0.00    -0.206 NA
ATOM      8  N   UNL d   1     -39.538  14.600  18.116  0.00  0.00    -0.217 NA
ATOM      9  C   UNL d   1     -40.138  15.171  18.236  0.00  0.00     0.182 A 
ATOM     10  O   UNL d   1     -40.039  15.203  21.836  0.00  0.00    -0.245 OA
ATOM     11  O   UNL d   1     -38.399  13.593  20.099  0.00  0.00    -0.265 OA
ATOM     12  C   UNL d   1     -40.789  15.866  20.522  0.00  0.00     0.105 C 
ATOM     13  C   UNL d   1     -38.824  14.049  21.661  0.00  0.00     0.107 C 
ENDROOT
BRANCH   9  14
ATOM     14  C   UNL d   1     -40.618  15.607  17.743  0.00  0.00     0.120 C 
BRANCH  14  15
ATOM     15  N   UNL d   1     -40.674  15.697  16.950  0.00  0.00    -0.297 N 
ATOM     16  C   UNL d   1     -41.377  15.572  16.574  0.00  0.00     0.100 C 
ATOM     17  C   UNL d   1     -40.025  15.915  16.526  0.00  0.00     0.100 C 
ENDBRANCH  14  15
ENDBRANCH   9  14
TORSDOF 2
ENDMDL
