MODEL 1
REMARK VINA RESULT:      19.5      0.000      0.000
REMARK  6 active torsions:
REMARK  status: ('A' for Active; 'I' for Inactive)
REMARK    1  A    between atoms: C_5  and  C_1 
REMARK    2  A    between atoms: O_8  and  C_5 
REMARK    3  A    between atoms: C_9  and  O_8 
REMARK    4  A    between atoms: C_14  and  C_10 
REMARK    5  A    between atoms: O_20  and  C_11 
REMARK    6  A    between atoms: O_21  and  C_16 
ROOT
ATOM      1  C   UNL d   1      46.075 -16.592  44.399  0.00  0.00     0.305 C 
ATOM      2  O   UNL d   1      46.643 -16.356  44.952  0.00  0.00    -0.259 OA
ENDROOT
BRANCH   1   3
ATOM      3  C   UNL d   1      46.142 -17.335  44.030  0.00  0.00     0.127 A 
ATOM      4  C   UNL d   1      46.230 -17.371  43.201  0.00  0.00     0.305 A 
ATOM      5  O   UNL d   1      46.296 -18.105  42.831  0.00  0.00    -0.271 OA
ATOM      6  O   UNL d   1      46.250 -16.680  42.758  0.00  0.00    -0.259 OA
ATOM      7  C   UNL d   1      46.275 -18.796  43.282  0.00  0.00     0.125 A 
ATOM      8  C   UNL d   1      46.188 -18.760  44.103  0.00  0.00     0.025 A 
ATOM      9  C   UNL d   1      46.342 -19.530  42.912  0.00  0.00     0.117 A 
ATOM     10  C   UNL d   1      46.120 -18.017  44.480  0.00  0.00     0.013 A 
ATOM     11  C   UNL d   1      46.167 -19.451  44.550  0.00  0.00     0.002 A 
ATOM     12  C   UNL d   1      46.233 -20.177  44.179  0.00  0.00     0.002 A 
ATOM     13  C   UNL d   1      46.321 -20.221  43.359  0.00  0.00     0.026 A 
BRANCH   9  14
ATOM     14  O   UNL d   1      46.428 -19.570  42.099  0.00  0.00    -0.326 OA
ATOM     15  C   UNL d   1      46.331 -20.292  41.703  0.00  0.00     0.181 C 
ENDBRANCH   9  14
ENDBRANCH   1   3
BRANCH   1  16
ATOM     16  O   UNL d   1      45.445 -16.093  44.215  0.00  0.00    -0.271 OA
BRANCH  16  17
ATOM     17  C   UNL d   1      45.520 -15.278  44.324  0.00  0.00     0.126 A 
ATOM     18  C   UNL d   1      44.850 -14.819  44.466  0.00  0.00     0.117 A 
ATOM     19  C   UNL d   1      44.919 -14.008  44.575  0.00  0.00     0.029 A 
ATOM     20  C   UNL d   1      45.672 -13.650  44.541  0.00  0.00     0.041 A 
ATOM     21  C   UNL d   1      46.342 -14.109  44.399  0.00  0.00     0.005 A 
ATOM     22  C   UNL d   1      46.267 -14.924  44.291  0.00  0.00     0.027 A 
BRANCH  18  23
ATOM     23  O   UNL d   1      44.107 -15.181  44.498  0.00  0.00    -0.326 OA
ATOM     24  C   UNL d   1      43.503 -14.850  44.955  0.00  0.00     0.181 C 
ENDBRANCH  18  23
BRANCH  20  25
ATOM     25  C   UNL d   1      45.742 -12.825  44.652  0.00  0.00     0.196 C 
ATOM     26  O   UNL d   1      46.493 -12.482  44.703  0.00  0.00    -0.287 OA
ATOM     27  C   UNL d   1      45.060 -12.356  44.710  0.00  0.00     0.045 C 
ENDBRANCH  20  25
ENDBRANCH  16  17
ENDBRANCH   1  16
TORSDOF 6
ENDMDL
