MODEL 1
REMARK VINA RESULT:      -7.7      0.000      0.000
REMARK  5 active torsions:
REMARK  status: ('A' for Active; 'I' for Inactive)
REMARK    1  A    between atoms: C_6  and  C_1 
REMARK    2  A    between atoms: C_8  and  N_3 
REMARK    3  A    between atoms: O_7  and  C_6 
REMARK    4  A    between atoms: C_9  and  O_7 
REMARK    5  A    between atoms: O_16  and  C_10 
ROOT
ATOM      1  C   UNL d   1      52.452  33.937  53.536  0.00  0.00     0.173 A 
ATOM      2  N   UNL d   1      52.865  34.403  54.038  0.00  0.00    -0.225 NA
ATOM      3  N   UNL d   1      52.707  33.172  53.553  0.00  0.00    -0.287 N 
ATOM      4  C   UNL d   1      53.357  33.134  54.129  0.00  0.00     0.083 A 
ATOM      5  C   UNL d   1      53.453  33.877  54.421  0.00  0.00     0.099 A 
ATOM      6  C   UNL d   1      53.851  32.539  54.409  0.00  0.00     0.019 A 
ATOM      7  C   UNL d   1      54.049  34.076  55.014  0.00  0.00     0.021 A 
ATOM      8  C   UNL d   1      54.438  32.662  54.972  0.00  0.00     0.002 A 
ATOM      9  C   UNL d   1      54.534  33.405  55.265  0.00  0.00     0.002 A 
ENDROOT
BRANCH   1  10
ATOM     10  C   UNL d   1      51.884  33.776  52.979  0.00  0.00     0.160 C 
BRANCH  10  11
ATOM     11  O   UNL d   1      51.618  34.394  52.481  0.00  0.00    -0.302 OA
BRANCH  11  12
ATOM     12  C   UNL d   1      50.816  34.425  52.243  0.00  0.00     0.100 A 
ATOM     13  C   UNL d   1      50.607  34.251  51.451  0.00  0.00     0.027 A 
ATOM     14  C   UNL d   1      49.806  34.282  51.213  0.00  0.00     0.026 A 
ATOM     15  C   UNL d   1      49.233  34.479  51.747  0.00  0.00     0.094 A 
ATOM     16  C   UNL d   1      49.442  34.653  52.539  0.00  0.00     0.026 A 
ATOM     17  C   UNL d   1      50.243  34.622  52.777  0.00  0.00     0.027 A 
BRANCH  15  18
ATOM     18  O   UNL d   1      48.508  34.454  51.319  0.00  0.00    -0.328 OA
ATOM     19  C   UNL d   1      47.953  35.085  51.372  0.00  0.00     0.181 C 
ENDBRANCH  15  18
ENDBRANCH  11  12
ENDBRANCH  10  11
ENDBRANCH   1  10
BRANCH   3  20
ATOM     20  C   UNL d   1      52.330  32.655  53.070  0.00  0.00     0.082 C 
ATOM     21  C   UNL d   1      52.578  31.872  52.987  0.00  0.00     0.021 C 
ENDBRANCH   3  20
TORSDOF 5
ENDMDL
MODEL 2
REMARK VINA RESULT:      -7.5      2.416      4.487
REMARK  5 active torsions:
REMARK  status: ('A' for Active; 'I' for Inactive)
REMARK    1  A    between atoms: C_6  and  C_1 
REMARK    2  A    between atoms: C_8  and  N_3 
REMARK    3  A    between atoms: O_7  and  C_6 
REMARK    4  A    between atoms: C_9  and  O_7 
REMARK    5  A    between atoms: O_16  and  C_10 
ROOT
ATOM      1  C   UNL d   1      53.077  32.967  53.505  0.00  0.00     0.173 A 
ATOM      2  N   UNL d   1      52.552  33.464  53.160  0.00  0.00    -0.225 NA
ATOM      3  N   UNL d   1      53.508  33.335  54.080  0.00  0.00    -0.287 N 
ATOM      4  C   UNL d   1      53.236  34.160  54.113  0.00  0.00     0.083 A 
ATOM      5  C   UNL d   1      52.659  34.237  53.558  0.00  0.00     0.099 A 
ATOM      6  C   UNL d   1      53.435  34.820  54.562  0.00  0.00     0.019 A 
ATOM      7  C   UNL d   1      52.241  34.980  53.414  0.00  0.00     0.021 A 
ATOM      8  C   UNL d   1      53.076  35.555  54.475  0.00  0.00     0.002 A 
ATOM      9  C   UNL d   1      52.499  35.632  53.920  0.00  0.00     0.002 A 
ENDROOT
BRANCH   1  10
ATOM     10  C   UNL d   1      53.453  32.258  53.620  0.00  0.00     0.160 C 
BRANCH  10  11
ATOM     11  O   UNL d   1      53.334  31.641  53.068  0.00  0.00    -0.302 OA
BRANCH  11  12
ATOM     12  C   UNL d   1      53.255  30.851  53.333  0.00  0.00     0.100 A 
ATOM     13  C   UNL d   1      53.928  30.426  53.590  0.00  0.00     0.027 A 
ATOM     14  C   UNL d   1      53.849  29.636  53.855  0.00  0.00     0.026 A 
ATOM     15  C   UNL d   1      53.122  29.283  53.862  0.00  0.00     0.094 A 
ATOM     16  C   UNL d   1      52.449  29.709  53.605  0.00  0.00     0.026 A 
ATOM     17  C   UNL d   1      52.528  30.499  53.340  0.00  0.00     0.027 A 
BRANCH  15  18
ATOM     18  O   UNL d   1      53.253  28.505  54.156  0.00  0.00    -0.328 OA
ATOM     19  C   UNL d   1      53.330  28.363  54.983  0.00  0.00     0.181 C 
ENDBRANCH  15  18
ENDBRANCH  11  12
ENDBRANCH  10  11
ENDBRANCH   1  10
BRANCH   3  20
ATOM     20  C   UNL d   1      54.052  32.888  54.463  0.00  0.00     0.082 C 
ATOM     21  C   UNL d   1      54.507  33.189  55.082  0.00  0.00     0.021 C 
ENDBRANCH   3  20
TORSDOF 5
ENDMDL
MODEL 3
REMARK VINA RESULT:      -7.0      1.148      2.083
REMARK  5 active torsions:
REMARK  status: ('A' for Active; 'I' for Inactive)
REMARK    1  A    between atoms: C_6  and  C_1 
REMARK    2  A    between atoms: C_8  and  N_3 
REMARK    3  A    between atoms: O_7  and  C_6 
REMARK    4  A    between atoms: C_9  and  O_7 
REMARK    5  A    between atoms: O_16  and  C_10 
ROOT
ATOM      1  C   UNL d   1      52.338  32.423  52.920  0.00  0.00     0.173 A 
ATOM      2  N   UNL d   1      52.214  31.717  52.564  0.00  0.00    -0.225 NA
ATOM      3  N   UNL d   1      52.912  32.380  53.485  0.00  0.00    -0.287 N 
ATOM      4  C   UNL d   1      53.193  31.558  53.500  0.00  0.00     0.083 A 
ATOM      5  C   UNL d   1      52.771  31.158  52.944  0.00  0.00     0.099 A 
ATOM      6  C   UNL d   1      53.756  31.143  53.933  0.00  0.00     0.019 A 
ATOM      7  C   UNL d   1      52.884  30.316  52.783  0.00  0.00     0.021 A 
ATOM      8  C   UNL d   1      53.912  30.342  53.829  0.00  0.00     0.002 A 
ATOM      9  C   UNL d   1      53.490  29.942  53.273  0.00  0.00     0.002 A 
ENDROOT
BRANCH   1  10
ATOM     10  C   UNL d   1      52.213  33.214  53.051  0.00  0.00     0.160 C 
BRANCH  10  11
ATOM     11  O   UNL d   1      51.903  33.684  52.432  0.00  0.00    -0.302 OA
BRANCH  11  12
ATOM     12  C   UNL d   1      51.169  34.075  52.529  0.00  0.00     0.100 A 
ATOM     13  C   UNL d   1      50.595  34.046  51.921  0.00  0.00     0.027 A 
ATOM     14  C   UNL d   1      49.862  34.437  52.019  0.00  0.00     0.026 A 
ATOM     15  C   UNL d   1      49.708  34.843  52.700  0.00  0.00     0.094 A 
ATOM     16  C   UNL d   1      50.282  34.872  53.308  0.00  0.00     0.026 A 
ATOM     17  C   UNL d   1      51.016  34.480  53.211  0.00  0.00     0.027 A 
BRANCH  15  18
ATOM     18  O   UNL d   1      48.933  35.158  52.603  0.00  0.00    -0.328 OA
ATOM     19  C   UNL d   1      48.589  35.650  53.195  0.00  0.00     0.181 C 
ENDBRANCH  15  18
ENDBRANCH  11  12
ENDBRANCH  10  11
ENDBRANCH   1  10
BRANCH   3  20
ATOM     20  C   UNL d   1      53.083  33.058  53.878  0.00  0.00     0.082 C 
ATOM     21  C   UNL d   1      53.753  33.131  54.354  0.00  0.00     0.021 C 
ENDBRANCH   3  20
TORSDOF 5
ENDMDL
MODEL 4
REMARK VINA RESULT:      -6.9      2.216      5.160
REMARK  5 active torsions:
REMARK  status: ('A' for Active; 'I' for Inactive)
REMARK    1  A    between atoms: C_6  and  C_1 
REMARK    2  A    between atoms: C_8  and  N_3 
REMARK    3  A    between atoms: O_7  and  C_6 
REMARK    4  A    between atoms: C_9  and  O_7 
REMARK    5  A    between atoms: O_16  and  C_10 
ROOT
ATOM      1  C   UNL d   1      49.011  35.310  52.865  0.00  0.00     0.173 A 
ATOM      2  N   UNL d   1      48.616  35.786  53.373  0.00  0.00    -0.225 NA
ATOM      3  N   UNL d   1      48.612  35.211  52.171  0.00  0.00    -0.287 N 
ATOM      4  C   UNL d   1      47.877  35.671  52.233  0.00  0.00     0.083 A 
ATOM      5  C   UNL d   1      47.879  36.018  52.958  0.00  0.00     0.099 A 
ATOM      6  C   UNL d   1      47.235  35.810  51.737  0.00  0.00     0.019 A 
ATOM      7  C   UNL d   1      47.240  36.528  53.238  0.00  0.00     0.021 A 
ATOM      8  C   UNL d   1      46.595  36.284  51.944  0.00  0.00     0.002 A 
ATOM      9  C   UNL d   1      46.598  36.631  52.669  0.00  0.00     0.002 A 
ENDROOT
BRANCH   1  10
ATOM     10  C   UNL d   1      49.624  34.836  52.626  0.00  0.00     0.160 C 
BRANCH  10  11
ATOM     11  O   UNL d   1      50.344  34.857  53.053  0.00  0.00    -0.302 OA
BRANCH  11  12
ATOM     12  C   UNL d   1      50.892  34.230  52.981  0.00  0.00     0.100 A 
ATOM     13  C   UNL d   1      51.584  34.328  52.520  0.00  0.00     0.027 A 
ATOM     14  C   UNL d   1      52.133  33.701  52.449  0.00  0.00     0.026 A 
ATOM     15  C   UNL d   1      51.995  32.999  52.825  0.00  0.00     0.094 A 
ATOM     16  C   UNL d   1      51.303  32.900  53.285  0.00  0.00     0.026 A 
ATOM     17  C   UNL d   1      50.754  33.528  53.357  0.00  0.00     0.027 A 
BRANCH  15  18
ATOM     18  O   UNL d   1      52.652  32.508  52.631  0.00  0.00    -0.328 OA
ATOM     19  C   UNL d   1      52.686  31.709  52.895  0.00  0.00     0.181 C 
ENDBRANCH  15  18
ENDBRANCH  11  12
ENDBRANCH  10  11
ENDBRANCH   1  10
BRANCH   3  20
ATOM     20  C   UNL d   1      48.958  34.743  51.620  0.00  0.00     0.082 C 
ATOM     21  C   UNL d   1      48.627  34.629  50.872  0.00  0.00     0.021 C 
ENDBRANCH   3  20
TORSDOF 5
ENDMDL
