MODEL 1
REMARK VINA RESULT:      -8.9      0.000      0.000
REMARK  5 active torsions:
REMARK  status: ('A' for Active; 'I' for Inactive)
REMARK    1  A    between atoms: C_5  and  C_1 
REMARK    2  A    between atoms: C_12  and  C_5 
REMARK    3  A    between atoms: C_7  and  C_22 
REMARK       I    between atoms: N_21  and  C_12 
REMARK    4  A    between atoms: C_23  and  N_21 
REMARK    5  A    between atoms: C_22  and  C_23 
ROOT
ATOM      1  C   UNL d   1      50.744  34.301  52.353  0.00  0.00     0.102 C 
ENDROOT
BRANCH   1   2
ATOM      2  C   UNL d   1      51.554  34.458  52.397  0.00  0.00     0.026 C 
BRANCH   2   3
ATOM      3  C   UNL d   1      52.062  33.916  52.782  0.00  0.00     0.059 A 
ATOM      4  C   UNL d   1      52.610  34.187  53.334  0.00  0.00     0.279 A 
ATOM      5  N   UNL d   1      53.111  33.656  53.714  0.00  0.00    -0.208 NA
ATOM      6  O   UNL d   1      52.654  35.003  53.507  0.00  0.00    -0.265 OA
ATOM      7  C   UNL d   1      53.069  32.856  53.546  0.00  0.00     0.085 A 
ATOM      8  C   UNL d   1      52.516  32.582  52.989  0.00  0.00     0.018 A 
ATOM      9  C   UNL d   1      53.567  32.323  53.923  0.00  0.00     0.019 A 
ATOM     10  C   UNL d   1      52.012  33.112  52.606  0.00  0.00     0.006 A 
ATOM     11  C   UNL d   1      52.469  31.779  52.816  0.00  0.00     0.002 A 
ATOM     12  C   UNL d   1      52.973  31.249  53.198  0.00  0.00     0.000 A 
ATOM     13  C   UNL d   1      53.523  31.522  53.753  0.00  0.00     0.002 A 
ATOM     14  C   UNL d   1      52.928  30.433  53.025  0.00  0.00     0.000 C 
ATOM     15  C   UNL d   1      54.027  30.992  54.135  0.00  0.00     0.000 C 
ENDBRANCH   2   3
ENDBRANCH   1   2
BRANCH   1  16
ATOM     16  N   UNL d   1      50.380  34.259  51.620  0.00  0.00    -0.204 NA
ATOM     17  C   UNL d   1      49.597  34.497  51.540  0.00  0.00     0.318 C 
ATOM     18  O   UNL d   1      49.229  34.456  50.804  0.00  0.00    -0.262 OA
BRANCH  17  19
ATOM     19  C   UNL d   1      49.176  34.781  52.200  0.00  0.00     0.254 C 
ATOM     20  O   UNL d   1      49.468  34.641  52.960  0.00  0.00    -0.281 OA
BRANCH  19  21
ATOM     21  C   UNL d   1      48.478  35.194  52.091  0.00  0.00     0.064 A 
ATOM     22  C   UNL d   1      48.004  35.204  51.414  0.00  0.00     0.102 A 
ATOM     23  N   UNL d   1      47.356  35.692  51.546  0.00  0.00    -0.244 NA
ATOM     24  C   UNL d   1      47.422  35.992  52.312  0.00  0.00     0.082 A 
ATOM     25  C   UNL d   1      48.113  35.686  52.649  0.00  0.00     0.022 A 
ATOM     26  C   UNL d   1      46.944  36.504  52.747  0.00  0.00     0.019 A 
ATOM     27  C   UNL d   1      48.323  35.892  53.417  0.00  0.00     0.002 A 
ATOM     28  C   UNL d   1      47.839  36.409  53.855  0.00  0.00     0.000 A 
ATOM     29  C   UNL d   1      47.154  36.709  53.515  0.00  0.00     0.002 A 
ENDBRANCH  19  21
ENDBRANCH  17  19
ENDBRANCH   1  16
TORSDOF 5
ENDMDL
MODEL 2
REMARK VINA RESULT:      -8.9      1.727      5.701
REMARK  5 active torsions:
REMARK  status: ('A' for Active; 'I' for Inactive)
REMARK    1  A    between atoms: C_5  and  C_1 
REMARK    2  A    between atoms: C_12  and  C_5 
REMARK    3  A    between atoms: C_7  and  C_22 
REMARK       I    between atoms: N_21  and  C_12 
REMARK    4  A    between atoms: C_23  and  N_21 
REMARK    5  A    between atoms: C_22  and  C_23 
ROOT
ATOM      1  C   UNL d   1      53.132  33.459  53.392  0.00  0.00     0.102 C 
ENDROOT
BRANCH   1   2
ATOM      2  C   UNL d   1      52.906  34.241  53.257  0.00  0.00     0.026 C 
BRANCH   2   3
ATOM      3  C   UNL d   1      52.097  34.430  53.159  0.00  0.00     0.059 A 
ATOM      4  C   UNL d   1      51.696  34.841  53.750  0.00  0.00     0.279 A 
ATOM      5  N   UNL d   1      50.900  35.028  53.656  0.00  0.00    -0.208 NA
ATOM      6  O   UNL d   1      52.101  35.067  54.445  0.00  0.00    -0.265 OA
ATOM      7  C   UNL d   1      50.501  34.808  52.977  0.00  0.00     0.085 A 
ATOM      8  C   UNL d   1      50.905  34.393  52.379  0.00  0.00     0.018 A 
ATOM      9  C   UNL d   1      49.707  34.992  52.879  0.00  0.00     0.019 A 
ATOM     10  C   UNL d   1      51.704  34.204  52.471  0.00  0.00     0.006 A 
ATOM     11  C   UNL d   1      50.510  34.169  51.694  0.00  0.00     0.002 A 
ATOM     12  C   UNL d   1      49.712  34.357  51.602  0.00  0.00     0.000 A 
ATOM     13  C   UNL d   1      49.310  34.771  52.197  0.00  0.00     0.002 A 
ATOM     14  C   UNL d   1      49.307  34.132  50.907  0.00  0.00     0.000 C 
ATOM     15  C   UNL d   1      48.512  34.959  52.105  0.00  0.00     0.000 C 
ENDBRANCH   2   3
ENDBRANCH   1   2
BRANCH   1  16
ATOM     16  N   UNL d   1      53.887  33.215  53.186  0.00  0.00    -0.204 NA
ATOM     17  C   UNL d   1      54.143  32.462  53.394  0.00  0.00     0.318 C 
ATOM     18  O   UNL d   1      54.901  32.214  53.189  0.00  0.00    -0.262 OA
BRANCH  17  19
ATOM     19  C   UNL d   1      53.637  31.949  53.812  0.00  0.00     0.254 C 
ATOM     20  O   UNL d   1      53.411  32.139  54.583  0.00  0.00    -0.281 OA
BRANCH  19  21
ATOM     21  C   UNL d   1      53.368  31.262  53.456  0.00  0.00     0.064 A 
ATOM     22  C   UNL d   1      53.103  31.174  52.678  0.00  0.00     0.102 A 
ATOM     23  N   UNL d   1      52.886  30.391  52.555  0.00  0.00    -0.244 NA
ATOM     24  C   UNL d   1      53.016  29.982  53.260  0.00  0.00     0.082 A 
ATOM     25  C   UNL d   1      53.314  30.518  53.816  0.00  0.00     0.022 A 
ATOM     26  C   UNL d   1      52.903  29.193  53.469  0.00  0.00     0.019 A 
ATOM     27  C   UNL d   1      53.497  30.264  54.576  0.00  0.00     0.002 A 
ATOM     28  C   UNL d   1      53.382  29.466  54.785  0.00  0.00     0.000 A 
ATOM     29  C   UNL d   1      53.086  28.939  54.229  0.00  0.00     0.002 A 
ENDBRANCH  19  21
ENDBRANCH  17  19
ENDBRANCH   1  16
TORSDOF 5
ENDMDL
MODEL 3
REMARK VINA RESULT:      -8.6      1.197      5.771
REMARK  5 active torsions:
REMARK  status: ('A' for Active; 'I' for Inactive)
REMARK    1  A    between atoms: C_5  and  C_1 
REMARK    2  A    between atoms: C_12  and  C_5 
REMARK    3  A    between atoms: C_7  and  C_22 
REMARK       I    between atoms: N_21  and  C_12 
REMARK    4  A    between atoms: C_23  and  N_21 
REMARK    5  A    between atoms: C_22  and  C_23 
ROOT
ATOM      1  C   UNL d   1      50.776  34.400  52.526  0.00  0.00     0.102 C 
ENDROOT
BRANCH   1   2
ATOM      2  C   UNL d   1      50.144  34.225  52.025  0.00  0.00     0.026 C 
BRANCH   2   3
ATOM      3  C   UNL d   1      49.429  34.654  52.093  0.00  0.00     0.059 A 
ATOM      4  C   UNL d   1      48.919  34.709  51.449  0.00  0.00     0.279 A 
ATOM      5  N   UNL d   1      48.215  35.131  51.513  0.00  0.00    -0.208 NA
ATOM      6  O   UNL d   1      49.119  34.335  50.729  0.00  0.00    -0.265 OA
ATOM      7  C   UNL d   1      48.016  35.498  52.217  0.00  0.00     0.085 A 
ATOM      8  C   UNL d   1      48.530  35.444  52.868  0.00  0.00     0.018 A 
ATOM      9  C   UNL d   1      47.315  35.920  52.285  0.00  0.00     0.019 A 
ATOM     10  C   UNL d   1      49.237  35.021  52.806  0.00  0.00     0.006 A 
ATOM     11  C   UNL d   1      48.337  35.811  53.578  0.00  0.00     0.002 A 
ATOM     12  C   UNL d   1      47.630  36.233  53.640  0.00  0.00     0.000 A 
ATOM     13  C   UNL d   1      47.118  36.287  52.991  0.00  0.00     0.002 A 
ATOM     14  C   UNL d   1      47.430  36.607  54.359  0.00  0.00     0.000 C 
ATOM     15  C   UNL d   1      46.412  36.710  53.053  0.00  0.00     0.000 C 
ENDBRANCH   2   3
ENDBRANCH   1   2
BRANCH   1  16
ATOM     16  N   UNL d   1      51.493  34.635  52.205  0.00  0.00    -0.204 NA
ATOM     17  C   UNL d   1      52.193  34.459  52.598  0.00  0.00     0.318 C 
ATOM     18  O   UNL d   1      52.915  34.694  52.278  0.00  0.00    -0.262 OA
BRANCH  17  19
ATOM     19  C   UNL d   1      52.175  34.044  53.320  0.00  0.00     0.254 C 
ATOM     20  O   UNL d   1      51.631  33.431  53.423  0.00  0.00    -0.281 OA
BRANCH  19  21
ATOM     21  C   UNL d   1      52.694  34.246  53.920  0.00  0.00     0.064 A 
ATOM     22  C   UNL d   1      52.785  34.988  54.272  0.00  0.00     0.102 A 
ATOM     23  N   UNL d   1      53.368  34.943  54.850  0.00  0.00    -0.244 NA
ATOM     24  C   UNL d   1      53.646  34.165  54.862  0.00  0.00     0.082 A 
ATOM     25  C   UNL d   1      53.231  33.735  54.289  0.00  0.00     0.022 A 
ATOM     26  C   UNL d   1      54.222  33.793  55.319  0.00  0.00     0.019 A 
ATOM     27  C   UNL d   1      53.393  32.937  54.176  0.00  0.00     0.002 A 
ATOM     28  C   UNL d   1      53.975  32.563  54.639  0.00  0.00     0.000 A 
ATOM     29  C   UNL d   1      54.384  32.995  55.206  0.00  0.00     0.002 A 
ENDBRANCH  19  21
ENDBRANCH  17  19
ENDBRANCH   1  16
TORSDOF 5
ENDMDL
MODEL 4
REMARK VINA RESULT:      -8.3      1.607      2.670
REMARK  5 active torsions:
REMARK  status: ('A' for Active; 'I' for Inactive)
REMARK    1  A    between atoms: C_5  and  C_1 
REMARK    2  A    between atoms: C_12  and  C_5 
REMARK    3  A    between atoms: C_7  and  C_22 
REMARK       I    between atoms: N_21  and  C_12 
REMARK    4  A    between atoms: C_23  and  N_21 
REMARK    5  A    between atoms: C_22  and  C_23 
ROOT
ATOM      1  C   UNL d   1      52.889  33.629  53.288  0.00  0.00     0.102 C 
ENDROOT
BRANCH   1   2
ATOM      2  C   UNL d   1      53.594  33.271  53.523  0.00  0.00     0.026 C 
BRANCH   2   3
ATOM      3  C   UNL d   1      53.593  32.473  53.773  0.00  0.00     0.059 A 
ATOM      4  C   UNL d   1      53.935  32.267  54.494  0.00  0.00     0.279 A 
ATOM      5  N   UNL d   1      53.935  31.482  54.741  0.00  0.00    -0.208 NA
ATOM      6  O   UNL d   1      54.281  32.858  54.972  0.00  0.00    -0.265 OA
ATOM      7  C   UNL d   1      53.597  30.901  54.275  0.00  0.00     0.085 A 
ATOM      8  C   UNL d   1      53.252  31.108  53.547  0.00  0.00     0.018 A 
ATOM      9  C   UNL d   1      53.595  30.117  54.518  0.00  0.00     0.019 A 
ATOM     10  C   UNL d   1      53.250  31.895  53.295  0.00  0.00     0.006 A 
ATOM     11  C   UNL d   1      52.911  30.530  53.073  0.00  0.00     0.002 A 
ATOM     12  C   UNL d   1      52.912  29.743  53.323  0.00  0.00     0.000 A 
ATOM     13  C   UNL d   1      53.256  29.537  54.049  0.00  0.00     0.002 A 
ATOM     14  C   UNL d   1      52.566  29.152  52.845  0.00  0.00     0.000 C 
ATOM     15  C   UNL d   1      53.257  28.751  54.299  0.00  0.00     0.000 C 
ENDBRANCH   2   3
ENDBRANCH   1   2
BRANCH   1  16
ATOM     16  N   UNL d   1      52.726  34.397  53.525  0.00  0.00    -0.204 NA
ATOM     17  C   UNL d   1      52.073  34.789  53.216  0.00  0.00     0.318 C 
ATOM     18  O   UNL d   1      51.907  35.561  53.452  0.00  0.00    -0.262 OA
BRANCH  17  19
ATOM     19  C   UNL d   1      51.579  34.409  52.664  0.00  0.00     0.254 C 
ATOM     20  O   UNL d   1      51.916  33.960  52.058  0.00  0.00    -0.281 OA
BRANCH  19  21
ATOM     21  C   UNL d   1      50.765  34.482  52.726  0.00  0.00     0.064 A 
ATOM     22  C   UNL d   1      50.326  34.586  53.418  0.00  0.00     0.102 A 
ATOM     23  N   UNL d   1      49.528  34.633  53.225  0.00  0.00    -0.244 NA
ATOM     24  C   UNL d   1      49.465  34.558  52.405  0.00  0.00     0.082 A 
ATOM     25  C   UNL d   1      50.227  34.465  52.097  0.00  0.00     0.022 A 
ATOM     26  C   UNL d   1      48.815  34.562  51.899  0.00  0.00     0.019 A 
ATOM     27  C   UNL d   1      50.336  34.377  51.286  0.00  0.00     0.002 A 
ATOM     28  C   UNL d   1      49.677  34.381  50.777  0.00  0.00     0.000 A 
ATOM     29  C   UNL d   1      48.923  34.474  51.089  0.00  0.00     0.002 A 
ENDBRANCH  19  21
ENDBRANCH  17  19
ENDBRANCH   1  16
TORSDOF 5
ENDMDL
MODEL 5
REMARK VINA RESULT:      -8.2      1.182      1.766
REMARK  5 active torsions:
REMARK  status: ('A' for Active; 'I' for Inactive)
REMARK    1  A    between atoms: C_5  and  C_1 
REMARK    2  A    between atoms: C_12  and  C_5 
REMARK    3  A    between atoms: C_7  and  C_22 
REMARK       I    between atoms: N_21  and  C_12 
REMARK    4  A    between atoms: C_23  and  N_21 
REMARK    5  A    between atoms: C_22  and  C_23 
ROOT
ATOM      1  C   UNL d   1      50.828  33.809  52.558  0.00  0.00     0.102 C 
ENDROOT
BRANCH   1   2
ATOM      2  C   UNL d   1      51.152  33.081  52.774  0.00  0.00     0.026 C 
BRANCH   2   3
ATOM      3  C   UNL d   1      51.895  33.053  53.156  0.00  0.00     0.059 A 
ATOM      4  C   UNL d   1      52.397  32.412  53.034  0.00  0.00     0.279 A 
ATOM      5  N   UNL d   1      53.129  32.382  53.409  0.00  0.00    -0.208 NA
ATOM      6  O   UNL d   1      52.161  31.792  52.527  0.00  0.00    -0.265 OA
ATOM      7  C   UNL d   1      53.364  32.989  53.907  0.00  0.00     0.085 A 
ATOM      8  C   UNL d   1      52.857  33.637  54.031  0.00  0.00     0.018 A 
ATOM      9  C   UNL d   1      54.093  32.963  54.283  0.00  0.00     0.019 A 
ATOM     10  C   UNL d   1      52.122  33.669  53.656  0.00  0.00     0.006 A 
ATOM     11  C   UNL d   1      53.087  34.249  54.529  0.00  0.00     0.002 A 
ATOM     12  C   UNL d   1      53.821  34.217  54.905  0.00  0.00     0.000 A 
ATOM     13  C   UNL d   1      54.325  33.571  54.781  0.00  0.00     0.002 A 
ATOM     14  C   UNL d   1      54.058  34.837  55.412  0.00  0.00     0.000 C 
ATOM     15  C   UNL d   1      55.059  33.540  55.156  0.00  0.00     0.000 C 
ENDBRANCH   2   3
ENDBRANCH   1   2
BRANCH   1  16
ATOM     16  N   UNL d   1      50.663  33.961  51.770  0.00  0.00    -0.204 NA
ATOM     17  C   UNL d   1      50.005  34.411  51.570  0.00  0.00     0.318 C 
ATOM     18  O   UNL d   1      49.836  34.565  50.779  0.00  0.00    -0.262 OA
BRANCH  17  19
ATOM     19  C   UNL d   1      49.508  34.712  52.167  0.00  0.00     0.254 C 
ATOM     20  O   UNL d   1      49.782  34.750  52.945  0.00  0.00    -0.281 OA
BRANCH  19  21
ATOM     21  C   UNL d   1      48.753  34.969  51.978  0.00  0.00     0.064 A 
ATOM     22  C   UNL d   1      48.300  34.746  51.324  0.00  0.00     0.102 A 
ATOM     23  N   UNL d   1      47.577  35.137  51.352  0.00  0.00    -0.244 NA
ATOM     24  C   UNL d   1      47.575  35.609  52.029  0.00  0.00     0.082 A 
ATOM     25  C   UNL d   1      48.300  35.506  52.415  0.00  0.00     0.022 A 
ATOM     26  C   UNL d   1      47.010  36.119  52.344  0.00  0.00     0.019 A 
ATOM     27  C   UNL d   1      48.455  35.912  53.113  0.00  0.00     0.002 A 
ATOM     28  C   UNL d   1      47.882  36.427  53.430  0.00  0.00     0.000 A 
ATOM     29  C   UNL d   1      47.165  36.525  53.042  0.00  0.00     0.002 A 
ENDBRANCH  19  21
ENDBRANCH  17  19
ENDBRANCH   1  16
TORSDOF 5
ENDMDL
MODEL 6
REMARK VINA RESULT:      -8.0      1.203      5.949
REMARK  5 active torsions:
REMARK  status: ('A' for Active; 'I' for Inactive)
REMARK    1  A    between atoms: C_5  and  C_1 
REMARK    2  A    between atoms: C_12  and  C_5 
REMARK    3  A    between atoms: C_7  and  C_22 
REMARK       I    between atoms: N_21  and  C_12 
REMARK    4  A    between atoms: C_23  and  N_21 
REMARK    5  A    between atoms: C_22  and  C_23 
ROOT
ATOM      1  C   UNL d   1      49.565  34.826  52.717  0.00  0.00     0.102 C 
ENDROOT
BRANCH   1   2
ATOM      2  C   UNL d   1      49.265  35.583  52.854  0.00  0.00     0.026 C 
BRANCH   2   3
ATOM      3  C   UNL d   1      48.439  35.710  52.848  0.00  0.00     0.059 A 
ATOM      4  C   UNL d   1      48.057  35.962  53.533  0.00  0.00     0.279 A 
ATOM      5  N   UNL d   1      47.243  36.088  53.530  0.00  0.00    -0.208 NA
ATOM      6  O   UNL d   1      48.498  36.089  54.231  0.00  0.00    -0.265 OA
ATOM      7  C   UNL d   1      46.808  35.964  52.848  0.00  0.00     0.085 A 
ATOM      8  C   UNL d   1      47.193  35.710  52.156  0.00  0.00     0.018 A 
ATOM      9  C   UNL d   1      45.997  36.089  52.841  0.00  0.00     0.019 A 
ATOM     10  C   UNL d   1      48.009  35.583  52.156  0.00  0.00     0.006 A 
ATOM     11  C   UNL d   1      46.762  35.584  51.467  0.00  0.00     0.002 A 
ATOM     12  C   UNL d   1      45.947  35.711  51.466  0.00  0.00     0.000 A 
ATOM     13  C   UNL d   1      45.564  35.964  52.156  0.00  0.00     0.002 A 
ATOM     14  C   UNL d   1      45.505  35.585  50.769  0.00  0.00     0.000 C 
ATOM     15  C   UNL d   1      44.748  36.091  52.155  0.00  0.00     0.000 C 
ENDBRANCH   2   3
ENDBRANCH   1   2
BRANCH   1  16
ATOM     16  N   UNL d   1      50.025  34.688  52.053  0.00  0.00    -0.204 NA
ATOM     17  C   UNL d   1      50.702  34.226  52.114  0.00  0.00     0.318 C 
ATOM     18  O   UNL d   1      51.166  34.084  51.448  0.00  0.00    -0.262 OA
BRANCH  17  19
ATOM     19  C   UNL d   1      50.920  33.900  52.849  0.00  0.00     0.254 C 
ATOM     20  O   UNL d   1      50.359  33.492  53.296  0.00  0.00    -0.281 OA
BRANCH  19  21
ATOM     21  C   UNL d   1      51.688  33.986  53.121  0.00  0.00     0.064 A 
ATOM     22  C   UNL d   1      52.075  34.692  53.307  0.00  0.00     0.102 A 
ATOM     23  N   UNL d   1      52.839  34.522  53.560  0.00  0.00    -0.244 NA
ATOM     24  C   UNL d   1      52.933  33.703  53.532  0.00  0.00     0.082 A 
ATOM     25  C   UNL d   1      52.225  33.371  53.262  0.00  0.00     0.022 A 
ATOM     26  C   UNL d   1      53.571  33.215  53.718  0.00  0.00     0.019 A 
ATOM     27  C   UNL d   1      52.157  32.556  53.179  0.00  0.00     0.002 A 
ATOM     28  C   UNL d   1      52.803  32.065  53.367  0.00  0.00     0.000 A 
ATOM     29  C   UNL d   1      53.503  32.400  53.634  0.00  0.00     0.002 A 
ENDBRANCH  19  21
ENDBRANCH  17  19
ENDBRANCH   1  16
TORSDOF 5
ENDMDL
MODEL 7
REMARK VINA RESULT:      -7.4      3.232      4.891
REMARK  5 active torsions:
REMARK  status: ('A' for Active; 'I' for Inactive)
REMARK    1  A    between atoms: C_5  and  C_1 
REMARK    2  A    between atoms: C_12  and  C_5 
REMARK    3  A    between atoms: C_7  and  C_22 
REMARK       I    between atoms: N_21  and  C_12 
REMARK    4  A    between atoms: C_23  and  N_21 
REMARK    5  A    between atoms: C_22  and  C_23 
ROOT
ATOM      1  C   UNL d   1      52.436  32.303  53.021  0.00  0.00     0.102 C 
ENDROOT
BRANCH   1   2
ATOM      2  C   UNL d   1      52.151  31.563  52.793  0.00  0.00     0.026 C 
BRANCH   2   3
ATOM      3  C   UNL d   1      52.517  30.868  53.080  0.00  0.00     0.059 A 
ATOM      4  C   UNL d   1      52.901  30.359  52.558  0.00  0.00     0.279 A 
ATOM      5  N   UNL d   1      53.263  29.675  52.839  0.00  0.00    -0.208 NA
ATOM      6  O   UNL d   1      52.922  30.541  51.743  0.00  0.00    -0.265 OA
ATOM      7  C   UNL d   1      53.244  29.495  53.637  0.00  0.00     0.085 A 
ATOM      8  C   UNL d   1      52.856  30.009  54.165  0.00  0.00     0.018 A 
ATOM      9  C   UNL d   1      53.603  28.814  53.922  0.00  0.00     0.019 A 
ATOM     10  C   UNL d   1      52.493  30.696  53.886  0.00  0.00     0.006 A 
ATOM     11  C   UNL d   1      52.834  29.834  54.968  0.00  0.00     0.002 A 
ATOM     12  C   UNL d   1      53.197  29.147  55.247  0.00  0.00     0.000 A 
ATOM     13  C   UNL d   1      53.583  28.636  54.721  0.00  0.00     0.002 A 
ATOM     14  C   UNL d   1      53.176  28.966  56.062  0.00  0.00     0.000 C 
ATOM     15  C   UNL d   1      53.946  27.950  55.000  0.00  0.00     0.000 C 
ENDBRANCH   2   3
ENDBRANCH   1   2
BRANCH   1  16
ATOM     16  N   UNL d   1      51.948  32.959  52.966  0.00  0.00    -0.204 NA
ATOM     17  C   UNL d   1      52.256  33.709  53.104  0.00  0.00     0.318 C 
ATOM     18  O   UNL d   1      51.768  34.370  53.049  0.00  0.00    -0.262 OA
BRANCH  17  19
ATOM     19  C   UNL d   1      53.060  33.801  53.298  0.00  0.00     0.254 C 
ATOM     20  O   UNL d   1      53.639  33.566  52.759  0.00  0.00    -0.281 OA
BRANCH  19  21
ATOM     21  C   UNL d   1      53.270  34.124  54.021  0.00  0.00     0.064 A 
ATOM     22  C   UNL d   1      52.849  34.685  54.458  0.00  0.00     0.102 A 
ATOM     23  N   UNL d   1      53.262  34.853  55.149  0.00  0.00    -0.244 NA
ATOM     24  C   UNL d   1      53.948  34.394  55.147  0.00  0.00     0.082 A 
ATOM     25  C   UNL d   1      53.954  33.944  54.453  0.00  0.00     0.022 A 
ATOM     26  C   UNL d   1      54.567  34.326  55.687  0.00  0.00     0.019 A 
ATOM     27  C   UNL d   1      54.577  33.431  54.300  0.00  0.00     0.002 A 
ATOM     28  C   UNL d   1      55.202  33.363  54.846  0.00  0.00     0.000 A 
ATOM     29  C   UNL d   1      55.190  33.812  55.534  0.00  0.00     0.002 A 
ENDBRANCH  19  21
ENDBRANCH  17  19
ENDBRANCH   1  16
TORSDOF 5
ENDMDL
