MODEL 1
REMARK VINA RESULT:      -6.5      0.000      0.000
REMARK  7 active torsions:
REMARK  status: ('A' for Active; 'I' for Inactive)
REMARK    1  A    between atoms: N_4  and  C_1 
REMARK    2  A    between atoms: C_9  and  C_2 
REMARK    3  A    between atoms: C_7  and  N_4 
REMARK       I    between atoms: C_10  and  N_8 
REMARK    4  A    between atoms: C_17  and  C_10 
REMARK    5  A    between atoms: C_12  and  C_18 
REMARK    6  A    between atoms: O_20  and  C_12 
REMARK    7  A    between atoms: C_18  and  C_17 
ROOT
ATOM      1  N   UNL d   1     -48.322  13.796  22.559  0.00  0.00    -0.211 NA
ENDROOT
BRANCH   1   2
ATOM      2  C   UNL d   1     -49.132  13.634  22.731  0.00  0.00     0.118 A 
ATOM      3  C   UNL d   1     -49.600  13.023  22.379  0.00  0.00     0.084 A 
ATOM      4  C   UNL d   1     -50.356  13.067  22.708  0.00  0.00     0.013 A 
ATOM      5  C   UNL d   1     -51.015  12.554  22.516  0.00  0.00     0.001 C 
ATOM      6  C   UNL d   1     -50.376  13.672  23.242  0.00  0.00     0.031 A 
ATOM      7  S   UNL d   1     -49.632  14.028  23.265  0.00  0.00    -0.068 SA
ATOM      8  C   UNL d   1     -51.064  13.893  23.698  0.00  0.00     0.007 C 
BRANCH   3   9
ATOM      9  C   UNL d   1     -49.336  12.465  21.793  0.00  0.00     0.299 C 
ATOM     10  O   UNL d   1     -49.363  12.669  20.974  0.00  0.00    -0.264 OA
ATOM     11  N   UNL d   1     -49.040  11.695  22.023  0.00  0.00    -0.102 N 
ENDBRANCH   3   9
ENDBRANCH   1   2
BRANCH   1  12
ATOM     12  C   UNL d   1     -48.081  14.556  22.470  0.00  0.00     0.224 C 
ATOM     13  N   UNL d   1     -46.933  14.825  22.672  0.00  0.00    -0.179 NA
ATOM     14  C   UNL d   1     -46.420  14.241  22.896  0.00  0.00     0.281 C 
ATOM     15  O   UNL d   1     -45.647  14.423  23.032  0.00  0.00    -0.265 OA
ATOM     16  S   UNL d   1     -48.598  15.136  22.246  0.00  0.00    -0.037 SA
BRANCH  14  17
ATOM     17  C   UNL d   1     -46.672  13.489  22.982  0.00  0.00     0.068 C 
BRANCH  17  18
ATOM     18  C   UNL d   1     -46.276  13.005  23.499  0.00  0.00     0.073 C 
BRANCH  18  19
ATOM     19  C   UNL d   1     -46.047  12.271  23.232  0.00  0.00     0.296 C 
ATOM     20  O   UNL d   1     -45.709  12.195  22.531  0.00  0.00    -0.259 OA
BRANCH  19  21
ATOM     21  O   UNL d   1     -46.171  11.618  23.698  0.00  0.00    -0.296 OA
ATOM     22  C   UNL d   1     -45.732  10.941  23.562  0.00  0.00     0.185 C 
ENDBRANCH  19  21
ENDBRANCH  18  19
ENDBRANCH  17  18
ENDBRANCH  14  17
ENDBRANCH   1  12
TORSDOF 7
ENDMDL
MODEL 2
REMARK VINA RESULT:      -5.9      1.514      2.372
REMARK  7 active torsions:
REMARK  status: ('A' for Active; 'I' for Inactive)
REMARK    1  A    between atoms: N_4  and  C_1 
REMARK    2  A    between atoms: C_9  and  C_2 
REMARK    3  A    between atoms: C_7  and  N_4 
REMARK       I    between atoms: C_10  and  N_8 
REMARK    4  A    between atoms: C_17  and  C_10 
REMARK    5  A    between atoms: C_12  and  C_18 
REMARK    6  A    between atoms: O_20  and  C_12 
REMARK    7  A    between atoms: C_18  and  C_17 
ROOT
ATOM      1  N   UNL d   1     -48.681  12.815  23.014  0.00  0.00    -0.211 NA
ENDROOT
BRANCH   1   2
ATOM      2  C   UNL d   1     -49.288  13.150  22.533  0.00  0.00     0.118 A 
ATOM      3  C   UNL d   1     -49.487  13.971  22.487  0.00  0.00     0.084 A 
ATOM      4  C   UNL d   1     -50.110  14.047  21.952  0.00  0.00     0.013 A 
ATOM      5  C   UNL d   1     -50.492  14.782  21.732  0.00  0.00     0.001 C 
ATOM      6  C   UNL d   1     -50.304  13.317  21.667  0.00  0.00     0.031 A 
ATOM      7  S   UNL d   1     -49.807  12.758  22.015  0.00  0.00    -0.068 SA
ATOM      8  C   UNL d   1     -50.925  13.168  21.099  0.00  0.00     0.007 C 
BRANCH   3   9
ATOM      9  C   UNL d   1     -49.110  14.602  22.917  0.00  0.00     0.299 C 
ATOM     10  O   UNL d   1     -48.454  15.011  22.577  0.00  0.00    -0.264 OA
ATOM     11  N   UNL d   1     -49.387  14.829  23.695  0.00  0.00    -0.102 N 
ENDBRANCH   3   9
ENDBRANCH   1   2
BRANCH   1  12
ATOM     12  C   UNL d   1     -48.817  12.125  23.399  0.00  0.00     0.224 C 
ATOM     13  N   UNL d   1     -47.885  11.433  23.693  0.00  0.00    -0.179 NA
ATOM     14  C   UNL d   1     -47.137  11.670  23.500  0.00  0.00     0.281 C 
ATOM     15  O   UNL d   1     -46.510  11.204  23.698  0.00  0.00    -0.265 OA
ATOM     16  S   UNL d   1     -49.568  11.892  23.590  0.00  0.00    -0.037 SA
BRANCH  14  17
ATOM     17  C   UNL d   1     -47.014  12.360  23.116  0.00  0.00     0.068 C 
BRANCH  17  18
ATOM     18  C   UNL d   1     -46.276  12.694  23.149  0.00  0.00     0.073 C 
BRANCH  18  19
ATOM     19  C   UNL d   1     -45.953  12.969  22.454  0.00  0.00     0.296 C 
ATOM     20  O   UNL d   1     -46.364  12.937  21.789  0.00  0.00    -0.259 OA
BRANCH  19  21
ATOM     21  O   UNL d   1     -45.202  13.277  22.455  0.00  0.00    -0.296 OA
ATOM     22  C   UNL d   1     -44.866  13.513  21.748  0.00  0.00     0.185 C 
ENDBRANCH  19  21
ENDBRANCH  18  19
ENDBRANCH  17  18
ENDBRANCH  14  17
ENDBRANCH   1  12
TORSDOF 7
ENDMDL
MODEL 3
REMARK VINA RESULT:      -5.0      1.846      4.297
REMARK  7 active torsions:
REMARK  status: ('A' for Active; 'I' for Inactive)
REMARK    1  A    between atoms: N_4  and  C_1 
REMARK    2  A    between atoms: C_9  and  C_2 
REMARK    3  A    between atoms: C_7  and  N_4 
REMARK       I    between atoms: C_10  and  N_8 
REMARK    4  A    between atoms: C_17  and  C_10 
REMARK    5  A    between atoms: C_12  and  C_18 
REMARK    6  A    between atoms: O_20  and  C_12 
REMARK    7  A    between atoms: C_18  and  C_17 
ROOT
ATOM      1  N   UNL d   1     -47.775  12.444  22.953  0.00  0.00    -0.211 NA
ENDROOT
BRANCH   1   2
ATOM      2  C   UNL d   1     -47.065  12.813  22.683  0.00  0.00     0.118 A 
ATOM      3  C   UNL d   1     -46.921  13.646  22.650  0.00  0.00     0.084 A 
ATOM      4  C   UNL d   1     -46.160  13.756  22.353  0.00  0.00     0.013 A 
ATOM      5  C   UNL d   1     -45.778  14.513  22.224  0.00  0.00     0.001 C 
ATOM      6  C   UNL d   1     -45.828  13.036  22.202  0.00  0.00     0.031 A 
ATOM      7  S   UNL d   1     -46.373  12.449  22.400  0.00  0.00    -0.068 SA
ATOM      8  C   UNL d   1     -45.042  12.920  21.888  0.00  0.00     0.007 C 
BRANCH   3   9
ATOM      9  C   UNL d   1     -47.467  14.257  22.882  0.00  0.00     0.299 C 
ATOM     10  O   UNL d   1     -47.667  14.356  23.697  0.00  0.00    -0.264 OA
ATOM     11  N   UNL d   1     -47.818  14.776  22.299  0.00  0.00    -0.102 N 
ENDBRANCH   3   9
ENDBRANCH   1   2
BRANCH   1  12
ATOM     12  C   UNL d   1     -47.730  11.770  23.385  0.00  0.00     0.224 C 
ATOM     13  N   UNL d   1     -48.728  11.134  23.566  0.00  0.00    -0.179 NA
ATOM     14  C   UNL d   1     -49.427  11.391  23.252  0.00  0.00     0.281 C 
ATOM     15  O   UNL d   1     -50.098  10.962  23.374  0.00  0.00    -0.265 OA
ATOM     16  S   UNL d   1     -47.028  11.517  23.697  0.00  0.00    -0.037 SA
BRANCH  14  17
ATOM     17  C   UNL d   1     -49.458  12.063  22.823  0.00  0.00     0.068 C 
BRANCH  17  18
ATOM     18  C   UNL d   1     -50.112  12.199  22.363  0.00  0.00     0.073 C 
BRANCH  18  19
ATOM     19  C   UNL d   1     -50.473  12.927  22.422  0.00  0.00     0.296 C 
ATOM     20  O   UNL d   1     -50.898  13.105  23.054  0.00  0.00    -0.259 OA
BRANCH  19  21
ATOM     21  O   UNL d   1     -50.388  13.466  21.822  0.00  0.00    -0.296 OA
ATOM     22  C   UNL d   1     -50.923  14.081  21.758  0.00  0.00     0.185 C 
ENDBRANCH  19  21
ENDBRANCH  18  19
ENDBRANCH  17  18
ENDBRANCH  14  17
ENDBRANCH   1  12
TORSDOF 7
ENDMDL
MODEL 4
REMARK VINA RESULT:      -5.0      1.853      4.053
REMARK  7 active torsions:
REMARK  status: ('A' for Active; 'I' for Inactive)
REMARK    1  A    between atoms: N_4  and  C_1 
REMARK    2  A    between atoms: C_9  and  C_2 
REMARK    3  A    between atoms: C_7  and  N_4 
REMARK       I    between atoms: C_10  and  N_8 
REMARK    4  A    between atoms: C_17  and  C_10 
REMARK    5  A    between atoms: C_12  and  C_18 
REMARK    6  A    between atoms: O_20  and  C_12 
REMARK    7  A    between atoms: C_18  and  C_17 
ROOT
ATOM      1  N   UNL d   1     -48.440  12.829  21.931  0.00  0.00    -0.211 NA
ENDROOT
BRANCH   1   2
ATOM      2  C   UNL d   1     -47.935  12.404  22.457  0.00  0.00     0.118 A 
ATOM      3  C   UNL d   1     -47.200  12.683  22.771  0.00  0.00     0.084 A 
ATOM      4  C   UNL d   1     -46.896  12.090  23.257  0.00  0.00     0.013 A 
ATOM      5  C   UNL d   1     -46.159  12.130  23.692  0.00  0.00     0.001 C 
ATOM      6  C   UNL d   1     -47.404  11.463  23.258  0.00  0.00     0.031 A 
ATOM      7  S   UNL d   1     -48.045  11.643  22.771  0.00  0.00    -0.068 SA
ATOM      8  C   UNL d   1     -47.281  10.740  23.698  0.00  0.00     0.007 C 
BRANCH   3   9
ATOM      9  C   UNL d   1     -46.842  13.439  22.611  0.00  0.00     0.299 C 
ATOM     10  O   UNL d   1     -47.055  14.112  23.075  0.00  0.00    -0.264 OA
ATOM     11  N   UNL d   1     -46.267  13.528  21.983  0.00  0.00    -0.102 N 
ENDBRANCH   3   9
ENDBRANCH   1   2
BRANCH   1  12
ATOM     12  C   UNL d   1     -48.813  12.437  21.339  0.00  0.00     0.224 C 
ATOM     13  N   UNL d   1     -49.923  12.768  21.037  0.00  0.00    -0.179 NA
ATOM     14  C   UNL d   1     -50.278  13.378  21.432  0.00  0.00     0.281 C 
ATOM     15  O   UNL d   1     -51.025  13.600  21.228  0.00  0.00    -0.265 OA
ATOM     16  S   UNL d   1     -48.453  11.828  20.947  0.00  0.00    -0.037 SA
BRANCH  14  17
ATOM     17  C   UNL d   1     -49.896  13.760  22.019  0.00  0.00     0.068 C 
BRANCH  17  18
ATOM     18  C   UNL d   1     -50.337  14.148  22.579  0.00  0.00     0.073 C 
BRANCH  18  19
ATOM     19  C   UNL d   1     -50.135  14.917  22.755  0.00  0.00     0.296 C 
ATOM     20  O   UNL d   1     -50.035  15.438  22.180  0.00  0.00    -0.259 OA
BRANCH  19  21
ATOM     21  O   UNL d   1     -50.037  15.139  23.529  0.00  0.00    -0.296 OA
ATOM     22  C   UNL d   1     -49.651  15.840  23.698  0.00  0.00     0.185 C 
ENDBRANCH  19  21
ENDBRANCH  18  19
ENDBRANCH  17  18
ENDBRANCH  14  17
ENDBRANCH   1  12
TORSDOF 7
ENDMDL
MODEL 5
REMARK VINA RESULT:      -5.0      8.575     10.050
REMARK  7 active torsions:
REMARK  status: ('A' for Active; 'I' for Inactive)
REMARK    1  A    between atoms: N_4  and  C_1 
REMARK    2  A    between atoms: C_9  and  C_2 
REMARK    3  A    between atoms: C_7  and  N_4 
REMARK       I    between atoms: C_10  and  N_8 
REMARK    4  A    between atoms: C_17  and  C_10 
REMARK    5  A    between atoms: C_12  and  C_18 
REMARK    6  A    between atoms: O_20  and  C_12 
REMARK    7  A    between atoms: C_18  and  C_17 
ROOT
ATOM      1  N   UNL d   1     -39.137  14.372  19.596  0.00  0.00    -0.211 NA
ENDROOT
BRANCH   1   2
ATOM      2  C   UNL d   1     -39.033  14.828  20.299  0.00  0.00     0.118 A 
ATOM      3  C   UNL d   1     -39.650  15.097  20.810  0.00  0.00     0.084 A 
ATOM      4  C   UNL d   1     -39.297  15.520  21.425  0.00  0.00     0.013 A 
ATOM      5  C   UNL d   1     -39.711  15.896  22.075  0.00  0.00     0.001 C 
ATOM      6  C   UNL d   1     -38.497  15.524  21.318  0.00  0.00     0.031 A 
ATOM      7  S   UNL d   1     -38.322  15.103  20.630  0.00  0.00    -0.068 SA
ATOM      8  C   UNL d   1     -37.940  15.907  21.840  0.00  0.00     0.007 C 
BRANCH   3   9
ATOM      9  C   UNL d   1     -40.483  14.956  20.707  0.00  0.00     0.299 C 
ATOM     10  O   UNL d   1     -40.971  15.548  20.354  0.00  0.00    -0.264 OA
ATOM     11  N   UNL d   1     -40.837  14.217  20.957  0.00  0.00    -0.102 N 
ENDBRANCH   3   9
ENDBRANCH   1   2
BRANCH   1  12
ATOM     12  C   UNL d   1     -38.603  13.803  19.411  0.00  0.00     0.224 C 
ATOM     13  N   UNL d   1     -38.516  13.441  18.273  0.00  0.00    -0.179 NA
ATOM     14  C   UNL d   1     -38.995  13.772  17.712  0.00  0.00     0.281 C 
ATOM     15  O   UNL d   1     -38.936  13.527  16.946  0.00  0.00    -0.265 OA
ATOM     16  S   UNL d   1     -38.126  13.475  19.976  0.00  0.00    -0.037 SA
BRANCH  14  17
ATOM     17  C   UNL d   1     -39.523  14.337  17.910  0.00  0.00     0.068 C 
BRANCH  17  18
ATOM     18  C   UNL d   1     -39.761  14.860  17.337  0.00  0.00     0.073 C 
BRANCH  18  19
ATOM     19  C   UNL d   1     -40.560  15.000  17.261  0.00  0.00     0.296 C 
ATOM     20  O   UNL d   1     -41.065  14.403  17.249  0.00  0.00    -0.259 OA
BRANCH  19  21
ATOM     21  O   UNL d   1     -40.828  15.763  17.197  0.00  0.00    -0.296 OA
ATOM     22  C   UNL d   1     -41.486  15.918  16.736  0.00  0.00     0.185 C 
ENDBRANCH  19  21
ENDBRANCH  18  19
ENDBRANCH  17  18
ENDBRANCH  14  17
ENDBRANCH   1  12
TORSDOF 7
ENDMDL
MODEL 6
REMARK VINA RESULT:      -4.6      8.176      9.898
REMARK  7 active torsions:
REMARK  status: ('A' for Active; 'I' for Inactive)
REMARK    1  A    between atoms: N_4  and  C_1 
REMARK    2  A    between atoms: C_9  and  C_2 
REMARK    3  A    between atoms: C_7  and  N_4 
REMARK       I    between atoms: C_10  and  N_8 
REMARK    4  A    between atoms: C_17  and  C_10 
REMARK    5  A    between atoms: C_12  and  C_18 
REMARK    6  A    between atoms: O_20  and  C_12 
REMARK    7  A    between atoms: C_18  and  C_17 
ROOT
ATOM      1  N   UNL d   1     -39.150  15.204  19.171  0.00  0.00    -0.211 NA
ENDROOT
BRANCH   1   2
ATOM      2  C   UNL d   1     -38.993  14.684  18.524  0.00  0.00     0.118 A 
ATOM      3  C   UNL d   1     -39.446  14.629  17.812  0.00  0.00     0.084 A 
ATOM      4  C   UNL d   1     -39.095  14.052  17.337  0.00  0.00     0.013 A 
ATOM      5  C   UNL d   1     -39.368  13.810  16.562  0.00  0.00     0.001 C 
ATOM      6  C   UNL d   1     -38.452  13.751  17.720  0.00  0.00     0.031 A 
ATOM      7  S   UNL d   1     -38.378  14.130  18.449  0.00  0.00    -0.068 SA
ATOM      8  C   UNL d   1     -37.943  13.141  17.406  0.00  0.00     0.007 C 
BRANCH   3   9
ATOM      9  C   UNL d   1     -40.139  15.087  17.623  0.00  0.00     0.299 C 
ATOM     10  O   UNL d   1     -40.057  15.886  17.361  0.00  0.00    -0.264 OA
ATOM     11  N   UNL d   1     -40.921  14.748  17.695  0.00  0.00    -0.102 N 
ENDBRANCH   3   9
ENDBRANCH   1   2
BRANCH   1  12
ATOM     12  C   UNL d   1     -38.553  15.644  19.478  0.00  0.00     0.224 C 
ATOM     13  N   UNL d   1     -38.581  15.922  20.642  0.00  0.00    -0.179 NA
ATOM     14  C   UNL d   1     -39.196  15.664  21.098  0.00  0.00     0.281 C 
ATOM     15  O   UNL d   1     -39.214  15.851  21.882  0.00  0.00    -0.265 OA
ATOM     16  S   UNL d   1     -37.940  15.900  19.016  0.00  0.00    -0.037 SA
BRANCH  14  17
ATOM     17  C   UNL d   1     -39.784  15.227  20.780  0.00  0.00     0.068 C 
BRANCH  17  18
ATOM     18  C   UNL d   1     -40.276  14.820  21.281  0.00  0.00     0.073 C 
BRANCH  18  19
ATOM     19  C   UNL d   1     -41.041  14.686  21.034  0.00  0.00     0.296 C 
ATOM     20  O   UNL d   1     -41.532  15.287  20.933  0.00  0.00    -0.259 OA
BRANCH  19  21
ATOM     21  O   UNL d   1     -41.291  13.927  20.894  0.00  0.00    -0.296 OA
ATOM     22  C   UNL d   1     -42.089  13.755  20.935  0.00  0.00     0.185 C 
ENDBRANCH  19  21
ENDBRANCH  18  19
ENDBRANCH  17  18
ENDBRANCH  14  17
ENDBRANCH   1  12
TORSDOF 7
ENDMDL
MODEL 7
REMARK VINA RESULT:      -4.5      8.151      9.763
REMARK  7 active torsions:
REMARK  status: ('A' for Active; 'I' for Inactive)
REMARK    1  A    between atoms: N_4  and  C_1 
REMARK    2  A    between atoms: C_9  and  C_2 
REMARK    3  A    between atoms: C_7  and  N_4 
REMARK       I    between atoms: C_10  and  N_8 
REMARK    4  A    between atoms: C_17  and  C_10 
REMARK    5  A    between atoms: C_12  and  C_18 
REMARK    6  A    between atoms: O_20  and  C_12 
REMARK    7  A    between atoms: C_18  and  C_17 
ROOT
ATOM      1  N   UNL d   1     -39.954  14.836  18.992  0.00  0.00    -0.211 NA
ENDROOT
BRANCH   1   2
ATOM      2  C   UNL d   1     -40.158  14.604  19.777  0.00  0.00     0.118 A 
ATOM      3  C   UNL d   1     -39.622  14.537  20.428  0.00  0.00     0.084 A 
ATOM      4  C   UNL d   1     -40.058  14.296  21.086  0.00  0.00     0.013 A 
ATOM      5  C   UNL d   1     -39.742  14.156  21.870  0.00  0.00     0.001 C 
ATOM      6  C   UNL d   1     -40.832  14.211  20.873  0.00  0.00     0.031 A 
ATOM      7  S   UNL d   1     -40.907  14.397  20.073  0.00  0.00    -0.068 SA
ATOM      8  C   UNL d   1     -41.456  13.968  21.404  0.00  0.00     0.007 C 
BRANCH   3   9
ATOM      9  C   UNL d   1     -38.785  14.692  20.405  0.00  0.00     0.299 C 
ATOM     10  O   UNL d   1     -38.238  14.049  20.364  0.00  0.00    -0.264 OA
ATOM     11  N   UNL d   1     -38.487  15.494  20.423  0.00  0.00    -0.102 N 
ENDBRANCH   3   9
ENDBRANCH   1   2
BRANCH   1  12
ATOM     12  C   UNL d   1     -40.399  15.387  18.615  0.00  0.00     0.224 C 
ATOM     13  N   UNL d   1     -40.396  15.411  17.418  0.00  0.00    -0.179 NA
ATOM     14  C   UNL d   1     -39.950  14.875  17.010  0.00  0.00     0.281 C 
ATOM     15  O   UNL d   1     -39.948  14.891  16.204  0.00  0.00    -0.265 OA
ATOM     16  S   UNL d   1     -40.844  15.922  19.028  0.00  0.00    -0.037 SA
BRANCH  14  17
ATOM     17  C   UNL d   1     -39.512  14.331  17.397  0.00  0.00     0.068 C 
BRANCH  17  18
ATOM     18  C   UNL d   1     -39.315  13.646  17.009  0.00  0.00     0.073 C 
BRANCH  18  19
ATOM     19  C   UNL d   1     -38.615  13.283  17.213  0.00  0.00     0.296 C 
ATOM     20  O   UNL d   1     -37.943  13.683  17.193  0.00  0.00    -0.259 OA
BRANCH  19  21
ATOM     21  O   UNL d   1     -38.619  12.503  17.437  0.00  0.00    -0.296 OA
ATOM     22  C   UNL d   1     -37.940  12.175  17.754  0.00  0.00     0.185 C 
ENDBRANCH  19  21
ENDBRANCH  18  19
ENDBRANCH  17  18
ENDBRANCH  14  17
ENDBRANCH   1  12
TORSDOF 7
ENDMDL
MODEL 8
REMARK VINA RESULT:      -4.4      8.531     10.108
REMARK  7 active torsions:
REMARK  status: ('A' for Active; 'I' for Inactive)
REMARK    1  A    between atoms: N_4  and  C_1 
REMARK    2  A    between atoms: C_9  and  C_2 
REMARK    3  A    between atoms: C_7  and  N_4 
REMARK       I    between atoms: C_10  and  N_8 
REMARK    4  A    between atoms: C_17  and  C_10 
REMARK    5  A    between atoms: C_12  and  C_18 
REMARK    6  A    between atoms: O_20  and  C_12 
REMARK    7  A    between atoms: C_18  and  C_17 
ROOT
ATOM      1  N   UNL d   1     -39.903  15.202  18.537  0.00  0.00    -0.211 NA
ENDROOT
BRANCH   1   2
ATOM      2  C   UNL d   1     -39.445  15.162  17.829  0.00  0.00     0.118 A 
ATOM      3  C   UNL d   1     -39.203  14.454  17.435  0.00  0.00     0.084 A 
ATOM      4  C   UNL d   1     -38.767  14.675  16.770  0.00  0.00     0.013 A 
ATOM      5  C   UNL d   1     -38.411  14.138  16.205  0.00  0.00     0.001 C 
ATOM      6  C   UNL d   1     -38.729  15.480  16.735  0.00  0.00     0.031 A 
ATOM      7  S   UNL d   1     -39.141  15.791  17.379  0.00  0.00    -0.068 SA
ATOM      8  C   UNL d   1     -38.325  15.920  16.125  0.00  0.00     0.007 C 
BRANCH   3   9
ATOM      9  C   UNL d   1     -39.379  13.658  17.683  0.00  0.00     0.299 C 
ATOM     10  O   UNL d   1     -40.148  13.336  17.552  0.00  0.00    -0.264 OA
ATOM     11  N   UNL d   1     -38.783  13.177  18.066  0.00  0.00    -0.102 N 
ENDBRANCH   3   9
ENDBRANCH   1   2
BRANCH   1  12
ATOM     12  C   UNL d   1     -40.581  15.630  18.545  0.00  0.00     0.224 C 
ATOM     13  N   UNL d   1     -41.066  15.922  19.600  0.00  0.00    -0.179 NA
ATOM     14  C   UNL d   1     -40.706  15.685  20.283  0.00  0.00     0.281 C 
ATOM     15  O   UNL d   1     -41.034  15.882  20.993  0.00  0.00    -0.265 OA
ATOM     16  S   UNL d   1     -40.937  15.865  17.858  0.00  0.00    -0.037 SA
BRANCH  14  17
ATOM     17  C   UNL d   1     -40.031  15.259  20.262  0.00  0.00     0.068 C 
BRANCH  17  18
ATOM     18  C   UNL d   1     -39.796  14.873  20.936  0.00  0.00     0.073 C 
BRANCH  18  19
ATOM     19  C   UNL d   1     -38.996  14.818  21.081  0.00  0.00     0.296 C 
ATOM     20  O   UNL d   1     -38.528  15.429  20.942  0.00  0.00    -0.259 OA
BRANCH  19  21
ATOM     21  O   UNL d   1     -38.689  14.125  21.370  0.00  0.00    -0.296 OA
ATOM     22  C   UNL d   1     -37.952  13.877  21.114  0.00  0.00     0.185 C 
ENDBRANCH  19  21
ENDBRANCH  18  19
ENDBRANCH  17  18
ENDBRANCH  14  17
ENDBRANCH   1  12
TORSDOF 7
ENDMDL
MODEL 9
REMARK VINA RESULT:      -3.9      8.567     10.151
REMARK  7 active torsions:
REMARK  status: ('A' for Active; 'I' for Inactive)
REMARK    1  A    between atoms: N_4  and  C_1 
REMARK    2  A    between atoms: C_9  and  C_2 
REMARK    3  A    between atoms: C_7  and  N_4 
REMARK       I    between atoms: C_10  and  N_8 
REMARK    4  A    between atoms: C_17  and  C_10 
REMARK    5  A    between atoms: C_12  and  C_18 
REMARK    6  A    between atoms: O_20  and  C_12 
REMARK    7  A    between atoms: C_18  and  C_17 
ROOT
ATOM      1  N   UNL d   1     -38.782  14.854  20.045  0.00  0.00    -0.211 NA
ENDROOT
BRANCH   1   2
ATOM      2  C   UNL d   1     -38.788  14.430  20.775  0.00  0.00     0.118 A 
ATOM      3  C   UNL d   1     -39.474  14.234  21.229  0.00  0.00     0.084 A 
ATOM      4  C   UNL d   1     -39.222  13.821  21.897  0.00  0.00     0.013 A 
ATOM      5  C   UNL d   1     -39.730  13.512  22.515  0.00  0.00     0.001 C 
ATOM      6  C   UNL d   1     -38.418  13.753  21.878  0.00  0.00     0.031 A 
ATOM      7  S   UNL d   1     -38.139  14.123  21.195  0.00  0.00    -0.068 SA
ATOM      8  C   UNL d   1     -37.950  13.360  22.475  0.00  0.00     0.007 C 
BRANCH   3   9
ATOM      9  C   UNL d   1     -40.279  14.429  21.029  0.00  0.00     0.299 C 
ATOM     10  O   UNL d   1     -40.763  13.864  20.630  0.00  0.00    -0.264 OA
ATOM     11  N   UNL d   1     -40.606  15.195  21.227  0.00  0.00    -0.102 N 
ENDBRANCH   3   9
ENDBRANCH   1   2
BRANCH   1  12
ATOM     12  C   UNL d   1     -38.302  15.490  19.962  0.00  0.00     0.224 C 
ATOM     13  N   UNL d   1     -37.940  15.800  18.863  0.00  0.00    -0.179 NA
ATOM     14  C   UNL d   1     -38.184  15.366  18.227  0.00  0.00     0.281 C 
ATOM     15  O   UNL d   1     -37.940  15.576  17.487  0.00  0.00    -0.265 OA
ATOM     16  S   UNL d   1     -38.060  15.921  20.602  0.00  0.00    -0.037 SA
BRANCH  14  17
ATOM     17  C   UNL d   1     -38.663  14.735  18.323  0.00  0.00     0.068 C 
BRANCH  17  18
ATOM     18  C   UNL d   1     -38.933  14.350  17.662  0.00  0.00     0.073 C 
BRANCH  18  19
ATOM     19  C   UNL d   1     -39.118  13.559  17.733  0.00  0.00     0.296 C 
ATOM     20  O   UNL d   1     -39.865  13.331  17.750  0.00  0.00    -0.259 OA
BRANCH  19  21
ATOM     21  O   UNL d   1     -38.521  13.012  17.785  0.00  0.00    -0.296 OA
ATOM     22  C   UNL d   1     -38.606  12.292  17.406  0.00  0.00     0.185 C 
ENDBRANCH  19  21
ENDBRANCH  18  19
ENDBRANCH  17  18
ENDBRANCH  14  17
ENDBRANCH   1  12
TORSDOF 7
ENDMDL
