MODEL 1
REMARK VINA RESULT:      -3.2      0.000      0.000
REMARK  2 active torsions:
REMARK  status: ('A' for Active; 'I' for Inactive)
REMARK    1  A    between atoms: C_10  and  N_1 
REMARK    2  A    between atoms: C_6  and  C_7 
ROOT
ATOM      1  N   UNL d   1      31.849  16.905 -23.854  0.00  0.00    -0.288 N 
ATOM      2  C   UNL d   1      32.137  16.235 -23.459  0.00  0.00     0.183 A 
ATOM      3  N   UNL d   1      31.496  15.721 -23.320  0.00  0.00    -0.224 NA
ATOM      4  C   UNL d   1      31.034  16.807 -23.959  0.00  0.00     0.083 A 
ATOM      5  C   UNL d   1      30.817  16.081 -23.632  0.00  0.00     0.099 A 
ATOM      6  C   UNL d   1      29.459  16.316 -24.010  0.00  0.00     0.066 A 
ATOM      7  C   UNL d   1      30.027  15.837 -23.659  0.00  0.00     0.027 A 
ATOM      8  C   UNL d   1      30.461  17.288 -24.312  0.00  0.00     0.019 A 
ATOM      9  C   UNL d   1      29.676  17.042 -24.337  0.00  0.00     0.008 A 
ENDROOT
BRANCH   1  10
ATOM     10  C   UNL d   1      32.292  17.550 -24.096  0.00  0.00     0.066 A 
ATOM     11  C   UNL d   1      32.424  18.179 -23.577  0.00  0.00     0.018 A 
ATOM     12  C   UNL d   1      32.864  18.824 -23.814  0.00  0.00     0.002 A 
ATOM     13  C   UNL d   1      33.186  18.857 -24.581  0.00  0.00     0.000 A 
ATOM     14  C   UNL d   1      33.054  18.230 -25.097  0.00  0.00     0.002 A 
ATOM     15  C   UNL d   1      32.606  17.574 -24.856  0.00  0.00     0.018 A 
ENDBRANCH   1  10
BRANCH   6  16
ATOM     16  C   UNL d   1      28.673  16.071 -24.035  0.00  0.00     0.211 C 
ATOM     17  O   UNL d   1      28.138  16.340 -23.468  0.00  0.00    -0.644 OA
ATOM     18  O   UNL d   1      28.416  15.553 -24.631  0.00  0.00    -0.644 OA
ENDBRANCH   6  16
TORSDOF 2
ENDMDL
MODEL 2
REMARK VINA RESULT:      -3.0      1.961      3.621
REMARK  2 active torsions:
REMARK  status: ('A' for Active; 'I' for Inactive)
REMARK    1  A    between atoms: C_10  and  N_1 
REMARK    2  A    between atoms: C_6  and  C_7 
ROOT
ATOM      1  N   UNL d   1      30.680  15.973 -23.623  0.00  0.00    -0.288 N 
ATOM      2  C   UNL d   1      31.207  15.453 -23.247  0.00  0.00     0.183 A 
ATOM      3  N   UNL d   1      31.957  15.813 -23.228  0.00  0.00    -0.224 NA
ATOM      4  C   UNL d   1      31.104  16.652 -23.836  0.00  0.00     0.083 A 
ATOM      5  C   UNL d   1      31.887  16.554 -23.594  0.00  0.00     0.099 A 
ATOM      6  C   UNL d   1      32.210  17.844 -24.119  0.00  0.00     0.066 A 
ATOM      7  C   UNL d   1      32.440  17.152 -23.736  0.00  0.00     0.027 A 
ATOM      8  C   UNL d   1      30.874  17.348 -24.220  0.00  0.00     0.019 A 
ATOM      9  C   UNL d   1      31.427  17.941 -24.361  0.00  0.00     0.008 A 
ENDROOT
BRANCH   1  10
ATOM     10  C   UNL d   1      29.885  15.839 -23.759  0.00  0.00     0.066 A 
ATOM     11  C   UNL d   1      29.335  15.958 -23.153  0.00  0.00     0.018 A 
ATOM     12  C   UNL d   1      28.541  15.827 -23.284  0.00  0.00     0.002 A 
ATOM     13  C   UNL d   1      28.273  15.571 -24.029  0.00  0.00     0.000 A 
ATOM     14  C   UNL d   1      28.820  15.453 -24.632  0.00  0.00     0.002 A 
ATOM     15  C   UNL d   1      29.628  15.586 -24.499  0.00  0.00     0.018 A 
ENDBRANCH   1  10
BRANCH   6  16
ATOM     16  C   UNL d   1      32.762  18.438 -24.260  0.00  0.00     0.211 C 
ATOM     17  O   UNL d   1      32.881  19.032 -23.700  0.00  0.00    -0.644 OA
ATOM     18  O   UNL d   1      33.201  18.442 -24.965  0.00  0.00    -0.644 OA
ENDBRANCH   6  16
TORSDOF 2
ENDMDL
MODEL 3
REMARK VINA RESULT:      -2.2      2.798      4.160
REMARK  2 active torsions:
REMARK  status: ('A' for Active; 'I' for Inactive)
REMARK    1  A    between atoms: C_10  and  N_1 
REMARK    2  A    between atoms: C_6  and  C_7 
ROOT
ATOM      1  N   UNL d   1      32.860  17.803 -24.170  0.00  0.00    -0.288 N 
ATOM      2  C   UNL d   1      33.061  18.111 -24.914  0.00  0.00     0.183 A 
ATOM      3  N   UNL d   1      33.235  18.920 -24.820  0.00  0.00    -0.224 NA
ATOM      4  C   UNL d   1      32.909  18.419 -23.619  0.00  0.00     0.083 A 
ATOM      5  C   UNL d   1      33.138  19.104 -24.017  0.00  0.00     0.099 A 
ATOM      6  C   UNL d   1      33.096  19.832 -22.788  0.00  0.00     0.066 A 
ATOM      7  C   UNL d   1      33.232  19.812 -23.599  0.00  0.00     0.027 A 
ATOM      8  C   UNL d   1      32.773  18.441 -22.803  0.00  0.00     0.019 A 
ATOM      9  C   UNL d   1      32.866  19.147 -22.390  0.00  0.00     0.008 A 
ENDROOT
BRANCH   1  10
ATOM     10  C   UNL d   1      32.651  17.028 -24.009  0.00  0.00     0.066 A 
ATOM     11  C   UNL d   1      31.857  16.798 -24.047  0.00  0.00     0.018 A 
ATOM     12  C   UNL d   1      31.643  16.027 -23.887  0.00  0.00     0.002 A 
ATOM     13  C   UNL d   1      32.220  15.462 -23.685  0.00  0.00     0.000 A 
ATOM     14  C   UNL d   1      33.009  15.692 -23.648  0.00  0.00     0.002 A 
ATOM     15  C   UNL d   1      33.227  16.476 -23.810  0.00  0.00     0.018 A 
ENDBRANCH   1  10
BRANCH   6  16
ATOM     16  C   UNL d   1      33.190  20.538 -22.374  0.00  0.00     0.211 C 
ATOM     17  O   UNL d   1      33.240  20.529 -21.551  0.00  0.00    -0.644 OA
ATOM     18  O   UNL d   1      33.233  21.260 -22.782  0.00  0.00    -0.644 OA
ENDBRANCH   6  16
TORSDOF 2
ENDMDL
MODEL 4
REMARK VINA RESULT:      -2.0      3.939      5.191
REMARK  2 active torsions:
REMARK  status: ('A' for Active; 'I' for Inactive)
REMARK    1  A    between atoms: C_10  and  N_1 
REMARK    2  A    between atoms: C_6  and  C_7 
ROOT
ATOM      1  N   UNL d   1      32.904  21.176 -21.226  0.00  0.00    -0.288 N 
ATOM      2  C   UNL d   1      33.094  20.785 -20.519  0.00  0.00     0.183 A 
ATOM      3  N   UNL d   1      33.223  19.981 -20.694  0.00  0.00    -0.224 NA
ATOM      4  C   UNL d   1      32.915  20.616 -21.836  0.00  0.00     0.083 A 
ATOM      5  C   UNL d   1      33.111  19.884 -21.510  0.00  0.00     0.099 A 
ATOM      6  C   UNL d   1      33.020  19.284 -22.804  0.00  0.00     0.066 A 
ATOM      7  C   UNL d   1      33.163  19.217 -21.997  0.00  0.00     0.027 A 
ATOM      8  C   UNL d   1      32.772  20.681 -22.648  0.00  0.00     0.019 A 
ATOM      9  C   UNL d   1      32.825  20.016 -23.130  0.00  0.00     0.008 A 
ENDROOT
BRANCH   1  10
ATOM     10  C   UNL d   1      32.735  21.973 -21.307  0.00  0.00     0.066 A 
ATOM     11  C   UNL d   1      32.059  22.290 -20.952  0.00  0.00     0.018 A 
ATOM     12  C   UNL d   1      31.886  23.084 -21.030  0.00  0.00     0.002 A 
ATOM     13  C   UNL d   1      32.387  23.584 -21.468  0.00  0.00     0.000 A 
ATOM     14  C   UNL d   1      33.059  23.267 -21.821  0.00  0.00     0.002 A 
ATOM     15  C   UNL d   1      33.235  22.460 -21.742  0.00  0.00     0.018 A 
ENDBRANCH   1  10
BRANCH   6  16
ATOM     16  C   UNL d   1      33.073  18.618 -23.287  0.00  0.00     0.211 C 
ATOM     17  O   UNL d   1      33.240  17.881 -22.957  0.00  0.00    -0.644 OA
ATOM     18  O   UNL d   1      32.958  18.687 -24.106  0.00  0.00    -0.644 OA
ENDBRANCH   6  16
TORSDOF 2
ENDMDL
MODEL 5
REMARK VINA RESULT:      -1.9      6.089      7.427
REMARK  2 active torsions:
REMARK  status: ('A' for Active; 'I' for Inactive)
REMARK    1  A    between atoms: C_10  and  N_1 
REMARK    2  A    between atoms: C_6  and  C_7 
ROOT
ATOM      1  N   UNL d   1      32.353  23.102 -19.783  0.00  0.00    -0.288 N 
ATOM      2  C   UNL d   1      32.042  23.617 -20.354  0.00  0.00     0.183 A 
ATOM      3  N   UNL d   1      32.057  23.226 -21.090  0.00  0.00    -0.224 NA
ATOM      4  C   UNL d   1      32.559  22.395 -20.163  0.00  0.00     0.083 A 
ATOM      5  C   UNL d   1      32.378  22.472 -20.964  0.00  0.00     0.099 A 
ATOM      6  C   UNL d   1      32.856  21.146 -21.199  0.00  0.00     0.066 A 
ATOM      7  C   UNL d   1      32.527  21.844 -21.482  0.00  0.00     0.027 A 
ATOM      8  C   UNL d   1      32.890  21.692 -19.880  0.00  0.00     0.019 A 
ATOM      9  C   UNL d   1      33.037  21.069 -20.398  0.00  0.00     0.008 A 
ENDROOT
BRANCH   1  10
ATOM     10  C   UNL d   1      32.440  23.262 -18.985  0.00  0.00     0.066 A 
ATOM     11  C   UNL d   1      31.807  23.143 -18.467  0.00  0.00     0.018 A 
ATOM     12  C   UNL d   1      31.889  23.301 -17.671  0.00  0.00     0.002 A 
ATOM     13  C   UNL d   1      32.611  23.584 -17.369  0.00  0.00     0.000 A 
ATOM     14  C   UNL d   1      33.241  23.702 -17.885  0.00  0.00     0.002 A 
ATOM     15  C   UNL d   1      33.157  23.542 -18.695  0.00  0.00     0.018 A 
ENDBRANCH   1  10
BRANCH   6  16
ATOM     16  C   UNL d   1      33.004  20.522 -21.716  0.00  0.00     0.211 C 
ATOM     17  O   UNL d   1      32.940  19.743 -21.452  0.00  0.00    -0.644 OA
ATOM     18  O   UNL d   1      33.218  20.674 -22.504  0.00  0.00    -0.644 OA
ENDBRANCH   6  16
TORSDOF 2
ENDMDL
MODEL 6
REMARK VINA RESULT:      -1.5      1.280      1.986
REMARK  2 active torsions:
REMARK  status: ('A' for Active; 'I' for Inactive)
REMARK    1  A    between atoms: C_10  and  N_1 
REMARK    2  A    between atoms: C_6  and  C_7 
ROOT
ATOM      1  N   UNL d   1      32.723  18.293 -23.252  0.00  0.00    -0.288 N 
ATOM      2  C   UNL d   1      33.241  17.661 -23.112  0.00  0.00     0.183 A 
ATOM      3  N   UNL d   1      32.844  16.954 -23.301  0.00  0.00    -0.224 NA
ATOM      4  C   UNL d   1      32.007  17.978 -23.527  0.00  0.00     0.083 A 
ATOM      5  C   UNL d   1      32.082  17.157 -23.557  0.00  0.00     0.099 A 
ATOM      6  C   UNL d   1      30.740  17.054 -24.040  0.00  0.00     0.066 A 
ATOM      7  C   UNL d   1      31.446  16.695 -23.814  0.00  0.00     0.027 A 
ATOM      8  C   UNL d   1      31.297  18.338 -23.754  0.00  0.00     0.019 A 
ATOM      9  C   UNL d   1      30.666  17.875 -24.010  0.00  0.00     0.008 A 
ENDROOT
BRANCH   1  10
ATOM     10  C   UNL d   1      32.887  19.087 -23.140  0.00  0.00     0.066 A 
ATOM     11  C   UNL d   1      33.076  19.566 -23.786  0.00  0.00     0.018 A 
ATOM     12  C   UNL d   1      33.241  20.358 -23.680  0.00  0.00     0.002 A 
ATOM     13  C   UNL d   1      33.221  20.694 -22.918  0.00  0.00     0.000 A 
ATOM     14  C   UNL d   1      33.033  20.216 -22.275  0.00  0.00     0.002 A 
ATOM     15  C   UNL d   1      32.866  19.411 -22.384  0.00  0.00     0.018 A 
ENDBRANCH   1  10
BRANCH   6  16
ATOM     16  C   UNL d   1      30.108  16.592 -24.296  0.00  0.00     0.211 C 
ATOM     17  O   UNL d   1      29.911  16.569 -25.096  0.00  0.00    -0.644 OA
ATOM     18  O   UNL d   1      29.667  16.148 -23.750  0.00  0.00    -0.644 OA
ENDBRANCH   6  16
TORSDOF 2
ENDMDL
MODEL 7
REMARK VINA RESULT:      -1.1      3.861      5.412
REMARK  2 active torsions:
REMARK  status: ('A' for Active; 'I' for Inactive)
REMARK    1  A    between atoms: C_10  and  N_1 
REMARK    2  A    between atoms: C_6  and  C_7 
ROOT
ATOM      1  N   UNL d   1      33.050  20.058 -23.020  0.00  0.00    -0.288 N 
ATOM      2  C   UNL d   1      33.198  20.593 -23.637  0.00  0.00     0.183 A 
ATOM      3  N   UNL d   1      33.239  21.358 -23.312  0.00  0.00    -0.224 NA
ATOM      4  C   UNL d   1      33.000  20.492 -22.315  0.00  0.00     0.083 A 
ATOM      5  C   UNL d   1      33.116  21.289 -22.494  0.00  0.00     0.099 A 
ATOM      6  C   UNL d   1      32.959  21.621 -21.114  0.00  0.00     0.066 A 
ATOM      7  C   UNL d   1      33.095  21.854 -21.891  0.00  0.00     0.027 A 
ATOM      8  C   UNL d   1      32.864  20.260 -21.533  0.00  0.00     0.019 A 
ATOM      9  C   UNL d   1      32.843  20.824 -20.935  0.00  0.00     0.008 A 
ENDROOT
BRANCH   1  10
ATOM     10  C   UNL d   1      32.968  19.247 -23.092  0.00  0.00     0.066 A 
ATOM     11  C   UNL d   1      32.611  18.926 -23.765  0.00  0.00     0.018 A 
ATOM     12  C   UNL d   1      32.527  18.119 -23.843  0.00  0.00     0.002 A 
ATOM     13  C   UNL d   1      32.799  17.607 -23.246  0.00  0.00     0.000 A 
ATOM     14  C   UNL d   1      33.155  17.927 -22.576  0.00  0.00     0.002 A 
ATOM     15  C   UNL d   1      33.241  18.748 -22.498  0.00  0.00     0.018 A 
ENDBRANCH   1  10
BRANCH   6  16
ATOM     16  C   UNL d   1      32.939  22.185 -20.514  0.00  0.00     0.211 C 
ATOM     17  O   UNL d   1      33.097  21.965 -19.735  0.00  0.00    -0.644 OA
ATOM     18  O   UNL d   1      32.760  22.977 -20.690  0.00  0.00    -0.644 OA
ENDBRANCH   6  16
TORSDOF 2
ENDMDL
MODEL 8
REMARK VINA RESULT:      -0.9      1.267      2.145
REMARK  2 active torsions:
REMARK  status: ('A' for Active; 'I' for Inactive)
REMARK    1  A    between atoms: C_10  and  N_1 
REMARK    2  A    between atoms: C_6  and  C_7 
ROOT
ATOM      1  N   UNL d   1      30.102  17.300 -24.454  0.00  0.00    -0.288 N 
ATOM      2  C   UNL d   1      29.723  17.982 -24.736  0.00  0.00     0.183 A 
ATOM      3  N   UNL d   1      28.904  17.895 -24.608  0.00  0.00    -0.224 NA
ATOM      4  C   UNL d   1      29.519  16.793 -24.153  0.00  0.00     0.083 A 
ATOM      5  C   UNL d   1      28.786  17.158 -24.248  0.00  0.00     0.099 A 
ATOM      6  C   UNL d   1      28.147  16.030 -23.647  0.00  0.00     0.066 A 
ATOM      7  C   UNL d   1      28.099  16.774 -23.993  0.00  0.00     0.027 A 
ATOM      8  C   UNL d   1      29.566  16.044 -23.804  0.00  0.00     0.019 A 
ATOM      9  C   UNL d   1      28.881  15.665 -23.552  0.00  0.00     0.008 A 
ENDROOT
BRANCH   1  10
ATOM     10  C   UNL d   1      30.906  17.153 -24.470  0.00  0.00     0.066 A 
ATOM     11  C   UNL d   1      31.211  16.574 -24.976  0.00  0.00     0.018 A 
ATOM     12  C   UNL d   1      32.012  16.423 -24.995  0.00  0.00     0.002 A 
ATOM     13  C   UNL d   1      32.534  16.849 -24.506  0.00  0.00     0.000 A 
ATOM     14  C   UNL d   1      32.230  17.425 -24.003  0.00  0.00     0.002 A 
ATOM     15  C   UNL d   1      31.415  17.579 -23.983  0.00  0.00     0.018 A 
ENDBRANCH   1  10
BRANCH   6  16
ATOM     16  C   UNL d   1      27.462  15.649 -23.394  0.00  0.00     0.211 C 
ATOM     17  O   UNL d   1      26.874  15.453 -23.939  0.00  0.00    -0.644 OA
ATOM     18  O   UNL d   1      27.359  15.461 -22.592  0.00  0.00    -0.644 OA
ENDBRANCH   6  16
TORSDOF 2
ENDMDL
MODEL 9
REMARK VINA RESULT:      -0.7      3.023      4.265
REMARK  2 active torsions:
REMARK  status: ('A' for Active; 'I' for Inactive)
REMARK    1  A    between atoms: C_10  and  N_1 
REMARK    2  A    between atoms: C_6  and  C_7 
ROOT
ATOM      1  N   UNL d   1      33.078  20.266 -22.731  0.00  0.00    -0.288 N 
ATOM      2  C   UNL d   1      33.186  20.694 -23.433  0.00  0.00     0.183 A 
ATOM      3  N   UNL d   1      33.240  20.151 -24.062  0.00  0.00    -0.224 NA
ATOM      4  C   UNL d   1      33.065  19.461 -22.925  0.00  0.00     0.083 A 
ATOM      5  C   UNL d   1      33.165  19.390 -23.741  0.00  0.00     0.099 A 
ATOM      6  C   UNL d   1      33.084  17.968 -23.628  0.00  0.00     0.066 A 
ATOM      7  C   UNL d   1      33.174  18.641 -24.092  0.00  0.00     0.027 A 
ATOM      8  C   UNL d   1      32.975  18.782 -22.460  0.00  0.00     0.019 A 
ATOM      9  C   UNL d   1      32.985  18.038 -22.812  0.00  0.00     0.008 A 
ENDROOT
BRANCH   1  10
ATOM     10  C   UNL d   1      32.998  20.581 -21.980  0.00  0.00     0.066 A 
ATOM     11  C   UNL d   1      32.680  21.338 -21.881  0.00  0.00     0.018 A 
ATOM     12  C   UNL d   1      32.598  21.657 -21.135  0.00  0.00     0.002 A 
ATOM     13  C   UNL d   1      32.834  21.226 -20.463  0.00  0.00     0.000 A 
ATOM     14  C   UNL d   1      33.150  20.473 -20.563  0.00  0.00     0.002 A 
ATOM     15  C   UNL d   1      33.234  20.148 -21.321  0.00  0.00     0.018 A 
ENDBRANCH   1  10
BRANCH   6  16
ATOM     16  C   UNL d   1      33.094  17.223 -23.979  0.00  0.00     0.211 C 
ATOM     17  O   UNL d   1      32.964  16.549 -23.521  0.00  0.00    -0.644 OA
ATOM     18  O   UNL d   1      33.234  17.147 -24.794  0.00  0.00    -0.644 OA
ENDBRANCH   6  16
TORSDOF 2
ENDMDL
