MODEL 1
REMARK VINA RESULT:      10.8      0.000      0.000
REMARK  6 active torsions:
REMARK  status: ('A' for Active; 'I' for Inactive)
REMARK    1  A    between atoms: C_2  and  S_1 
REMARK    2  A    between atoms: N_10  and  S_1 
REMARK    3  A    between atoms: O_16  and  C_7 
REMARK    4  A    between atoms: C_13  and  N_10 
REMARK    5  A    between atoms: N_11  and  C_17 
REMARK    6  A    between atoms: C_17  and  C_13 
ROOT
ATOM      1  S   UNL d   1      46.094 -17.606  44.207  0.00  0.00     0.286 S 
ATOM      2  O   UNL d   1      46.614 -17.948  44.757  0.00  0.00    -0.198 OA
ATOM      3  O   UNL d   1      45.583 -17.271  43.668  0.00  0.00    -0.198 OA
ENDROOT
BRANCH   1   4
ATOM      4  C   UNL d   1      46.232 -18.232  43.689  0.00  0.00     0.117 A 
ATOM      5  C   UNL d   1      46.152 -18.118  42.875  0.00  0.00     0.027 A 
ATOM      6  C   UNL d   1      46.290 -18.744  42.355  0.00  0.00     0.081 A 
ATOM      7 CL   UNL d   1      46.210 -18.632  41.536  0.00  0.00    -0.080 Cl
ATOM      8  C   UNL d   1      46.508 -19.484  42.650  0.00  0.00     0.105 A 
ATOM      9  C   UNL d   1      46.586 -19.592  43.456  0.00  0.00     0.037 A 
ATOM     10  C   UNL d   1      46.448 -18.966  43.975  0.00  0.00     0.072 A 
ATOM     11 CL   UNL d   1      46.529 -19.082  44.785  0.00  0.00    -0.082 Cl
BRANCH   8  12
ATOM     12  O   UNL d   1      46.646 -20.110  42.130  0.00  0.00    -0.327 OA
ATOM     13  C   UNL d   1      46.066 -20.329  41.585  0.00  0.00     0.181 C 
ENDBRANCH   8  12
ENDBRANCH   1   4
BRANCH   1  14
ATOM     14  N   UNL d   1      45.956 -16.980  44.727  0.00  0.00    -0.155 NA
BRANCH  14  15
ATOM     15  C   UNL d   1      45.749 -16.248  44.437  0.00  0.00     0.131 C 
BRANCH  15  16
ATOM     16  C   UNL d   1      45.644 -15.613  44.954  0.00  0.00     0.102 C 
BRANCH  16  17
ATOM     17  N   UNL d   1      45.587 -14.845  44.659  0.00  0.00    -0.298 N 
ATOM     18  C   UNL d   1      46.224 -14.326  44.732  0.00  0.00     0.107 A 
ATOM     19  C   UNL d   1      46.165 -13.558  44.436  0.00  0.00     0.142 A 
ATOM     20  O   UNL d   1      45.468 -13.306  44.066  0.00  0.00    -0.300 OA
ATOM     21  C   UNL d   1      44.831 -13.825  43.992  0.00  0.00     0.142 A 
ATOM     22  C   UNL d   1      44.891 -14.597  44.290  0.00  0.00     0.107 A 
ENDBRANCH  16  17
ENDBRANCH  15  16
ENDBRANCH  14  15
ENDBRANCH   1  14
TORSDOF 6
ENDMDL
MODEL 2
REMARK VINA RESULT:      10.8      1.947      4.909
REMARK  6 active torsions:
REMARK  status: ('A' for Active; 'I' for Inactive)
REMARK    1  A    between atoms: C_2  and  S_1 
REMARK    2  A    between atoms: N_10  and  S_1 
REMARK    3  A    between atoms: O_16  and  C_7 
REMARK    4  A    between atoms: C_13  and  N_10 
REMARK    5  A    between atoms: N_11  and  C_17 
REMARK    6  A    between atoms: C_17  and  C_13 
ROOT
ATOM      1  S   UNL d   1      45.664 -15.490  44.418  0.00  0.00     0.286 S 
ATOM      2  O   UNL d   1      46.246 -15.231  44.950  0.00  0.00    -0.198 OA
ATOM      3  O   UNL d   1      45.092 -15.743  43.895  0.00  0.00    -0.198 OA
ENDROOT
BRANCH   1   4
ATOM      4  C   UNL d   1      45.547 -14.713  44.168  0.00  0.00     0.117 A 
ATOM      5  C   UNL d   1      46.082 -14.361  43.647  0.00  0.00     0.027 A 
ATOM      6  C   UNL d   1      45.965 -13.584  43.398  0.00  0.00     0.081 A 
ATOM      7 CL   UNL d   1      46.504 -13.229  42.874  0.00  0.00    -0.080 Cl
ATOM      8  C   UNL d   1      45.312 -13.158  43.669  0.00  0.00     0.105 A 
ATOM      9  C   UNL d   1      44.785 -13.509  44.183  0.00  0.00     0.037 A 
ATOM     10  C   UNL d   1      44.902 -14.287  44.433  0.00  0.00     0.072 A 
ATOM     11 CL   UNL d   1      44.366 -14.634  44.952  0.00  0.00    -0.082 Cl
BRANCH   8  12
ATOM     12  O   UNL d   1      45.195 -12.379  43.419  0.00  0.00    -0.327 OA
ATOM     13  C   UNL d   1      44.523 -12.184  42.980  0.00  0.00     0.181 C 
ENDBRANCH   8  12
ENDBRANCH   1   4
BRANCH   1  14
ATOM     14  N   UNL d   1      45.781 -16.267  44.667  0.00  0.00    -0.155 NA
BRANCH  14  15
ATOM     15  C   UNL d   1      46.082 -16.820  44.151  0.00  0.00     0.131 C 
BRANCH  15  16
ATOM     16  C   UNL d   1      46.183 -17.602  44.396  0.00  0.00     0.102 C 
BRANCH  16  17
ATOM     17  N   UNL d   1      46.315 -18.195  43.838  0.00  0.00    -0.298 N 
ATOM     18  C   UNL d   1      46.256 -18.026  43.033  0.00  0.00     0.107 A 
ATOM     19  C   UNL d   1      46.388 -18.621  42.476  0.00  0.00     0.142 A 
ATOM     20  O   UNL d   1      46.581 -19.388  42.723  0.00  0.00    -0.300 OA
ATOM     21  C   UNL d   1      46.640 -19.557  43.528  0.00  0.00     0.142 A 
ATOM     22  C   UNL d   1      46.507 -18.959  44.087  0.00  0.00     0.107 A 
ENDBRANCH  16  17
ENDBRANCH  15  16
ENDBRANCH  14  15
ENDBRANCH   1  14
TORSDOF 6
ENDMDL
