MODEL 1
REMARK VINA RESULT:      -5.9      0.000      0.000
REMARK  6 active torsions:
REMARK  status: ('A' for Active; 'I' for Inactive)
REMARK    1  A    between atoms: S_9  and  C_4 
REMARK    2  A    between atoms: C_15  and  S_9 
REMARK    3  A    between atoms: C_11  and  C_15 
REMARK    4  A    between atoms: O_14  and  C_11 
REMARK    5  A    between atoms: C_17  and  O_14 
REMARK    6  A    between atoms: C_18  and  C_17 
ROOT
ATOM      1  C   UNL d   1     -50.579  14.111  22.540  0.00  0.00     0.104 A 
ATOM      2  N   UNL d   1     -50.091  12.849  22.089  0.00  0.00    -0.251 N 
ATOM      3  C   UNL d   1     -50.559  13.529  21.972  0.00  0.00     0.274 A 
ATOM      4  C   UNL d   1     -49.651  12.771  22.782  0.00  0.00     0.182 A 
ATOM      5  C   UNL d   1     -50.139  14.033  23.234  0.00  0.00     0.095 A 
ATOM      6  N   UNL d   1     -49.678  13.373  23.359  0.00  0.00    -0.222 NA
ATOM      7  S   UNL d   1     -50.981  14.827  22.576  0.00  0.00    -0.081 SA
ATOM      8  C   UNL d   1     -50.270  14.702  23.697  0.00  0.00     0.026 A 
ATOM      9  O   UNL d   1     -50.999  13.606  21.278  0.00  0.00    -0.266 OA
ATOM     10  C   UNL d   1     -50.787  15.190  23.295  0.00  0.00     0.031 A 
ATOM     11  C   UNL d   1     -50.068  12.252  21.511  0.00  0.00     0.104 C 
ATOM     12  C   UNL d   1     -51.061  15.919  23.568  0.00  0.00     0.007 C 
ENDROOT
BRANCH   4  13
ATOM     13  S   UNL d   1     -49.180  12.095  22.910  0.00  0.00    -0.044 SA
BRANCH  13  14
ATOM     14  C   UNL d   1     -48.536  12.139  23.424  0.00  0.00     0.107 C 
BRANCH  14  15
ATOM     15  C   UNL d   1     -47.908  11.608  23.345  0.00  0.00     0.307 C 
ATOM     16  O   UNL d   1     -47.954  10.860  23.690  0.00  0.00    -0.258 OA
BRANCH  15  17
ATOM     17  O   UNL d   1     -47.235  11.826  22.920  0.00  0.00    -0.271 OA
BRANCH  17  18
ATOM     18  C   UNL d   1     -46.567  12.102  23.318  0.00  0.00     0.126 C 
BRANCH  18  19
ATOM     19  C   UNL d   1     -45.961  12.463  22.900  0.00  0.00     0.025 A 
ATOM     20  C   UNL d   1     -46.043  13.244  22.646  0.00  0.00     0.002 A 
ATOM     21  C   UNL d   1     -45.434  13.608  22.226  0.00  0.00     0.000 A 
ATOM     22  C   UNL d   1     -44.741  13.190  22.059  0.00  0.00     0.000 A 
ATOM     23  C   UNL d   1     -44.664  12.416  22.313  0.00  0.00     0.000 A 
ATOM     24  C   UNL d   1     -45.273  12.053  22.734  0.00  0.00     0.002 A 
ENDBRANCH  18  19
ENDBRANCH  17  18
ENDBRANCH  15  17
ENDBRANCH  14  15
ENDBRANCH  13  14
ENDBRANCH   4  13
TORSDOF 6
ENDMDL
MODEL 2
REMARK VINA RESULT:      -5.7      9.012     10.438
REMARK  6 active torsions:
REMARK  status: ('A' for Active; 'I' for Inactive)
REMARK    1  A    between atoms: S_9  and  C_4 
REMARK    2  A    between atoms: C_15  and  S_9 
REMARK    3  A    between atoms: C_11  and  C_15 
REMARK    4  A    between atoms: O_14  and  C_11 
REMARK    5  A    between atoms: C_17  and  O_14 
REMARK    6  A    between atoms: C_18  and  C_17 
ROOT
ATOM      1  C   UNL d   1     -39.427  14.798  16.888  0.00  0.00     0.104 A 
ATOM      2  N   UNL d   1     -40.330  15.371  17.831  0.00  0.00    -0.251 N 
ATOM      3  C   UNL d   1     -40.010  15.339  17.063  0.00  0.00     0.274 A 
ATOM      4  C   UNL d   1     -40.052  14.854  18.411  0.00  0.00     0.182 A 
ATOM      5  C   UNL d   1     -39.150  14.281  17.467  0.00  0.00     0.095 A 
ATOM      6  N   UNL d   1     -39.455  14.304  18.222  0.00  0.00    -0.222 NA
ATOM      7  S   UNL d   1     -39.017  14.641  16.192  0.00  0.00    -0.081 SA
ATOM      8  C   UNL d   1     -38.568  13.805  17.130  0.00  0.00     0.026 A 
ATOM      9  O   UNL d   1     -40.288  15.856  16.483  0.00  0.00    -0.266 OA
ATOM     10  C   UNL d   1     -38.485  14.025  16.347  0.00  0.00     0.031 A 
ATOM     11  C   UNL d   1     -40.925  15.922  18.014  0.00  0.00     0.104 C 
ATOM     12  C   UNL d   1     -37.958  13.684  15.811  0.00  0.00     0.007 C 
ENDROOT
BRANCH   4  13
ATOM     13  S   UNL d   1     -40.365  14.879  19.183  0.00  0.00    -0.044 SA
BRANCH  13  14
ATOM     14  C   UNL d   1     -40.110  14.329  19.744  0.00  0.00     0.107 C 
BRANCH  14  15
ATOM     15  C   UNL d   1     -40.325  14.418  20.536  0.00  0.00     0.307 C 
ATOM     16  O   UNL d   1     -41.123  14.455  20.745  0.00  0.00    -0.258 OA
BRANCH  15  17
ATOM     17  O   UNL d   1     -39.743  14.469  21.119  0.00  0.00    -0.271 OA
BRANCH  17  18
ATOM     18  C   UNL d   1     -39.809  14.019  21.807  0.00  0.00     0.126 C 
BRANCH  18  19
ATOM     19  C   UNL d   1     -39.195  14.012  22.352  0.00  0.00     0.025 A 
ATOM     20  C   UNL d   1     -38.811  13.304  22.532  0.00  0.00     0.002 A 
ATOM     21  C   UNL d   1     -38.194  13.297  23.080  0.00  0.00     0.000 A 
ATOM     22  C   UNL d   1     -37.961  13.998  23.448  0.00  0.00     0.000 A 
ATOM     23  C   UNL d   1     -38.344  14.698  23.266  0.00  0.00     0.000 A 
ATOM     24  C   UNL d   1     -38.961  14.705  22.719  0.00  0.00     0.002 A 
ENDBRANCH  18  19
ENDBRANCH  17  18
ENDBRANCH  15  17
ENDBRANCH  14  15
ENDBRANCH  13  14
ENDBRANCH   4  13
TORSDOF 6
ENDMDL
MODEL 3
REMARK VINA RESULT:      -5.6      1.580      2.384
REMARK  6 active torsions:
REMARK  status: ('A' for Active; 'I' for Inactive)
REMARK    1  A    between atoms: S_9  and  C_4 
REMARK    2  A    between atoms: C_15  and  S_9 
REMARK    3  A    between atoms: C_11  and  C_15 
REMARK    4  A    between atoms: O_14  and  C_11 
REMARK    5  A    between atoms: C_17  and  O_14 
REMARK    6  A    between atoms: C_18  and  C_17 
ROOT
ATOM      1  C   UNL d   1     -50.078  13.608  23.141  0.00  0.00     0.104 A 
ATOM      2  N   UNL d   1     -49.175  14.662  22.815  0.00  0.00    -0.251 N 
ATOM      3  C   UNL d   1     -49.952  14.377  22.906  0.00  0.00     0.274 A 
ATOM      4  C   UNL d   1     -48.537  14.162  22.965  0.00  0.00     0.182 A 
ATOM      5  C   UNL d   1     -49.440  13.107  23.291  0.00  0.00     0.095 A 
ATOM      6  N   UNL d   1     -48.676  13.376  23.205  0.00  0.00    -0.222 NA
ATOM      7  S   UNL d   1     -50.769  13.182  23.274  0.00  0.00    -0.081 SA
ATOM      8  C   UNL d   1     -49.737  12.372  23.516  0.00  0.00     0.026 A 
ATOM      9  O   UNL d   1     -50.591  14.877  22.756  0.00  0.00    -0.266 OA
ATOM     10  C   UNL d   1     -50.553  12.417  23.507  0.00  0.00     0.031 A 
ATOM     11  C   UNL d   1     -49.042  15.447  22.575  0.00  0.00     0.104 C 
ATOM     12  C   UNL d   1     -51.064  11.798  23.698  0.00  0.00     0.007 C 
ENDROOT
BRANCH   4  13
ATOM     13  S   UNL d   1     -47.755  14.437  22.877  0.00  0.00    -0.044 SA
BRANCH  13  14
ATOM     14  C   UNL d   1     -47.125  13.908  22.951  0.00  0.00     0.107 C 
BRANCH  14  15
ATOM     15  C   UNL d   1     -46.359  14.149  22.761  0.00  0.00     0.307 C 
ATOM     16  O   UNL d   1     -46.209  14.940  22.578  0.00  0.00    -0.258 OA
BRANCH  15  17
ATOM     17  O   UNL d   1     -45.743  13.600  22.755  0.00  0.00    -0.271 OA
BRANCH  17  18
ATOM     18  C   UNL d   1     -45.487  13.276  22.041  0.00  0.00     0.126 C 
BRANCH  18  19
ATOM     19  C   UNL d   1     -44.758  12.901  21.999  0.00  0.00     0.025 A 
ATOM     20  C   UNL d   1     -44.606  12.241  22.471  0.00  0.00     0.002 A 
ATOM     21  C   UNL d   1     -43.873  11.864  22.429  0.00  0.00     0.000 A 
ATOM     22  C   UNL d   1     -43.292  12.147  21.915  0.00  0.00     0.000 A 
ATOM     23  C   UNL d   1     -43.448  12.802  21.449  0.00  0.00     0.000 A 
ATOM     24  C   UNL d   1     -44.180  13.178  21.491  0.00  0.00     0.002 A 
ENDBRANCH  18  19
ENDBRANCH  17  18
ENDBRANCH  15  17
ENDBRANCH  14  15
ENDBRANCH  13  14
ENDBRANCH   4  13
TORSDOF 6
ENDMDL
MODEL 4
REMARK VINA RESULT:      -5.5      3.065      4.512
REMARK  6 active torsions:
REMARK  status: ('A' for Active; 'I' for Inactive)
REMARK    1  A    between atoms: S_9  and  C_4 
REMARK    2  A    between atoms: C_15  and  S_9 
REMARK    3  A    between atoms: C_11  and  C_15 
REMARK    4  A    between atoms: O_14  and  C_11 
REMARK    5  A    between atoms: C_17  and  O_14 
REMARK    6  A    between atoms: C_18  and  C_17 
ROOT
ATOM      1  C   UNL d   1     -46.947  13.189  23.033  0.00  0.00     0.104 A 
ATOM      2  N   UNL d   1     -45.870  12.256  22.995  0.00  0.00    -0.251 N 
ATOM      3  C   UNL d   1     -46.637  12.466  23.242  0.00  0.00     0.274 A 
ATOM      4  C   UNL d   1     -45.429  12.784  22.539  0.00  0.00     0.182 A 
ATOM      5  C   UNL d   1     -46.507  13.717  22.577  0.00  0.00     0.095 A 
ATOM      6  N   UNL d   1     -45.756  13.522  22.330  0.00  0.00    -0.222 NA
ATOM      7  S   UNL d   1     -47.674  13.540  23.193  0.00  0.00    -0.081 SA
ATOM      8  C   UNL d   1     -46.962  14.393  22.456  0.00  0.00     0.026 A 
ATOM      9  O   UNL d   1     -47.077  11.938  23.698  0.00  0.00    -0.266 OA
ATOM     10  C   UNL d   1     -47.678  14.286  22.834  0.00  0.00     0.031 A 
ATOM     11  C   UNL d   1     -45.549  11.519  23.206  0.00  0.00     0.104 C 
ATOM     12  C   UNL d   1     -48.294  14.835  22.848  0.00  0.00     0.007 C 
ENDROOT
BRANCH   4  13
ATOM     13  S   UNL d   1     -44.660  12.583  22.286  0.00  0.00    -0.044 SA
BRANCH  13  14
ATOM     14  C   UNL d   1     -44.252  13.092  21.779  0.00  0.00     0.107 C 
BRANCH  14  15
ATOM     15  C   UNL d   1     -43.466  12.935  21.583  0.00  0.00     0.307 C 
ATOM     16  O   UNL d   1     -43.217  12.156  21.467  0.00  0.00    -0.258 OA
BRANCH  15  17
ATOM     17  O   UNL d   1     -42.929  13.556  21.501  0.00  0.00    -0.271 OA
BRANCH  17  18
ATOM     18  C   UNL d   1     -42.265  13.465  21.019  0.00  0.00     0.126 C 
BRANCH  18  19
ATOM     19  C   UNL d   1     -41.691  14.053  20.998  0.00  0.00     0.025 A 
ATOM     20  C   UNL d   1     -40.892  13.850  21.041  0.00  0.00     0.002 A 
ATOM     21  C   UNL d   1     -40.316  14.440  21.019  0.00  0.00     0.000 A 
ATOM     22  C   UNL d   1     -40.539  15.232  20.954  0.00  0.00     0.000 A 
ATOM     23  C   UNL d   1     -41.332  15.428  20.912  0.00  0.00     0.000 A 
ATOM     24  C   UNL d   1     -41.908  14.838  20.933  0.00  0.00     0.002 A 
ENDBRANCH  18  19
ENDBRANCH  17  18
ENDBRANCH  15  17
ENDBRANCH  14  15
ENDBRANCH  13  14
ENDBRANCH   4  13
TORSDOF 6
ENDMDL
MODEL 5
REMARK VINA RESULT:      -5.4      1.513      2.109
REMARK  6 active torsions:
REMARK  status: ('A' for Active; 'I' for Inactive)
REMARK    1  A    between atoms: S_9  and  C_4 
REMARK    2  A    between atoms: C_15  and  S_9 
REMARK    3  A    between atoms: C_11  and  C_15 
REMARK    4  A    between atoms: O_14  and  C_11 
REMARK    5  A    between atoms: C_17  and  O_14 
REMARK    6  A    between atoms: C_18  and  C_17 
ROOT
ATOM      1  C   UNL d   1     -49.886  12.836  22.526  0.00  0.00     0.104 A 
ATOM      2  N   UNL d   1     -48.881  12.115  23.237  0.00  0.00    -0.251 N 
ATOM      3  C   UNL d   1     -49.669  12.194  22.977  0.00  0.00     0.274 A 
ATOM      4  C   UNL d   1     -48.325  12.690  23.034  0.00  0.00     0.182 A 
ATOM      5  C   UNL d   1     -49.330  13.411  22.324  0.00  0.00     0.095 A 
ATOM      6  N   UNL d   1     -48.557  13.344  22.572  0.00  0.00    -0.222 NA
ATOM      7  S   UNL d   1     -50.607  13.056  22.198  0.00  0.00    -0.081 SA
ATOM      8  C   UNL d   1     -49.708  13.986  21.871  0.00  0.00     0.026 A 
ATOM      9  O   UNL d   1     -50.225  11.619  23.180  0.00  0.00    -0.266 OA
ATOM     10  C   UNL d   1     -50.492  13.770  21.793  0.00  0.00     0.031 A 
ATOM     11  C   UNL d   1     -48.656  11.461  23.698  0.00  0.00     0.104 C 
ATOM     12  C   UNL d   1     -51.064  14.197  21.378  0.00  0.00     0.007 C 
ENDROOT
BRANCH   4  13
ATOM     13  S   UNL d   1     -47.535  12.621  23.289  0.00  0.00    -0.044 SA
BRANCH  13  14
ATOM     14  C   UNL d   1     -46.922  12.698  22.741  0.00  0.00     0.107 C 
BRANCH  14  15
ATOM     15  C   UNL d   1     -46.177  12.954  22.989  0.00  0.00     0.307 C 
ATOM     16  O   UNL d   1     -46.111  13.484  23.619  0.00  0.00    -0.258 OA
BRANCH  15  17
ATOM     17  O   UNL d   1     -45.498  12.681  22.607  0.00  0.00    -0.271 OA
BRANCH  17  18
ATOM     18  C   UNL d   1     -44.994  13.216  22.232  0.00  0.00     0.126 C 
BRANCH  18  19
ATOM     19  C   UNL d   1     -44.266  12.962  21.948  0.00  0.00     0.025 A 
ATOM     20  C   UNL d   1     -43.846  13.431  21.414  0.00  0.00     0.002 A 
ATOM     21  C   UNL d   1     -43.115  13.176  21.129  0.00  0.00     0.000 A 
ATOM     22  C   UNL d   1     -42.804  12.453  21.378  0.00  0.00     0.000 A 
ATOM     23  C   UNL d   1     -43.224  11.992  21.907  0.00  0.00     0.000 A 
ATOM     24  C   UNL d   1     -43.955  12.247  22.192  0.00  0.00     0.002 A 
ENDBRANCH  18  19
ENDBRANCH  17  18
ENDBRANCH  15  17
ENDBRANCH  14  15
ENDBRANCH  13  14
ENDBRANCH   4  13
TORSDOF 6
ENDMDL
MODEL 6
REMARK VINA RESULT:      -5.3      2.393      5.603
REMARK  6 active torsions:
REMARK  status: ('A' for Active; 'I' for Inactive)
REMARK    1  A    between atoms: S_9  and  C_4 
REMARK    2  A    between atoms: C_15  and  S_9 
REMARK    3  A    between atoms: C_11  and  C_15 
REMARK    4  A    between atoms: O_14  and  C_11 
REMARK    5  A    between atoms: C_17  and  O_14 
REMARK    6  A    between atoms: C_18  and  C_17 
ROOT
ATOM      1  C   UNL d   1     -44.281  11.478  22.767  0.00  0.00     0.104 A 
ATOM      2  N   UNL d   1     -44.757  12.734  22.288  0.00  0.00    -0.251 N 
ATOM      3  C   UNL d   1     -44.168  12.145  22.315  0.00  0.00     0.274 A 
ATOM      4  C   UNL d   1     -45.452  12.636  22.722  0.00  0.00     0.182 A 
ATOM      5  C   UNL d   1     -44.976  11.379  23.200  0.00  0.00     0.095 A 
ATOM      6  N   UNL d   1     -45.559  11.949  23.181  0.00  0.00    -0.222 NA
ATOM      7  S   UNL d   1     -43.808  10.818  22.897  0.00  0.00    -0.081 SA
ATOM      8  C   UNL d   1     -44.932  10.659  23.598  0.00  0.00     0.026 A 
ATOM      9  O   UNL d   1     -43.473  12.244  21.882  0.00  0.00    -0.266 OA
ATOM     10  C   UNL d   1     -44.215  10.313  23.413  0.00  0.00     0.031 A 
ATOM     11  C   UNL d   1     -44.645  13.417  21.828  0.00  0.00     0.104 C 
ATOM     12  C   UNL d   1     -43.952   9.584  23.697  0.00  0.00     0.007 C 
ENDROOT
BRANCH   4  13
ATOM     13  S   UNL d   1     -46.047  13.219  22.702  0.00  0.00    -0.044 SA
BRANCH  13  14
ATOM     14  C   UNL d   1     -46.800  13.043  22.993  0.00  0.00     0.107 C 
BRANCH  14  15
ATOM     15  C   UNL d   1     -47.423  13.571  22.871  0.00  0.00     0.307 C 
ATOM     16  O   UNL d   1     -47.310  14.379  23.001  0.00  0.00    -0.258 OA
BRANCH  15  17
ATOM     17  O   UNL d   1     -48.158  13.292  22.621  0.00  0.00    -0.271 OA
BRANCH  17  18
ATOM     18  C   UNL d   1     -48.850  13.633  22.915  0.00  0.00     0.126 C 
BRANCH  18  19
ATOM     19  C   UNL d   1     -49.580  13.383  22.635  0.00  0.00     0.025 A 
ATOM     20  C   UNL d   1     -49.962  12.745  22.994  0.00  0.00     0.002 A 
ATOM     21  C   UNL d   1     -50.696  12.494  22.713  0.00  0.00     0.000 A 
ATOM     22  C   UNL d   1     -51.048  12.880  22.074  0.00  0.00     0.000 A 
ATOM     23  C   UNL d   1     -50.665  13.512  21.722  0.00  0.00     0.000 A 
ATOM     24  C   UNL d   1     -49.931  13.763  22.003  0.00  0.00     0.002 A 
ENDBRANCH  18  19
ENDBRANCH  17  18
ENDBRANCH  15  17
ENDBRANCH  14  15
ENDBRANCH  13  14
ENDBRANCH   4  13
TORSDOF 6
ENDMDL
MODEL 7
REMARK VINA RESULT:      -4.6      2.379      3.463
REMARK  6 active torsions:
REMARK  status: ('A' for Active; 'I' for Inactive)
REMARK    1  A    between atoms: S_9  and  C_4 
REMARK    2  A    between atoms: C_15  and  S_9 
REMARK    3  A    between atoms: C_11  and  C_15 
REMARK    4  A    between atoms: O_14  and  C_11 
REMARK    5  A    between atoms: C_17  and  O_14 
REMARK    6  A    between atoms: C_18  and  C_17 
ROOT
ATOM      1  C   UNL d   1     -48.418  13.712  22.162  0.00  0.00     0.104 A 
ATOM      2  N   UNL d   1     -47.166  14.213  22.625  0.00  0.00    -0.251 N 
ATOM      3  C   UNL d   1     -47.981  14.317  22.487  0.00  0.00     0.274 A 
ATOM      4  C   UNL d   1     -46.808  13.495  22.431  0.00  0.00     0.182 A 
ATOM      5  C   UNL d   1     -48.060  12.994  21.969  0.00  0.00     0.095 A 
ATOM      6  N   UNL d   1     -47.264  12.882  22.099  0.00  0.00    -0.222 NA
ATOM      7  S   UNL d   1     -49.216  13.656  21.967  0.00  0.00    -0.081 SA
ATOM      8  C   UNL d   1     -48.636  12.496  21.654  0.00  0.00     0.026 A 
ATOM      9  O   UNL d   1     -48.339  15.034  22.680  0.00  0.00    -0.266 OA
ATOM     10  C   UNL d   1     -49.346  12.901  21.653  0.00  0.00     0.031 A 
ATOM     11  C   UNL d   1     -46.716  14.828  22.956  0.00  0.00     0.104 C 
ATOM     12  C   UNL d   1     -50.065  12.599  21.382  0.00  0.00     0.007 C 
ENDROOT
BRANCH   4  13
ATOM     13  S   UNL d   1     -45.993  13.381  22.565  0.00  0.00    -0.044 SA
BRANCH  13  14
ATOM     14  C   UNL d   1     -45.514  13.100  21.954  0.00  0.00     0.107 C 
BRANCH  14  15
ATOM     15  C   UNL d   1     -44.738  12.866  22.111  0.00  0.00     0.307 C 
ATOM     16  O   UNL d   1     -44.594  12.203  22.581  0.00  0.00    -0.258 OA
BRANCH  15  17
ATOM     17  O   UNL d   1     -44.107  13.296  21.799  0.00  0.00    -0.271 OA
BRANCH  17  18
ATOM     18  C   UNL d   1     -43.494  12.904  21.410  0.00  0.00     0.126 C 
BRANCH  18  19
ATOM     19  C   UNL d   1     -42.785  13.292  21.266  0.00  0.00     0.025 A 
ATOM     20  C   UNL d   1     -42.069  12.890  21.354  0.00  0.00     0.002 A 
ATOM     21  C   UNL d   1     -41.357  13.281  21.209  0.00  0.00     0.000 A 
ATOM     22  C   UNL d   1     -41.361  14.073  20.976  0.00  0.00     0.000 A 
ATOM     23  C   UNL d   1     -42.072  14.467  20.890  0.00  0.00     0.000 A 
ATOM     24  C   UNL d   1     -42.784  14.076  21.035  0.00  0.00     0.002 A 
ENDBRANCH  18  19
ENDBRANCH  17  18
ENDBRANCH  15  17
ENDBRANCH  14  15
ENDBRANCH  13  14
ENDBRANCH   4  13
TORSDOF 6
ENDMDL
MODEL 8
REMARK VINA RESULT:      -3.5      1.871      2.751
REMARK  6 active torsions:
REMARK  status: ('A' for Active; 'I' for Inactive)
REMARK    1  A    between atoms: S_9  and  C_4 
REMARK    2  A    between atoms: C_15  and  S_9 
REMARK    3  A    between atoms: C_11  and  C_15 
REMARK    4  A    between atoms: O_14  and  C_11 
REMARK    5  A    between atoms: C_17  and  O_14 
REMARK    6  A    between atoms: C_18  and  C_17 
ROOT
ATOM      1  C   UNL d   1     -49.242  13.931  22.209  0.00  0.00     0.104 A 
ATOM      2  N   UNL d   1     -47.999  14.580  22.466  0.00  0.00    -0.251 N 
ATOM      3  C   UNL d   1     -48.816  14.617  22.304  0.00  0.00     0.274 A 
ATOM      4  C   UNL d   1     -47.628  13.846  22.529  0.00  0.00     0.182 A 
ATOM      5  C   UNL d   1     -48.871  13.196  22.271  0.00  0.00     0.095 A 
ATOM      6  N   UNL d   1     -48.074  13.149  22.430  0.00  0.00    -0.222 NA
ATOM      7  S   UNL d   1     -50.038  13.798  22.048  0.00  0.00    -0.081 SA
ATOM      8  C   UNL d   1     -49.438  12.611  22.150  0.00  0.00     0.026 A 
ATOM      9  O   UNL d   1     -49.186  15.351  22.241  0.00  0.00    -0.266 OA
ATOM     10  C   UNL d   1     -50.155  12.979  22.013  0.00  0.00     0.031 A 
ATOM     11  C   UNL d   1     -47.560  15.279  22.564  0.00  0.00     0.104 C 
ATOM     12  C   UNL d   1     -50.868  12.590  21.865  0.00  0.00     0.007 C 
ENDROOT
BRANCH   4  13
ATOM     13  S   UNL d   1     -46.812  13.798  22.691  0.00  0.00    -0.044 SA
BRANCH  13  14
ATOM     14  C   UNL d   1     -46.440  13.061  22.698  0.00  0.00     0.107 C 
BRANCH  14  15
ATOM     15  C   UNL d   1     -45.616  13.014  22.698  0.00  0.00     0.307 C 
ATOM     16  O   UNL d   1     -45.169  13.605  22.333  0.00  0.00    -0.258 OA
BRANCH  15  17
ATOM     17  O   UNL d   1     -45.239  12.378  23.062  0.00  0.00    -0.271 OA
BRANCH  17  18
ATOM     18  C   UNL d   1     -44.856  11.808  22.604  0.00  0.00     0.126 C 
BRANCH  18  19
ATOM     19  C   UNL d   1     -44.454  11.191  22.967  0.00  0.00     0.025 A 
ATOM     20  C   UNL d   1     -43.629  11.181  22.968  0.00  0.00     0.002 A 
ATOM     21  C   UNL d   1     -43.225  10.561  23.333  0.00  0.00     0.000 A 
ATOM     22  C   UNL d   1     -43.647   9.952  23.698  0.00  0.00     0.000 A 
ATOM     23  C   UNL d   1     -44.465   9.967  23.695  0.00  0.00     0.000 A 
ATOM     24  C   UNL d   1     -44.868  10.587  23.329  0.00  0.00     0.002 A 
ENDBRANCH  18  19
ENDBRANCH  17  18
ENDBRANCH  15  17
ENDBRANCH  14  15
ENDBRANCH  13  14
ENDBRANCH   4  13
TORSDOF 6
ENDMDL
MODEL 9
REMARK VINA RESULT:      -3.0      6.870      9.524
REMARK  6 active torsions:
REMARK  status: ('A' for Active; 'I' for Inactive)
REMARK    1  A    between atoms: S_9  and  C_4 
REMARK    2  A    between atoms: C_15  and  S_9 
REMARK    3  A    between atoms: C_11  and  C_15 
REMARK    4  A    between atoms: O_14  and  C_11 
REMARK    5  A    between atoms: C_17  and  O_14 
REMARK    6  A    between atoms: C_18  and  C_17 
ROOT
ATOM      1  C   UNL d   1     -39.524  14.666  17.399  0.00  0.00     0.104 A 
ATOM      2  N   UNL d   1     -40.390  15.320  18.324  0.00  0.00    -0.251 N 
ATOM      3  C   UNL d   1     -40.060  15.257  17.562  0.00  0.00     0.274 A 
ATOM      4  C   UNL d   1     -40.171  14.782  18.910  0.00  0.00     0.182 A 
ATOM      5  C   UNL d   1     -39.305  14.128  17.985  0.00  0.00     0.095 A 
ATOM      6  N   UNL d   1     -39.622  14.181  18.733  0.00  0.00    -0.222 NA
ATOM      7  S   UNL d   1     -39.115  14.472  16.713  0.00  0.00    -0.081 SA
ATOM      8  C   UNL d   1     -38.761  13.601  17.660  0.00  0.00     0.026 A 
ATOM      9  O   UNL d   1     -40.278  15.795  16.976  0.00  0.00    -0.266 OA
ATOM     10  C   UNL d   1     -38.643  13.811  16.878  0.00  0.00     0.031 A 
ATOM     11  C   UNL d   1     -40.938  15.922  18.494  0.00  0.00     0.104 C 
ATOM     12  C   UNL d   1     -38.138  13.424  16.353  0.00  0.00     0.007 C 
ENDROOT
BRANCH   4  13
ATOM     13  S   UNL d   1     -40.496  14.836  19.675  0.00  0.00    -0.044 SA
BRANCH  13  14
ATOM     14  C   UNL d   1     -40.882  14.183  20.002  0.00  0.00     0.107 C 
BRANCH  14  15
ATOM     15  C   UNL d   1     -41.083  14.180  20.803  0.00  0.00     0.307 C 
ATOM     16  O   UNL d   1     -40.520  14.391  21.369  0.00  0.00    -0.258 OA
BRANCH  15  17
ATOM     17  O   UNL d   1     -41.844  13.967  21.037  0.00  0.00    -0.271 OA
BRANCH  17  18
ATOM     18  C   UNL d   1     -42.113  13.196  20.913  0.00  0.00     0.126 C 
BRANCH  18  19
ATOM     19  C   UNL d   1     -42.793  12.934  21.291  0.00  0.00     0.025 A 
ATOM     20  C   UNL d   1     -43.522  13.277  21.114  0.00  0.00     0.002 A 
ATOM     21  C   UNL d   1     -44.205  13.013  21.494  0.00  0.00     0.000 A 
ATOM     22  C   UNL d   1     -44.159  12.405  22.051  0.00  0.00     0.000 A 
ATOM     23  C   UNL d   1     -43.434  12.068  22.223  0.00  0.00     0.000 A 
ATOM     24  C   UNL d   1     -42.751  12.332  21.843  0.00  0.00     0.002 A 
ENDBRANCH  18  19
ENDBRANCH  17  18
ENDBRANCH  15  17
ENDBRANCH  14  15
ENDBRANCH  13  14
ENDBRANCH   4  13
TORSDOF 6
ENDMDL
