MODEL 1
REMARK VINA RESULT:      21.8      0.000      0.000
REMARK  7 active torsions:
REMARK  status: ('A' for Active; 'I' for Inactive)
REMARK    1  A    between atoms: S_9  and  C_2 
REMARK    2  A    between atoms: C_6  and  C_8 
REMARK       I    between atoms: N_7  and  C_6 
REMARK    3  A    between atoms: C_11  and  N_7 
REMARK    4  A    between atoms: C_8  and  C_12 
REMARK    5  A    between atoms: C_12  and  S_9 
REMARK    6  A    between atoms: O_18  and  C_13 
REMARK    7  A    between atoms: C_20  and  O_18 
ROOT
ATOM      1  C   UNL d   1      46.207 -15.082  44.566  0.00  0.00     0.280 C 
ATOM      2  N   UNL d   1      46.569 -15.798  44.762  0.00  0.00    -0.208 NA
ATOM      3  O   UNL d   1      46.433 -14.385  44.954  0.00  0.00    -0.265 OA
ENDROOT
BRANCH   1   4
ATOM      4  C   UNL d   1      45.621 -15.059  43.984  0.00  0.00     0.070 C 
BRANCH   4   5
ATOM      5  C   UNL d   1      44.983 -14.542  44.060  0.00  0.00     0.042 C 
BRANCH   5   6
ATOM      6  S   UNL d   1      45.116 -13.727  44.186  0.00  0.00    -0.059 SA
BRANCH   6   7
ATOM      7  C   UNL d   1      44.941 -13.183  43.592  0.00  0.00     0.164 A 
ATOM      8  S   UNL d   1      45.181 -13.124  42.805  0.00  0.00    -0.039 SA
ATOM      9  C   UNL d   1      44.827 -12.462  42.475  0.00  0.00     0.134 A 
ATOM     10  N   UNL d   1      44.360 -12.098  43.053  0.00  0.00    -0.140 NA
ATOM     11  C   UNL d   1      44.921 -12.199  41.688  0.00  0.00     0.030 C 
ATOM     12  N   UNL d   1      44.434 -12.551  43.749  0.00  0.00    -0.134 NA
ENDBRANCH   6   7
ENDBRANCH   5   6
ENDBRANCH   4   5
ENDBRANCH   1   4
BRANCH   2  13
ATOM     13  C   UNL d   1      46.344 -16.503  44.373  0.00  0.00     0.085 A 
ATOM     14  C   UNL d   1      46.435 -16.566  43.554  0.00  0.00     0.021 A 
ATOM     15  C   UNL d   1      46.215 -17.258  43.165  0.00  0.00     0.026 A 
ATOM     16  C   UNL d   1      45.904 -17.891  43.596  0.00  0.00     0.100 A 
ATOM     17  C   UNL d   1      45.813 -17.828  44.414  0.00  0.00     0.026 A 
ATOM     18  C   UNL d   1      46.033 -17.134  44.804  0.00  0.00     0.021 A 
BRANCH  16  19
ATOM     19  O   UNL d   1      45.681 -18.596  43.195  0.00  0.00    -0.305 OA
BRANCH  19  20
ATOM     20  C   UNL d   1      46.224 -19.214  43.108  0.00  0.00     0.123 C 
ATOM     21  C   UNL d   1      45.955 -19.976  42.946  0.00  0.00     0.029 C 
ENDBRANCH  19  20
ENDBRANCH  16  19
ENDBRANCH   2  13
TORSDOF 7
ENDMDL
