MODEL 1
REMARK VINA RESULT:      69.9      0.000      0.000
REMARK  7 active torsions:
REMARK  status: ('A' for Active; 'I' for Inactive)
REMARK    1  A    between atoms: C_3  and  C_1 
REMARK    2  A    between atoms: C_5  and  C_3 
REMARK    3  A    between atoms: C_14  and  C_3 
REMARK    4  A    between atoms: N_6  and  C_14 
REMARK    5  A    between atoms: O_17  and  C_9 
REMARK    6  A    between atoms: O_18  and  C_10 
REMARK    7  A    between atoms: O_19  and  C_11 
ROOT
ATOM      1  C   UNL d   1      60.495  49.129  50.741  0.00  0.00     0.025 C 
ENDROOT
BRANCH   1   2
ATOM      2  C   UNL d   1      59.817  49.329  50.317  0.00  0.00     0.021 A 
ATOM      3  C   UNL d   1      59.794  49.528  49.499  0.00  0.00     0.082 A 
ATOM      4  N   UNL d   1      59.024  49.687  49.300  0.00  0.00    -0.246 NA
ATOM      5  C   UNL d   1      60.447  49.556  48.991  0.00  0.00     0.021 C 
ATOM      6  C   UNL d   1      58.560  49.592  49.974  0.00  0.00     0.081 A 
ATOM      7  C   UNL d   1      59.062  49.371  50.594  0.00  0.00     0.019 A 
ATOM      8  C   UNL d   1      57.765  49.675  50.111  0.00  0.00     0.019 A 
ATOM      9  C   UNL d   1      58.749  49.236  51.347  0.00  0.00     0.002 A 
ATOM     10  C   UNL d   1      57.946  49.320  51.480  0.00  0.00     0.000 A 
ATOM     11  C   UNL d   1      57.444  49.541  50.860  0.00  0.00     0.002 A 
ENDBRANCH   1   2
BRANCH   1  12
ATOM     12  C   UNL d   1      60.747  48.340  50.754  0.00  0.00     0.006 A 
ATOM     13  C   UNL d   1      61.224  48.055  50.153  0.00  0.00     0.026 A 
ATOM     14  C   UNL d   1      61.479  47.274  50.157  0.00  0.00     0.118 A 
ATOM     15  C   UNL d   1      61.249  46.782  50.770  0.00  0.00     0.138 A 
ATOM     16  C   UNL d   1      60.767  47.060  51.380  0.00  0.00     0.118 A 
ATOM     17  C   UNL d   1      60.517  47.848  51.366  0.00  0.00     0.026 A 
BRANCH  14  18
ATOM     18  O   UNL d   1      61.955  46.990  49.558  0.00  0.00    -0.326 OA
ATOM     19  C   UNL d   1      62.683  47.335  49.410  0.00  0.00     0.181 C 
ENDBRANCH  14  18
BRANCH  15  20
ATOM     20  O   UNL d   1      61.501  46.004  50.777  0.00  0.00    -0.324 OA
ATOM     21  C   UNL d   1      60.945  45.401  50.886  0.00  0.00     0.182 C 
ENDBRANCH  15  20
BRANCH  16  22
ATOM     22  O   UNL d   1      60.536  46.574  51.993  0.00  0.00    -0.326 OA
ATOM     23  C   UNL d   1      60.034  45.938  51.855  0.00  0.00     0.181 C 
ENDBRANCH  16  22
ENDBRANCH   1  12
BRANCH   1  24
ATOM     24  C   UNL d   1      60.923  49.706  51.152  0.00  0.00     0.148 C 
BRANCH  24  25
ATOM     25  N   UNL d   1      61.014  49.595  51.969  0.00  0.00    -0.112 N 
ATOM     26  O   UNL d   1      61.766  49.399  52.270  0.00  0.00    -0.532 OA
ATOM     27  O   UNL d   1      60.370  49.678  52.470  0.00  0.00    -0.532 OA
ENDBRANCH  24  25
ENDBRANCH   1  24
TORSDOF 7
ENDMDL
