MODEL 1
REMARK VINA RESULT:      37.4      0.000      0.000
REMARK  1 active torsions:
REMARK  status: ('A' for Active; 'I' for Inactive)
REMARK    1  A    between atoms: C_2  and  N_1 
ROOT
ATOM      1  C   UNL d   1      13.621  12.148  -3.138  0.00  0.00     0.153 A 
ATOM      2  C   UNL d   1      13.733  12.956  -3.092  0.00  0.00     0.059 A 
ATOM      3  C   UNL d   1      13.434  13.457  -3.725  0.00  0.00     0.115 A 
ATOM      4  S   UNL d   1      13.634  14.233  -3.515  0.00  0.00    -0.068 SA
ATOM      5  C   UNL d   1      14.093  13.441  -2.538  0.00  0.00     0.011 A 
ATOM      6  C   UNL d   1      14.034  14.223  -2.794  0.00  0.00     0.031 A 
ATOM      7  N   UNL d   1      13.222  11.779  -3.785  0.00  0.00    -0.206 NA
ATOM      8  N   UNL d   1      13.043  13.130  -4.365  0.00  0.00    -0.217 NA
ATOM      9  C   UNL d   1      12.919  12.294  -4.428  0.00  0.00     0.201 A 
ATOM     10  C   UNL d   1      14.475  13.280  -1.820  0.00  0.00     0.001 A 
ATOM     11  C   UNL d   1      14.353  14.852  -2.340  0.00  0.00     0.006 A 
ATOM     12  C   UNL d   1      14.811  13.901  -1.335  0.00  0.00     0.000 A 
ATOM     13  C   UNL d   1      14.733  14.665  -1.621  0.00  0.00     0.001 A 
ENDROOT
BRANCH   1  14
ATOM     14  N   UNL d   1      14.010  12.045  -2.419  0.00  0.00    -0.273 N 
ATOM     15  C   UNL d   1      14.824  12.003  -2.669  0.00  0.00     0.184 A 
ATOM     16  N   UNL d   1      15.295  11.900  -2.010  0.00  0.00    -0.224 NA
ATOM     17  C   UNL d   1      14.807  11.876  -1.357  0.00  0.00     0.099 A 
ATOM     18  C   UNL d   1      13.989  11.965  -1.584  0.00  0.00     0.085 A 
ATOM     19  C   UNL d   1      14.976  11.784  -0.559  0.00  0.00     0.021 A 
ATOM     20  C   UNL d   1      13.398  11.959  -1.033  0.00  0.00     0.019 A 
ATOM     21  C   UNL d   1      13.589  11.865  -0.234  0.00  0.00     0.002 A 
ATOM     22  C   UNL d   1      14.369  11.780  -0.014  0.00  0.00     0.002 A 
ENDBRANCH   1  14
TORSDOF 1
ENDMDL
