MODEL 1
REMARK VINA RESULT:      78.9      0.000      0.000
REMARK  7 active torsions:
REMARK  status: ('A' for Active; 'I' for Inactive)
REMARK    1  A    between atoms: S_3  and  N_1 
REMARK    2  A    between atoms: C_18  and  S_3 
REMARK    3  A    between atoms: C_8  and  C_4 
REMARK    4  A    between atoms: S_5  and  N_9 
REMARK    5  A    between atoms: C_12  and  C_6 
REMARK    6  A    between atoms: N_9  and  C_19 
REMARK    7  A    between atoms: C_26  and  C_18 
ROOT
ATOM      1  N   UNL d   1     -49.983  25.880  33.878  0.00  0.00    -0.152 N 
ATOM      2  N   UNL d   1     -49.291  26.270  34.109  0.00  0.00    -0.155 NA
ATOM      3  C   UNL d   1     -50.598  26.434  33.890  0.00  0.00     0.098 A 
ATOM      4  C   UNL d   1     -49.477  27.056  34.263  0.00  0.00     0.104 A 
ATOM      5  C   UNL d   1     -50.283  27.155  34.126  0.00  0.00     0.041 A 
ENDROOT
BRANCH   4   6
ATOM      6  C   UNL d   1     -48.953  27.639  34.507  0.00  0.00     0.019 A 
ATOM      7  C   UNL d   1     -48.849  27.782  35.306  0.00  0.00     0.003 A 
ATOM      8  C   UNL d   1     -48.322  28.368  35.553  0.00  0.00     0.020 A 
ATOM      9  C   UNL d   1     -47.900  28.809  34.994  0.00  0.00     0.093 A 
ATOM     10  C   UNL d   1     -48.011  28.659  34.191  0.00  0.00     0.020 A 
ATOM     11  C   UNL d   1     -48.531  28.080  33.945  0.00  0.00     0.003 A 
BRANCH   9  12
ATOM     12  N   UNL d   1     -47.377  29.392  35.249  0.00  0.00    -0.162 NA
BRANCH  12  13
ATOM     13  S   UNL d   1     -47.643  30.139  35.444  0.00  0.00     0.266 S 
ATOM     14  O   UNL d   1     -47.101  30.038  36.060  0.00  0.00    -0.203 OA
ATOM     15  O   UNL d   1     -47.688  30.837  35.885  0.00  0.00    -0.203 OA
ATOM     16  C   UNL d   1     -48.188  30.264  34.841  0.00  0.00     0.165 C 
ENDBRANCH  12  13
ENDBRANCH   9  12
ENDBRANCH   4   6
BRANCH   1  17
ATOM     17  S   UNL d   1     -50.041  25.084  33.674  0.00  0.00     0.287 S 
ATOM     18  O   UNL d   1     -50.638  25.609  33.458  0.00  0.00    -0.198 OA
ATOM     19  O   UNL d   1     -50.449  24.466  33.315  0.00  0.00    -0.198 OA
BRANCH  17  20
ATOM     20  C   UNL d   1     -49.417  24.618  33.918  0.00  0.00     0.117 C 
BRANCH  20  21
ATOM     21  C   UNL d   1     -49.277  23.893  33.546  0.00  0.00     0.014 C 
ATOM     22  C   UNL d   1     -49.670  23.215  33.811  0.00  0.00     0.001 C 
ENDBRANCH  20  21
ENDBRANCH  17  20
ENDBRANCH   1  17
BRANCH   3  23
ATOM     23  C   UNL d   1     -51.378  26.282  33.699  0.00  0.00     0.046 A 
ATOM     24  C   UNL d   1     -51.872  26.928  33.507  0.00  0.00     0.142 A 
ATOM     25  F   UNL d   1     -51.569  27.695  33.515  0.00  0.00    -0.204 F 
ATOM     26  C   UNL d   1     -52.666  26.785  33.311  0.00  0.00     0.030 A 
ATOM     27  C   UNL d   1     -52.940  26.053  33.308  0.00  0.00     0.002 A 
ATOM     28  C   UNL d   1     -52.446  25.407  33.500  0.00  0.00     0.000 A 
ATOM     29  C   UNL d   1     -51.657  25.484  33.700  0.00  0.00     0.004 A 
ENDBRANCH   3  23
TORSDOF 7
ENDMDL
MODEL 2
REMARK VINA RESULT:      79.8      1.698      5.497
REMARK  7 active torsions:
REMARK  status: ('A' for Active; 'I' for Inactive)
REMARK    1  A    between atoms: S_3  and  N_1 
REMARK    2  A    between atoms: C_18  and  S_3 
REMARK    3  A    between atoms: C_8  and  C_4 
REMARK    4  A    between atoms: S_5  and  N_9 
REMARK    5  A    between atoms: C_12  and  C_6 
REMARK    6  A    between atoms: N_9  and  C_19 
REMARK    7  A    between atoms: C_26  and  C_18 
ROOT
ATOM      1  N   UNL d   1     -47.766  29.701  35.210  0.00  0.00    -0.152 N 
ATOM      2  N   UNL d   1     -48.067  28.937  35.108  0.00  0.00    -0.155 NA
ATOM      3  C   UNL d   1     -48.215  30.213  34.738  0.00  0.00     0.098 A 
ATOM      4  C   UNL d   1     -48.695  28.977  34.578  0.00  0.00     0.104 A 
ATOM      5  C   UNL d   1     -48.784  29.764  34.352  0.00  0.00     0.041 A 
ENDROOT
BRANCH   4   6
ATOM      6  C   UNL d   1     -49.152  28.345  34.320  0.00  0.00     0.019 A 
ATOM      7  C   UNL d   1     -49.470  28.356  33.566  0.00  0.00     0.003 A 
ATOM      8  C   UNL d   1     -49.930  27.720  33.306  0.00  0.00     0.020 A 
ATOM      9  C   UNL d   1     -50.068  27.076  33.806  0.00  0.00     0.093 A 
ATOM     10  C   UNL d   1     -49.744  27.073  34.564  0.00  0.00     0.020 A 
ATOM     11  C   UNL d   1     -49.289  27.700  34.823  0.00  0.00     0.003 A 
BRANCH   9  12
ATOM     12  N   UNL d   1     -50.527  26.447  33.539  0.00  0.00    -0.162 NA
BRANCH  12  13
ATOM     13  S   UNL d   1     -51.341  26.507  33.503  0.00  0.00     0.266 S 
ATOM     14  O   UNL d   1     -51.283  25.686  33.585  0.00  0.00    -0.203 OA
ATOM     15  O   UNL d   1     -52.122  26.236  33.500  0.00  0.00    -0.203 OA
ATOM     16  C   UNL d   1     -51.425  27.320  33.422  0.00  0.00     0.165 C 
ENDBRANCH  12  13
ENDBRANCH   9  12
ENDBRANCH   4   6
BRANCH   1  17
ATOM     17  S   UNL d   1     -47.134  29.907  35.697  0.00  0.00     0.287 S 
ATOM     18  O   UNL d   1     -47.015  29.803  34.888  0.00  0.00    -0.198 OA
ATOM     19  O   UNL d   1     -46.336  30.084  35.795  0.00  0.00    -0.198 OA
BRANCH  17  20
ATOM     20  C   UNL d   1     -47.318  29.995  36.487  0.00  0.00     0.117 C 
BRANCH  20  21
ATOM     21  C   UNL d   1     -46.722  29.938  37.056  0.00  0.00     0.014 C 
ATOM     22  C   UNL d   1     -46.866  30.198  37.827  0.00  0.00     0.001 C 
ENDBRANCH  20  21
ENDBRANCH  17  20
ENDBRANCH   1  17
BRANCH   3  23
ATOM     23  C   UNL d   1     -48.104  31.019  34.675  0.00  0.00     0.046 A 
ATOM     24  C   UNL d   1     -48.497  31.426  34.059  0.00  0.00     0.142 A 
ATOM     25  F   UNL d   1     -48.982  31.012  33.536  0.00  0.00    -0.204 F 
ATOM     26  C   UNL d   1     -48.391  32.246  33.985  0.00  0.00     0.030 A 
ATOM     27  C   UNL d   1     -47.929  32.626  34.488  0.00  0.00     0.002 A 
ATOM     28  C   UNL d   1     -47.536  32.219  35.104  0.00  0.00     0.000 A 
ATOM     29  C   UNL d   1     -47.600  31.414  35.228  0.00  0.00     0.004 A 
ENDBRANCH   3  23
TORSDOF 7
ENDMDL
