MODEL 1
REMARK VINA RESULT:      -4.0      0.000      0.000
REMARK  4 active torsions:
REMARK  status: ('A' for Active; 'I' for Inactive)
REMARK       I    between atoms: C_2  and  N_1 
REMARK    1  A    between atoms: C_3  and  N_1 
REMARK       I    between atoms: N_6  and  C_2 
REMARK    2  A    between atoms: C_9  and  N_6 
REMARK    3  A    between atoms: C_10  and  C_9 
REMARK    4  A    between atoms: C_11  and  C_10 
ROOT
ATOM      1  N   UNL d   1      57.796  -0.573  30.266  0.00  0.00    -0.172 NA
ATOM      2  C   UNL d   1      57.481  -0.185  30.923  0.00  0.00     0.370 C 
ATOM      3  O   UNL d   1      57.629   0.614  31.040  0.00  0.00    -0.242 OA
ATOM      4  N   UNL d   1      57.014  -0.605  31.464  0.00  0.00    -0.189 NA
ENDROOT
BRANCH   1   5
ATOM      5  C   UNL d   1      58.262  -0.153  29.725  0.00  0.00     0.167 A 
ATOM      6  N   UNL d   1      57.908   0.264  29.113  0.00  0.00    -0.225 NA
ATOM      7  C   UNL d   1      58.373   0.680  28.577  0.00  0.00     0.101 A 
ATOM      8  C   UNL d   1      59.196   0.682  28.652  0.00  0.00     0.021 A 
ATOM      9  C   UNL d   1      59.545   0.260  29.270  0.00  0.00     0.005 A 
ATOM     10  C   UNL d   1      59.083  -0.155  29.805  0.00  0.00     0.039 A 
ENDBRANCH   1   5
BRANCH   4  11
ATOM     11  C   UNL d   1      56.699  -0.217  32.121  0.00  0.00     0.104 C 
BRANCH  11  12
ATOM     12  C   UNL d   1      56.107  -0.581  32.559  0.00  0.00     0.021 C 
BRANCH  12  13
ATOM     13  C   UNL d   1      55.981  -0.352  33.345  0.00  0.00     0.002 C 
ATOM     14  C   UNL d   1      55.223  -0.179  33.603  0.00  0.00     0.000 C 
ENDBRANCH  12  13
ENDBRANCH  11  12
ENDBRANCH   4  11
TORSDOF 4
ENDMDL
MODEL 2
REMARK VINA RESULT:      -4.0      0.818      4.170
REMARK  4 active torsions:
REMARK  status: ('A' for Active; 'I' for Inactive)
REMARK       I    between atoms: C_2  and  N_1 
REMARK    1  A    between atoms: C_3  and  N_1 
REMARK       I    between atoms: N_6  and  C_2 
REMARK    2  A    between atoms: C_9  and  N_6 
REMARK    3  A    between atoms: C_10  and  C_9 
REMARK    4  A    between atoms: C_11  and  C_10 
ROOT
ATOM      1  N   UNL d   1      56.632  -0.315  31.442  0.00  0.00    -0.172 NA
ATOM      2  C   UNL d   1      57.386   0.011  31.365  0.00  0.00     0.370 C 
ATOM      3  O   UNL d   1      57.779   0.304  32.024  0.00  0.00    -0.242 OA
ATOM      4  N   UNL d   1      57.747   0.043  30.619  0.00  0.00    -0.189 NA
ENDROOT
BRANCH   1   5
ATOM      5  C   UNL d   1      56.272  -0.347  32.187  0.00  0.00     0.167 A 
ATOM      6  N   UNL d   1      55.940   0.330  32.512  0.00  0.00    -0.225 NA
ATOM      7  C   UNL d   1      55.583   0.297  33.253  0.00  0.00     0.101 A 
ATOM      8  C   UNL d   1      55.557  -0.415  33.672  0.00  0.00     0.021 A 
ATOM      9  C   UNL d   1      55.894  -1.091  33.338  0.00  0.00     0.005 A 
ATOM     10  C   UNL d   1      56.250  -1.060  32.601  0.00  0.00     0.039 A 
ENDBRANCH   1   5
BRANCH   4  11
ATOM     11  C   UNL d   1      58.501   0.370  30.542  0.00  0.00     0.104 C 
BRANCH  11  12
ATOM     12  C   UNL d   1      58.872   0.360  29.809  0.00  0.00     0.021 C 
BRANCH  12  13
ATOM     13  C   UNL d   1      59.631   0.682  29.731  0.00  0.00     0.002 C 
ATOM     14  C   UNL d   1      60.036   0.606  29.022  0.00  0.00     0.000 C 
ENDBRANCH  12  13
ENDBRANCH  11  12
ENDBRANCH   4  11
TORSDOF 4
ENDMDL
MODEL 3
REMARK VINA RESULT:      -3.5      1.224      4.302
REMARK  4 active torsions:
REMARK  status: ('A' for Active; 'I' for Inactive)
REMARK       I    between atoms: C_2  and  N_1 
REMARK    1  A    between atoms: C_3  and  N_1 
REMARK       I    between atoms: N_6  and  C_2 
REMARK    2  A    between atoms: C_9  and  N_6 
REMARK    3  A    between atoms: C_10  and  C_9 
REMARK    4  A    between atoms: C_11  and  C_10 
ROOT
ATOM      1  N   UNL d   1      56.832   0.682  32.100  0.00  0.00    -0.172 NA
ATOM      2  C   UNL d   1      57.086   0.036  31.655  0.00  0.00     0.370 C 
ATOM      3  O   UNL d   1      56.900  -0.728  31.892  0.00  0.00    -0.242 OA
ATOM      4  N   UNL d   1      57.529   0.160  30.965  0.00  0.00    -0.189 NA
ENDROOT
BRANCH   1   5
ATOM      5  C   UNL d   1      56.389   0.557  32.789  0.00  0.00     0.167 A 
ATOM      6  N   UNL d   1      56.768   0.461  33.511  0.00  0.00    -0.225 NA
ATOM      7  C   UNL d   1      56.326   0.337  34.193  0.00  0.00     0.101 A 
ATOM      8  C   UNL d   1      55.501   0.310  34.157  0.00  0.00     0.021 A 
ATOM      9  C   UNL d   1      55.127   0.408  33.428  0.00  0.00     0.005 A 
ATOM     10  C   UNL d   1      55.565   0.531  32.747  0.00  0.00     0.039 A 
ENDBRANCH   1   5
BRANCH   4  11
ATOM     11  C   UNL d   1      57.783  -0.487  30.519  0.00  0.00     0.104 C 
BRANCH  11  12
ATOM     12  C   UNL d   1      58.241  -0.360  29.850  0.00  0.00     0.021 C 
BRANCH  12  13
ATOM     13  C   UNL d   1      58.605  -1.004  29.475  0.00  0.00     0.002 C 
ATOM     14  C   UNL d   1      58.912  -0.916  28.721  0.00  0.00     0.000 C 
ENDBRANCH  12  13
ENDBRANCH  11  12
ENDBRANCH   4  11
TORSDOF 4
ENDMDL
MODEL 4
REMARK VINA RESULT:      -2.4      9.594     10.600
REMARK  4 active torsions:
REMARK  status: ('A' for Active; 'I' for Inactive)
REMARK       I    between atoms: C_2  and  N_1 
REMARK    1  A    between atoms: C_3  and  N_1 
REMARK       I    between atoms: N_6  and  C_2 
REMARK    2  A    between atoms: C_9  and  N_6 
REMARK    3  A    between atoms: C_10  and  C_9 
REMARK    4  A    between atoms: C_11  and  C_10 
ROOT
ATOM      1  N   UNL d   1      60.862  -8.860  34.491  0.00  0.00    -0.172 NA
ATOM      2  C   UNL d   1      60.508  -9.178  33.817  0.00  0.00     0.370 C 
ATOM      3  O   UNL d   1      59.691  -9.179  33.741  0.00  0.00    -0.242 OA
ATOM      4  N   UNL d   1      60.982  -9.496  33.215  0.00  0.00    -0.189 NA
ENDROOT
BRANCH   1   5
ATOM      5  C   UNL d   1      60.389  -8.542  35.092  0.00  0.00     0.167 A 
ATOM      6  N   UNL d   1      60.400  -7.735  35.241  0.00  0.00    -0.225 NA
ATOM      7  C   UNL d   1      59.929  -7.421  35.838  0.00  0.00     0.101 A 
ATOM      8  C   UNL d   1      59.444  -7.914  36.291  0.00  0.00     0.021 A 
ATOM      9  C   UNL d   1      59.439  -8.725  36.135  0.00  0.00     0.005 A 
ATOM     10  C   UNL d   1      59.907  -9.040  35.541  0.00  0.00     0.039 A 
ENDBRANCH   1   5
BRANCH   4  11
ATOM     11  C   UNL d   1      60.628  -9.814  32.541  0.00  0.00     0.104 C 
BRANCH  11  12
ATOM     12  C   UNL d   1      61.037  -9.807  31.829  0.00  0.00     0.021 C 
BRANCH  12  13
ATOM     13  C   UNL d   1      60.616  -9.818  31.115  0.00  0.00     0.002 C 
ATOM     14  C   UNL d   1      61.015  -9.724  30.405  0.00  0.00     0.000 C 
ENDBRANCH  12  13
ENDBRANCH  11  12
ENDBRANCH   4  11
TORSDOF 4
ENDMDL
MODEL 5
REMARK VINA RESULT:      -2.0      1.835      4.844
REMARK  4 active torsions:
REMARK  status: ('A' for Active; 'I' for Inactive)
REMARK       I    between atoms: C_2  and  N_1 
REMARK    1  A    between atoms: C_3  and  N_1 
REMARK       I    between atoms: N_6  and  C_2 
REMARK    2  A    between atoms: C_9  and  N_6 
REMARK    3  A    between atoms: C_10  and  C_9 
REMARK    4  A    between atoms: C_11  and  C_10 
ROOT
ATOM      1  N   UNL d   1      55.719   0.670  33.041  0.00  0.00    -0.172 NA
ATOM      2  C   UNL d   1      56.071  -0.026  32.773  0.00  0.00     0.370 C 
ATOM      3  O   UNL d   1      55.996  -0.720  33.204  0.00  0.00    -0.242 OA
ATOM      4  N   UNL d   1      56.502  -0.022  32.064  0.00  0.00    -0.189 NA
ENDROOT
BRANCH   1   5
ATOM      5  C   UNL d   1      55.288   0.666  33.749  0.00  0.00     0.167 A 
ATOM      6  N   UNL d   1      54.467   0.654  33.731  0.00  0.00    -0.225 NA
ATOM      7  C   UNL d   1      54.042   0.650  34.435  0.00  0.00     0.101 A 
ATOM      8  C   UNL d   1      54.436   0.658  35.161  0.00  0.00     0.021 A 
ATOM      9  C   UNL d   1      55.262   0.671  35.171  0.00  0.00     0.005 A 
ATOM     10  C   UNL d   1      55.687   0.675  34.471  0.00  0.00     0.039 A 
ENDBRANCH   1   5
BRANCH   4  11
ATOM     11  C   UNL d   1      56.855  -0.718  31.796  0.00  0.00     0.104 C 
BRANCH  11  12
ATOM     12  C   UNL d   1      57.185  -0.740  31.044  0.00  0.00     0.021 C 
BRANCH  12  13
ATOM     13  C   UNL d   1      57.985  -0.549  30.942  0.00  0.00     0.002 C 
ATOM     14  C   UNL d   1      58.434  -0.957  30.391  0.00  0.00     0.000 C 
ENDBRANCH  12  13
ENDBRANCH  11  12
ENDBRANCH   4  11
TORSDOF 4
ENDMDL
MODEL 6
REMARK VINA RESULT:      -1.7      9.671     10.311
REMARK  4 active torsions:
REMARK  status: ('A' for Active; 'I' for Inactive)
REMARK       I    between atoms: C_2  and  N_1 
REMARK    1  A    between atoms: C_3  and  N_1 
REMARK       I    between atoms: N_6  and  C_2 
REMARK    2  A    between atoms: C_9  and  N_6 
REMARK    3  A    between atoms: C_10  and  C_9 
REMARK    4  A    between atoms: C_11  and  C_10 
ROOT
ATOM      1  N   UNL d   1      58.762  -9.200  33.972  0.00  0.00    -0.172 NA
ATOM      2  C   UNL d   1      58.850  -9.451  33.191  0.00  0.00     0.370 C 
ATOM      3  O   UNL d   1      59.599  -9.584  32.882  0.00  0.00    -0.242 OA
ATOM      4  N   UNL d   1      58.179  -9.567  32.717  0.00  0.00    -0.189 NA
ENDROOT
BRANCH   1   5
ATOM      5  C   UNL d   1      59.432  -9.084  34.444  0.00  0.00     0.167 A 
ATOM      6  N   UNL d   1      59.599  -8.338  34.745  0.00  0.00    -0.225 NA
ATOM      7  C   UNL d   1      60.265  -8.225  35.214  0.00  0.00     0.101 A 
ATOM      8  C   UNL d   1      60.769  -8.858  35.385  0.00  0.00     0.021 A 
ATOM      9  C   UNL d   1      60.594  -9.604  35.077  0.00  0.00     0.005 A 
ATOM     10  C   UNL d   1      59.931  -9.719  34.610  0.00  0.00     0.039 A 
ENDBRANCH   1   5
BRANCH   4  11
ATOM     11  C   UNL d   1      58.268  -9.818  31.936  0.00  0.00     0.104 C 
BRANCH  11  12
ATOM     12  C   UNL d   1      57.620  -9.803  31.431  0.00  0.00     0.021 C 
BRANCH  12  13
ATOM     13  C   UNL d   1      57.701  -9.487  30.670  0.00  0.00     0.002 C 
ATOM     14  C   UNL d   1      57.289  -9.818  30.044  0.00  0.00     0.000 C 
ENDBRANCH  12  13
ENDBRANCH  11  12
ENDBRANCH   4  11
TORSDOF 4
ENDMDL
