MODEL 1
REMARK VINA RESULT:      -0.7      0.000      0.000
REMARK  6 active torsions:
REMARK  status: ('A' for Active; 'I' for Inactive)
REMARK    1  A    between atoms: O_8  and  C_2 
REMARK    2  A    between atoms: C_10  and  C_5 
REMARK    3  A    between atoms: C_21  and  O_8 
REMARK    4  A    between atoms: N_9  and  C_10 
REMARK    5  A    between atoms: C_12  and  C_15 
REMARK    6  A    between atoms: O_26  and  C_12 
ROOT
ATOM      1  C   UNL d   1      33.239  20.574 -22.685  0.00  0.00     0.108 A 
ATOM      2  C   UNL d   1      33.237  19.052 -23.351  0.00  0.00     0.161 A 
ATOM      3  C   UNL d   1      33.238  20.479 -23.517  0.00  0.00     0.064 A 
ATOM      4  C   UNL d   1      33.237  19.728 -23.846  0.00  0.00     0.222 A 
ATOM      5  C   UNL d   1      33.240  21.334 -22.351  0.00  0.00     0.079 A 
ATOM      6  O   UNL d   1      33.239  19.910 -22.186  0.00  0.00    -0.305 OA
ATOM      7  C   UNL d   1      33.238  19.144 -22.526  0.00  0.00     0.126 A 
ATOM      8  C   UNL d   1      33.238  21.157 -24.000  0.00  0.00     0.009 A 
ATOM      9  C   UNL d   1      33.240  21.998 -22.838  0.00  0.00     0.199 A 
ATOM     10  O   UNL d   1      33.236  19.632 -24.667  0.00  0.00    -0.284 OA
ATOM     11  C   UNL d   1      33.239  21.910 -23.666  0.00  0.00     0.042 A 
ATOM     12  O   UNL d   1      33.241  22.750 -22.511  0.00  0.00    -0.286 OA
ATOM     13  C   UNL d   1      33.238  18.479 -22.041  0.00  0.00     0.029 C 
ENDROOT
BRANCH   2  14
ATOM     14  O   UNL d   1      33.236  18.299 -23.685  0.00  0.00    -0.302 OA
BRANCH  14  15
ATOM     15  C   UNL d   1      32.523  17.929 -23.860  0.00  0.00     0.100 A 
ATOM     16  C   UNL d   1      32.271  17.288 -23.409  0.00  0.00     0.025 A 
ATOM     17  C   UNL d   1      31.557  16.918 -23.584  0.00  0.00     0.007 A 
ATOM     18  C   UNL d   1      31.095  17.188 -24.211  0.00  0.00     0.063 A 
ATOM     19  C   UNL d   1      31.354  17.837 -24.666  0.00  0.00     0.007 A 
ATOM     20  C   UNL d   1      32.063  18.202 -24.488  0.00  0.00     0.025 A 
BRANCH  18  21
ATOM     21  C   UNL d   1      30.378  16.818 -24.390  0.00  0.00     0.296 C 
ATOM     22  O   UNL d   1      30.367  16.125 -24.836  0.00  0.00    -0.259 OA
BRANCH  21  23
ATOM     23  O   UNL d   1      29.664  17.139 -24.124  0.00  0.00    -0.296 OA
ATOM     24  C   UNL d   1      28.951  16.803 -24.367  0.00  0.00     0.185 C 
ENDBRANCH  21  23
ENDBRANCH  18  21
ENDBRANCH  14  15
ENDBRANCH   2  14
BRANCH   5  25
ATOM     25  C   UNL d   1      33.241  21.421 -21.540  0.00  0.00     0.086 C 
BRANCH  25  26
ATOM     26  N   UNL d   1      32.758  21.992 -21.185  0.00  0.00    -0.300 N 
ATOM     27  C   UNL d   1      33.094  22.576 -20.709  0.00  0.00     0.100 A 
ATOM     28  C   UNL d   1      32.614  23.142 -20.358  0.00  0.00     0.100 A 
ATOM     29  N   UNL d   1      31.801  23.129 -20.478  0.00  0.00    -0.299 N 
ATOM     30  C   UNL d   1      31.464  22.542 -20.956  0.00  0.00     0.100 A 
ATOM     31  C   UNL d   1      31.315  23.702 -20.122  0.00  0.00     0.100 C 
ATOM     32  C   UNL d   1      31.947  21.971 -21.310  0.00  0.00     0.100 A 
ENDBRANCH  25  26
ENDBRANCH   5  25
TORSDOF 6
ENDMDL
