MODEL 1
REMARK VINA RESULT:      20.9      0.000      0.000
REMARK  5 active torsions:
REMARK  status: ('A' for Active; 'I' for Inactive)
REMARK    1  A    between atoms: O_6  and  C_1 
REMARK    2  A    between atoms: C_2  and  C_4 
REMARK    3  A    between atoms: O_7  and  C_3 
REMARK    4  A    between atoms: C_8  and  O_6 
REMARK    5  A    between atoms: C_9  and  O_7 
ROOT
ATOM      1  C   UNL d   1     -51.602  24.904  33.392  0.00  0.00     0.126 A 
ATOM      2  C   UNL d   1     -52.065  24.234  33.517  0.00  0.00     0.126 A 
ATOM      3  C   UNL d   1     -50.422  24.091  33.441  0.00  0.00     0.067 A 
ATOM      4  C   UNL d   1     -50.781  24.835  33.354  0.00  0.00     0.033 A 
ATOM      5  C   UNL d   1     -51.707  23.491  33.604  0.00  0.00     0.027 A 
ATOM      6  C   UNL d   1     -50.889  23.425  33.566  0.00  0.00     0.008 A 
ENDROOT
BRANCH   1   7
ATOM      7  O   UNL d   1     -51.958  25.643  33.306  0.00  0.00    -0.271 OA
BRANCH   7   8
ATOM      8  C   UNL d   1     -51.871  26.215  33.893  0.00  0.00     0.300 C 
ATOM      9  O   UNL d   1     -51.996  26.013  34.699  0.00  0.00    -0.259 OA
ATOM     10  C   UNL d   1     -51.662  26.986  33.688  0.00  0.00     0.074 C 
ENDBRANCH   7   8
ENDBRANCH   1   7
BRANCH   2  11
ATOM     11  O   UNL d   1     -52.904  24.307  33.556  0.00  0.00    -0.271 OA
BRANCH  11  12
ATOM     12  C   UNL d   1     -53.361  23.669  33.799  0.00  0.00     0.300 C 
ATOM     13  O   UNL d   1     -53.105  23.188  34.420  0.00  0.00    -0.259 OA
ATOM     14  C   UNL d   1     -54.081  23.512  33.418  0.00  0.00     0.074 C 
ENDBRANCH  11  12
ENDBRANCH   2  11
BRANCH   3  15
ATOM     15  C   UNL d   1     -49.584  24.009  33.404  0.00  0.00     0.211 C 
ATOM     16  O   UNL d   1     -49.114  24.685  33.466  0.00  0.00    -0.644 OA
ATOM     17  O   UNL d   1     -49.241  23.254  33.306  0.00  0.00    -0.644 OA
ENDBRANCH   3  15
TORSDOF 5
ENDMDL
