MODEL 1
REMARK VINA RESULT:       2.2      0.000      0.000
REMARK  4 active torsions:
REMARK  status: ('A' for Active; 'I' for Inactive)
REMARK       I    between atoms: N_2  and  C_1 
REMARK    1  A    between atoms: C_4  and  C_1 
REMARK    2  A    between atoms: C_5  and  N_3 
REMARK    3  A    between atoms: O_21  and  C_8 
REMARK    4  A    between atoms: O_22  and  C_15 
ROOT
ATOM      1  C   UNL d   1     -41.738-123.269 -51.285  0.00  0.00     0.265 C 
ATOM      2  N   UNL d   1     -41.956-122.855 -51.959  0.00  0.00    -0.269 N 
ATOM      3  N   UNL d   1     -42.389-122.029 -53.304  0.00  0.00    -0.301 N 
ATOM      4  C   UNL d   1     -41.558-122.990 -52.662  0.00  0.00     0.102 A 
ATOM      5  C   UNL d   1     -42.567-122.312 -51.921  0.00  0.00     0.102 A 
ATOM      6  C   UNL d   1     -42.785-121.898 -52.596  0.00  0.00     0.100 A 
ATOM      7  C   UNL d   1     -41.780-122.571 -53.339  0.00  0.00     0.100 A 
ATOM      8  O   UNL d   1     -41.123-123.817 -51.316  0.00  0.00    -0.267 OA
ENDROOT
BRANCH   1   9
ATOM      9  C   UNL d   1     -42.136-123.136 -50.575  0.00  0.00     0.059 A 
ATOM     10  C   UNL d   1     -41.805-122.638 -50.003  0.00  0.00     0.031 A 
ATOM     11  C   UNL d   1     -42.206-122.500 -49.281  0.00  0.00     0.116 A 
ATOM     12  C   UNL d   1     -42.932-122.859 -49.140  0.00  0.00     0.116 A 
ATOM     13  C   UNL d   1     -43.270-123.364 -49.717  0.00  0.00     0.026 A 
ATOM     14  C   UNL d   1     -42.877-123.506 -50.436  0.00  0.00     0.007 A 
BRANCH  11  15
ATOM     15  O   UNL d   1     -41.874-122.007 -48.719  0.00  0.00    -0.326 OA
ATOM     16  C   UNL d   1     -41.123-122.164 -48.415  0.00  0.00     0.181 C 
ENDBRANCH  11  15
BRANCH  12  17
ATOM     17  O   UNL d   1     -43.330-122.726 -48.430  0.00  0.00    -0.326 OA
ATOM     18  C   UNL d   1     -43.270-123.270 -47.814  0.00  0.00     0.181 C 
ENDBRANCH  12  17
ENDBRANCH   1   9
BRANCH   3  19
ATOM     19  C   UNL d   1     -42.283-121.868 -54.108  0.00  0.00     0.064 A 
ATOM     20  C   UNL d   1     -42.750-122.235 -54.663  0.00  0.00     0.018 A 
ATOM     21  C   UNL d   1     -42.647-122.078 -55.463  0.00  0.00     0.001 A 
ATOM     22  C   UNL d   1     -43.125-122.455 -56.019  0.00  0.00     0.000 C 
ATOM     23  C   UNL d   1     -42.066-121.544 -55.704  0.00  0.00     0.000 A 
ATOM     24  C   UNL d   1     -41.594-121.174 -55.139  0.00  0.00     0.002 A 
ATOM     25  C   UNL d   1     -41.957-121.381 -56.507  0.00  0.00     0.000 C 
ATOM     26  C   UNL d   1     -41.696-121.330 -54.336  0.00  0.00     0.018 A 
ENDBRANCH   3  19
TORSDOF 4
ENDMDL
MODEL 2
REMARK VINA RESULT:       2.4      0.971      1.131
REMARK  4 active torsions:
REMARK  status: ('A' for Active; 'I' for Inactive)
REMARK       I    between atoms: N_2  and  C_1 
REMARK    1  A    between atoms: C_4  and  C_1 
REMARK    2  A    between atoms: C_5  and  N_3 
REMARK    3  A    between atoms: O_21  and  C_8 
REMARK    4  A    between atoms: O_22  and  C_15 
ROOT
ATOM      1  C   UNL d   1     -41.831-122.104 -50.522  0.00  0.00     0.265 C 
ATOM      2  N   UNL d   1     -42.053-122.182 -51.309  0.00  0.00    -0.269 N 
ATOM      3  N   UNL d   1     -42.493-122.338 -52.876  0.00  0.00    -0.301 N 
ATOM      4  C   UNL d   1     -41.585-121.852 -51.894  0.00  0.00     0.102 A 
ATOM      5  C   UNL d   1     -42.737-122.589 -51.498  0.00  0.00     0.102 A 
ATOM      6  C   UNL d   1     -42.958-122.667 -52.285  0.00  0.00     0.100 A 
ATOM      7  C   UNL d   1     -41.811-121.933 -52.685  0.00  0.00     0.100 A 
ATOM      8  O   UNL d   1     -41.143-121.696 -50.324  0.00  0.00    -0.267 OA
ENDROOT
BRANCH   1   9
ATOM      9  C   UNL d   1     -42.299-122.435 -49.929  0.00  0.00     0.059 A 
ATOM     10  C   UNL d   1     -41.974-122.589 -49.183  0.00  0.00     0.031 A 
ATOM     11  C   UNL d   1     -42.447-122.925 -48.579  0.00  0.00     0.116 A 
ATOM     12  C   UNL d   1     -43.236-123.103 -48.727  0.00  0.00     0.116 A 
ATOM     13  C   UNL d   1     -43.568-122.949 -49.480  0.00  0.00     0.026 A 
ATOM     14  C   UNL d   1     -43.105-122.615 -50.086  0.00  0.00     0.007 A 
BRANCH  11  15
ATOM     15  O   UNL d   1     -42.121-123.074 -47.845  0.00  0.00    -0.326 OA
ATOM     16  C   UNL d   1     -41.302-123.135 -47.753  0.00  0.00     0.181 C 
ENDBRANCH  11  15
BRANCH  12  17
ATOM     17  O   UNL d   1     -43.704-123.434 -48.134  0.00  0.00    -0.326 OA
ATOM     18  C   UNL d   1     -44.418-123.800 -48.327  0.00  0.00     0.181 C 
ENDBRANCH  12  17
ENDBRANCH   1   9
BRANCH   3  19
ATOM     19  C   UNL d   1     -42.347-122.189 -53.677  0.00  0.00     0.064 A 
ATOM     20  C   UNL d   1     -41.817-122.650 -54.087  0.00  0.00     0.018 A 
ATOM     21  C   UNL d   1     -41.669-122.506 -54.883  0.00  0.00     0.001 A 
ATOM     22  C   UNL d   1     -41.131-122.978 -55.291  0.00  0.00     0.000 C 
ATOM     23  C   UNL d   1     -42.062-121.890 -55.267  0.00  0.00     0.000 A 
ATOM     24  C   UNL d   1     -42.598-121.426 -54.849  0.00  0.00     0.002 A 
ATOM     25  C   UNL d   1     -41.918-121.740 -56.067  0.00  0.00     0.000 C 
ATOM     26  C   UNL d   1     -42.748-121.568 -54.050  0.00  0.00     0.018 A 
ENDBRANCH   3  19
TORSDOF 4
ENDMDL
