MODEL 1
REMARK VINA RESULT:      -6.6      0.000      0.000
REMARK  8 active torsions:
REMARK  status: ('A' for Active; 'I' for Inactive)
REMARK    1  A    between atoms: S_10  and  C_3 
REMARK    2  A    between atoms: C_12  and  C_7 
REMARK    3  A    between atoms: C_15  and  S_10 
REMARK    4  A    between atoms: C_11  and  C_15 
REMARK       I    between atoms: N_16  and  C_11 
REMARK    5  A    between atoms: C_23  and  N_16 
REMARK    6  A    between atoms: O_24  and  C_17 
REMARK    7  A    between atoms: C_18  and  C_29 
REMARK    8  A    between atoms: C_29  and  C_23 
ROOT
ATOM      1  N   UNL d   1     -46.343  13.526  22.568  0.00  0.00    -0.186 N 
ATOM      2  N   UNL d   1     -46.857  12.901  22.677  0.00  0.00    -0.162 NA
ATOM      3  C   UNL d   1     -45.548  13.554  22.340  0.00  0.00     0.217 A 
ATOM      4  C   UNL d   1     -46.592  14.304  22.689  0.00  0.00     0.187 A 
ATOM      5  N   UNL d   1     -45.321  14.340  22.324  0.00  0.00    -0.120 NA
ATOM      6  N   UNL d   1     -45.967  14.805  22.540  0.00  0.00    -0.127 NA
ATOM      7  C   UNL d   1     -47.637  13.051  22.912  0.00  0.00     0.102 A 
ATOM      8  C   UNL d   1     -47.375  14.451  22.924  0.00  0.00     0.042 A 
ATOM      9  C   UNL d   1     -47.891  13.828  23.034  0.00  0.00     0.024 A 
ENDROOT
BRANCH   3  10
ATOM     10  S   UNL d   1     -45.056  12.917  22.157  0.00  0.00    -0.041 SA
BRANCH  10  11
ATOM     11  C   UNL d   1     -44.286  13.044  21.924  0.00  0.00     0.101 C 
BRANCH  11  12
ATOM     12  C   UNL d   1     -43.750  12.429  21.927  0.00  0.00     0.286 C 
ATOM     13  O   UNL d   1     -43.960  11.681  22.208  0.00  0.00    -0.265 OA
ATOM     14  N   UNL d   1     -42.982  12.546  21.649  0.00  0.00    -0.206 NA
BRANCH  14  15
ATOM     15  C   UNL d   1     -42.763  13.291  21.366  0.00  0.00     0.102 C 
BRANCH  15  16
ATOM     16  C   UNL d   1     -42.121  13.362  20.850  0.00  0.00     0.021 C 
BRANCH  16  17
ATOM     17  C   UNL d   1     -41.595  14.000  20.929  0.00  0.00     0.002 A 
ATOM     18  C   UNL d   1     -40.821  13.873  21.199  0.00  0.00     0.002 A 
ATOM     19  C   UNL d   1     -40.295  14.512  21.278  0.00  0.00     0.024 A 
ATOM     20  C   UNL d   1     -40.546  15.267  21.088  0.00  0.00     0.094 A 
ATOM     21  C   UNL d   1     -41.315  15.402  20.818  0.00  0.00     0.024 A 
ATOM     22  C   UNL d   1     -41.838  14.769  20.739  0.00  0.00     0.002 A 
BRANCH  20  23
ATOM     23  O   UNL d   1     -40.035  15.922  21.159  0.00  0.00    -0.328 OA
ATOM     24  C   UNL d   1     -39.262  15.869  20.896  0.00  0.00     0.181 C 
ENDBRANCH  20  23
ENDBRANCH  16  17
ENDBRANCH  15  16
ENDBRANCH  14  15
ENDBRANCH  11  12
ENDBRANCH  10  11
ENDBRANCH   3  10
BRANCH   7  25
ATOM     25  C   UNL d   1     -48.160  12.423  23.023  0.00  0.00     0.022 A 
ATOM     26  C   UNL d   1     -47.990  11.849  23.575  0.00  0.00     0.022 A 
ATOM     27  C   UNL d   1     -48.501  11.225  23.691  0.00  0.00     0.099 A 
ATOM     28  N   UNL d   1     -49.197  11.172  23.249  0.00  0.00    -0.242 NA
ATOM     29  C   UNL d   1     -49.364  11.751  22.696  0.00  0.00     0.099 A 
ATOM     30  C   UNL d   1     -48.841  12.380  22.583  0.00  0.00     0.022 A 
ENDBRANCH   7  25
TORSDOF 8
ENDMDL
MODEL 2
REMARK VINA RESULT:      -4.9      2.367      6.922
REMARK  8 active torsions:
REMARK  status: ('A' for Active; 'I' for Inactive)
REMARK    1  A    between atoms: S_10  and  C_3 
REMARK    2  A    between atoms: C_12  and  C_7 
REMARK    3  A    between atoms: C_15  and  S_10 
REMARK    4  A    between atoms: C_11  and  C_15 
REMARK       I    between atoms: N_16  and  C_11 
REMARK    5  A    between atoms: C_23  and  N_16 
REMARK    6  A    between atoms: O_24  and  C_17 
REMARK    7  A    between atoms: C_18  and  C_29 
REMARK    8  A    between atoms: C_29  and  C_23 
ROOT
ATOM      1  N   UNL d   1     -41.396  14.627  20.380  0.00  0.00    -0.186 N 
ATOM      2  N   UNL d   1     -40.941  14.244  19.820  0.00  0.00    -0.162 NA
ATOM      3  C   UNL d   1     -41.991  14.356  20.887  0.00  0.00     0.217 A 
ATOM      4  C   UNL d   1     -41.299  15.434  20.523  0.00  0.00     0.187 A 
ATOM      5  N   UNL d   1     -42.251  14.994  21.329  0.00  0.00    -0.120 NA
ATOM      6  N   UNL d   1     -41.822  15.662  21.104  0.00  0.00    -0.127 NA
ATOM      7  C   UNL d   1     -40.377  14.672  19.391  0.00  0.00     0.102 A 
ATOM      8  C   UNL d   1     -40.732  15.860  20.091  0.00  0.00     0.042 A 
ATOM      9  C   UNL d   1     -40.276  15.480  19.530  0.00  0.00     0.024 A 
ENDROOT
BRANCH   3  10
ATOM     10  S   UNL d   1     -42.286  13.587  20.950  0.00  0.00    -0.041 SA
BRANCH  10  11
ATOM     11  C   UNL d   1     -42.997  13.447  21.319  0.00  0.00     0.101 C 
BRANCH  11  12
ATOM     12  C   UNL d   1     -43.244  12.681  21.457  0.00  0.00     0.286 C 
ATOM     13  O   UNL d   1     -42.751  12.038  21.294  0.00  0.00    -0.265 OA
ATOM     14  N   UNL d   1     -43.996  12.536  21.764  0.00  0.00    -0.206 NA
BRANCH  14  15
ATOM     15  C   UNL d   1     -44.495  13.173  21.930  0.00  0.00     0.102 C 
BRANCH  15  16
ATOM     16  C   UNL d   1     -45.020  13.128  22.568  0.00  0.00     0.021 C 
BRANCH  16  17
ATOM     17  C   UNL d   1     -45.782  13.451  22.499  0.00  0.00     0.002 A 
ATOM     18  C   UNL d   1     -46.423  12.969  22.286  0.00  0.00     0.002 A 
ATOM     19  C   UNL d   1     -47.186  13.292  22.218  0.00  0.00     0.024 A 
ATOM     20  C   UNL d   1     -47.301  14.089  22.363  0.00  0.00     0.094 A 
ATOM     21  C   UNL d   1     -46.669  14.576  22.575  0.00  0.00     0.024 A 
ATOM     22  C   UNL d   1     -45.911  14.257  22.643  0.00  0.00     0.002 A 
BRANCH  20  23
ATOM     23  O   UNL d   1     -48.057  14.434  22.300  0.00  0.00    -0.328 OA
ATOM     24  C   UNL d   1     -48.547  14.470  22.955  0.00  0.00     0.181 C 
ENDBRANCH  20  23
ENDBRANCH  16  17
ENDBRANCH  15  16
ENDBRANCH  14  15
ENDBRANCH  11  12
ENDBRANCH  10  11
ENDBRANCH   3  10
BRANCH   7  25
ATOM     25  C   UNL d   1     -39.915  14.290  18.825  0.00  0.00     0.022 A 
ATOM     26  C   UNL d   1     -40.166  14.262  18.051  0.00  0.00     0.022 A 
ATOM     27  C   UNL d   1     -39.715  13.887  17.485  0.00  0.00     0.099 A 
ATOM     28  N   UNL d   1     -39.001  13.531  17.694  0.00  0.00    -0.242 NA
ATOM     29  C   UNL d   1     -38.752  13.560  18.473  0.00  0.00     0.099 A 
ATOM     30  C   UNL d   1     -39.213  13.942  19.041  0.00  0.00     0.022 A 
ENDBRANCH   7  25
TORSDOF 8
ENDMDL
MODEL 3
REMARK VINA RESULT:      -4.4      2.046      6.798
REMARK  8 active torsions:
REMARK  status: ('A' for Active; 'I' for Inactive)
REMARK    1  A    between atoms: S_10  and  C_3 
REMARK    2  A    between atoms: C_12  and  C_7 
REMARK    3  A    between atoms: C_15  and  S_10 
REMARK    4  A    between atoms: C_11  and  C_15 
REMARK       I    between atoms: N_16  and  C_11 
REMARK    5  A    between atoms: C_23  and  N_16 
REMARK    6  A    between atoms: O_24  and  C_17 
REMARK    7  A    between atoms: C_18  and  C_29 
REMARK    8  A    between atoms: C_29  and  C_23 
ROOT
ATOM      1  N   UNL d   1     -41.228  14.340  21.208  0.00  0.00    -0.186 N 
ATOM      2  N   UNL d   1     -40.596  13.894  21.470  0.00  0.00    -0.162 NA
ATOM      3  C   UNL d   1     -42.019  14.145  21.066  0.00  0.00     0.217 A 
ATOM      4  C   UNL d   1     -41.136  15.141  21.033  0.00  0.00     0.187 A 
ATOM      5  N   UNL d   1     -42.400  14.823  20.808  0.00  0.00    -0.120 NA
ATOM      6  N   UNL d   1     -41.853  15.440  20.787  0.00  0.00    -0.127 NA
ATOM      7  C   UNL d   1     -39.855  14.251  21.561  0.00  0.00     0.102 A 
ATOM      8  C   UNL d   1     -40.391  15.496  21.125  0.00  0.00     0.042 A 
ATOM      9  C   UNL d   1     -39.757  15.053  21.387  0.00  0.00     0.024 A 
ENDROOT
BRANCH   3  10
ATOM     10  S   UNL d   1     -42.381  13.409  21.161  0.00  0.00    -0.041 SA
BRANCH  10  11
ATOM     11  C   UNL d   1     -43.162  13.358  21.385  0.00  0.00     0.101 C 
BRANCH  11  12
ATOM     12  C   UNL d   1     -43.513  12.628  21.482  0.00  0.00     0.286 C 
ATOM     13  O   UNL d   1     -43.114  11.932  21.287  0.00  0.00    -0.265 OA
ATOM     14  N   UNL d   1     -44.281  12.573  21.781  0.00  0.00    -0.206 NA
BRANCH  14  15
ATOM     15  C   UNL d   1     -44.688  13.265  21.979  0.00  0.00     0.102 C 
BRANCH  15  16
ATOM     16  C   UNL d   1     -45.144  13.289  22.669  0.00  0.00     0.021 C 
BRANCH  16  17
ATOM     17  C   UNL d   1     -45.926  13.566  22.638  0.00  0.00     0.002 A 
ATOM     18  C   UNL d   1     -46.081  14.380  22.602  0.00  0.00     0.002 A 
ATOM     19  C   UNL d   1     -46.864  14.656  22.571  0.00  0.00     0.024 A 
ATOM     20  C   UNL d   1     -47.482  14.120  22.576  0.00  0.00     0.094 A 
ATOM     21  C   UNL d   1     -47.337  13.308  22.612  0.00  0.00     0.024 A 
ATOM     22  C   UNL d   1     -46.560  13.032  22.643  0.00  0.00     0.002 A 
BRANCH  20  23
ATOM     23  O   UNL d   1     -48.275  14.375  22.546  0.00  0.00    -0.328 OA
ATOM     24  C   UNL d   1     -48.452  15.133  22.290  0.00  0.00     0.181 C 
ENDBRANCH  20  23
ENDBRANCH  16  17
ENDBRANCH  15  16
ENDBRANCH  14  15
ENDBRANCH  11  12
ENDBRANCH  10  11
ENDBRANCH   3  10
BRANCH   7  25
ATOM     25  C   UNL d   1     -39.214  13.805  21.825  0.00  0.00     0.022 A 
ATOM     26  C   UNL d   1     -39.120  13.664  22.621  0.00  0.00     0.022 A 
ATOM     27  C   UNL d   1     -38.489  13.223  22.890  0.00  0.00     0.099 A 
ATOM     28  N   UNL d   1     -37.940  12.918  22.355  0.00  0.00    -0.242 NA
ATOM     29  C   UNL d   1     -38.037  13.061  21.556  0.00  0.00     0.099 A 
ATOM     30  C   UNL d   1     -38.678  13.508  21.291  0.00  0.00     0.022 A 
ENDBRANCH   7  25
TORSDOF 8
ENDMDL
MODEL 4
REMARK VINA RESULT:      -3.8      2.006      2.917
REMARK  8 active torsions:
REMARK  status: ('A' for Active; 'I' for Inactive)
REMARK    1  A    between atoms: S_10  and  C_3 
REMARK    2  A    between atoms: C_12  and  C_7 
REMARK    3  A    between atoms: C_15  and  S_10 
REMARK    4  A    between atoms: C_11  and  C_15 
REMARK       I    between atoms: N_16  and  C_11 
REMARK    5  A    between atoms: C_23  and  N_16 
REMARK    6  A    between atoms: O_24  and  C_17 
REMARK    7  A    between atoms: C_18  and  C_29 
REMARK    8  A    between atoms: C_29  and  C_23 
ROOT
ATOM      1  N   UNL d   1     -48.410  13.312  21.969  0.00  0.00    -0.186 N 
ATOM      2  N   UNL d   1     -48.774  13.864  22.448  0.00  0.00    -0.162 NA
ATOM      3  C   UNL d   1     -47.668  12.949  22.011  0.00  0.00     0.217 A 
ATOM      4  C   UNL d   1     -48.792  13.016  21.300  0.00  0.00     0.187 A 
ATOM      5  N   UNL d   1     -47.604  12.439  21.374  0.00  0.00    -0.120 NA
ATOM      6  N   UNL d   1     -48.300  12.480  20.933  0.00  0.00    -0.127 NA
ATOM      7  C   UNL d   1     -49.536  14.129  22.259  0.00  0.00     0.102 A 
ATOM      8  C   UNL d   1     -49.555  13.284  21.113  0.00  0.00     0.042 A 
ATOM      9  C   UNL d   1     -49.923  13.836  21.590  0.00  0.00     0.024 A 
ENDROOT
BRANCH   3  10
ATOM     10  S   UNL d   1     -47.084  13.064  22.583  0.00  0.00    -0.041 SA
BRANCH  10  11
ATOM     11  C   UNL d   1     -46.320  12.817  22.449  0.00  0.00     0.101 C 
BRANCH  11  12
ATOM     12  C   UNL d   1     -45.905  12.430  23.036  0.00  0.00     0.286 C 
ATOM     13  O   UNL d   1     -46.290  12.120  23.698  0.00  0.00    -0.265 OA
ATOM     14  N   UNL d   1     -45.087  12.343  22.977  0.00  0.00    -0.206 NA
BRANCH  14  15
ATOM     15  C   UNL d   1     -44.693  12.650  22.318  0.00  0.00     0.102 C 
BRANCH  15  16
ATOM     16  C   UNL d   1     -44.062  12.231  21.986  0.00  0.00     0.021 C 
BRANCH  16  17
ATOM     17  C   UNL d   1     -43.424  12.643  21.651  0.00  0.00     0.002 A 
ATOM     18  C   UNL d   1     -43.557  13.225  21.075  0.00  0.00     0.002 A 
ATOM     19  C   UNL d   1     -42.918  13.638  20.740  0.00  0.00     0.024 A 
ATOM     20  C   UNL d   1     -42.155  13.465  20.982  0.00  0.00     0.094 A 
ATOM     21  C   UNL d   1     -42.014  12.888  21.554  0.00  0.00     0.024 A 
ATOM     22  C   UNL d   1     -42.647  12.477  21.888  0.00  0.00     0.002 A 
BRANCH  20  23
ATOM     23  O   UNL d   1     -41.499  13.867  20.660  0.00  0.00    -0.328 OA
ATOM     24  C   UNL d   1     -41.311  14.620  20.920  0.00  0.00     0.181 C 
ENDBRANCH  20  23
ENDBRANCH  16  17
ENDBRANCH  15  16
ENDBRANCH  14  15
ENDBRANCH  11  12
ENDBRANCH  10  11
ENDBRANCH   3  10
BRANCH   7  25
ATOM     25  C   UNL d   1     -49.908  14.687  22.739  0.00  0.00     0.022 A 
ATOM     26  C   UNL d   1     -49.512  15.366  22.951  0.00  0.00     0.022 A 
ATOM     27  C   UNL d   1     -49.873  15.922  23.425  0.00  0.00     0.099 A 
ATOM     28  N   UNL d   1     -50.643  15.798  23.695  0.00  0.00    -0.242 NA
ATOM     29  C   UNL d   1     -51.037  15.115  23.481  0.00  0.00     0.099 A 
ATOM     30  C   UNL d   1     -50.666  14.556  23.000  0.00  0.00     0.022 A 
ENDBRANCH   7  25
TORSDOF 8
ENDMDL
MODEL 5
REMARK VINA RESULT:      -3.7      1.451      2.291
REMARK  8 active torsions:
REMARK  status: ('A' for Active; 'I' for Inactive)
REMARK    1  A    between atoms: S_10  and  C_3 
REMARK    2  A    between atoms: C_12  and  C_7 
REMARK    3  A    between atoms: C_15  and  S_10 
REMARK    4  A    between atoms: C_11  and  C_15 
REMARK       I    between atoms: N_16  and  C_11 
REMARK    5  A    between atoms: C_23  and  N_16 
REMARK    6  A    between atoms: O_24  and  C_17 
REMARK    7  A    between atoms: C_18  and  C_29 
REMARK    8  A    between atoms: C_29  and  C_23 
ROOT
ATOM      1  N   UNL d   1     -44.992  12.566  22.450  0.00  0.00    -0.186 N 
ATOM      2  N   UNL d   1     -45.604  13.093  22.328  0.00  0.00    -0.162 NA
ATOM      3  C   UNL d   1     -44.232  12.518  22.126  0.00  0.00     0.217 A 
ATOM      4  C   UNL d   1     -45.074  11.939  22.980  0.00  0.00     0.187 A 
ATOM      5  N   UNL d   1     -43.861  11.868  22.458  0.00  0.00    -0.120 NA
ATOM      6  N   UNL d   1     -44.382  11.509  22.987  0.00  0.00    -0.127 NA
ATOM      7  C   UNL d   1     -46.314  12.996  22.742  0.00  0.00     0.102 A 
ATOM      8  C   UNL d   1     -45.788  11.844  23.394  0.00  0.00     0.042 A 
ATOM      9  C   UNL d   1     -46.402  12.369  23.274  0.00  0.00     0.024 A 
ENDROOT
BRANCH   3  10
ATOM     10  S   UNL d   1     -43.891  13.022  21.569  0.00  0.00    -0.041 SA
BRANCH  10  11
ATOM     11  C   UNL d   1     -43.087  13.014  21.443  0.00  0.00     0.101 C 
BRANCH  11  12
ATOM     12  C   UNL d   1     -42.791  13.024  20.682  0.00  0.00     0.286 C 
ATOM     13  O   UNL d   1     -43.181  12.635  20.067  0.00  0.00    -0.265 OA
ATOM     14  N   UNL d   1     -42.091  13.427  20.514  0.00  0.00    -0.206 NA
BRANCH  14  15
ATOM     15  C   UNL d   1     -41.693  13.819  21.124  0.00  0.00     0.102 C 
BRANCH  15  16
ATOM     16  C   UNL d   1     -41.202  14.461  20.947  0.00  0.00     0.021 C 
BRANCH  16  17
ATOM     17  C   UNL d   1     -40.495  14.569  21.369  0.00  0.00     0.002 A 
ATOM     18  C   UNL d   1     -40.273  15.325  21.627  0.00  0.00     0.002 A 
ATOM     19  C   UNL d   1     -39.565  15.432  22.049  0.00  0.00     0.024 A 
ATOM     20  C   UNL d   1     -39.088  14.787  22.208  0.00  0.00     0.094 A 
ATOM     21  C   UNL d   1     -39.301  14.031  21.954  0.00  0.00     0.024 A 
ATOM     22  C   UNL d   1     -40.004  13.922  21.535  0.00  0.00     0.002 A 
BRANCH  20  23
ATOM     23  O   UNL d   1     -38.374  14.872  22.629  0.00  0.00    -0.328 OA
ATOM     24  C   UNL d   1     -38.387  14.992  23.439  0.00  0.00     0.181 C 
ENDBRANCH  20  23
ENDBRANCH  16  17
ENDBRANCH  15  16
ENDBRANCH  14  15
ENDBRANCH  11  12
ENDBRANCH  10  11
ENDBRANCH   3  10
BRANCH   7  25
ATOM     25  C   UNL d   1     -46.935  13.525  22.622  0.00  0.00     0.022 A 
ATOM     26  C   UNL d   1     -47.605  13.281  22.229  0.00  0.00     0.022 A 
ATOM     27  C   UNL d   1     -48.222  13.798  22.107  0.00  0.00     0.099 A 
ATOM     28  N   UNL d   1     -48.172  14.575  22.382  0.00  0.00    -0.242 NA
ATOM     29  C   UNL d   1     -47.498  14.817  22.776  0.00  0.00     0.099 A 
ATOM     30  C   UNL d   1     -46.876  14.288  22.897  0.00  0.00     0.022 A 
ENDBRANCH   7  25
TORSDOF 8
ENDMDL
