MODEL 1
REMARK VINA RESULT:      -9.9      0.000      0.000
REMARK  1 active torsions:
REMARK  status: ('A' for Active; 'I' for Inactive)
REMARK    1  A    between atoms: C_10  and  N_2 
ROOT
ATOM      1  C   UNL d   1      52.728  34.229  53.870  0.00  0.00     0.174 A 
ATOM      2  N   UNL d   1      51.550  33.884  53.143  0.00  0.00    -0.224 N 
ATOM      3  C   UNL d   1      52.074  34.452  53.426  0.00  0.00     0.292 A 
ATOM      4  C   UNL d   1      52.863  33.441  54.034  0.00  0.00     0.115 A 
ATOM      5  C   UNL d   1      51.681  33.093  53.304  0.00  0.00     0.356 A 
ATOM      6  N   UNL d   1      52.340  32.873  53.751  0.00  0.00    -0.190 NA
ATOM      7  O   UNL d   1      53.336  34.673  54.220  0.00  0.00    -0.301 OA
ATOM      8  C   UNL d   1      53.556  33.386  54.487  0.00  0.00     0.043 A 
ATOM      9  C   UNL d   1      53.848  34.148  54.602  0.00  0.00     0.102 A 
ATOM     10  O   UNL d   1      51.932  35.262  53.256  0.00  0.00    -0.264 OA
ATOM     11  O   UNL d   1      51.153  32.513  53.020  0.00  0.00    -0.244 OA
ATOM     12  C   UNL d   1      53.946  32.742  54.801  0.00  0.00     0.004 A 
ATOM     13  C   UNL d   1      54.531  34.267  55.031  0.00  0.00     0.025 A 
ATOM     14  C   UNL d   1      54.643  32.855  55.240  0.00  0.00     0.000 A 
ATOM     15  C   UNL d   1      54.935  33.618  55.355  0.00  0.00     0.002 A 
ENDROOT
BRANCH   2  16
ATOM     16  C   UNL d   1      50.890  34.111  52.695  0.00  0.00     0.071 A 
ATOM     17  C   UNL d   1      50.922  34.094  51.873  0.00  0.00     0.018 A 
ATOM     18  C   UNL d   1      50.264  34.320  51.431  0.00  0.00     0.002 A 
ATOM     19  C   UNL d   1      49.576  34.562  51.814  0.00  0.00     0.000 A 
ATOM     20  C   UNL d   1      49.538  34.581  52.632  0.00  0.00     0.002 A 
ATOM     21  C   UNL d   1      48.914  34.790  51.369  0.00  0.00     0.000 C 
ATOM     22  C   UNL d   1      50.201  34.353  53.074  0.00  0.00     0.018 A 
ENDBRANCH   2  16
TORSDOF 1
ENDMDL
MODEL 2
REMARK VINA RESULT:      -9.1      0.634      1.454
REMARK  1 active torsions:
REMARK  status: ('A' for Active; 'I' for Inactive)
REMARK    1  A    between atoms: C_10  and  N_2 
ROOT
ATOM      1  C   UNL d   1      52.553  33.304  53.766  0.00  0.00     0.174 A 
ATOM      2  N   UNL d   1      51.600  34.151  53.126  0.00  0.00    -0.224 N 
ATOM      3  C   UNL d   1      51.887  33.398  53.295  0.00  0.00     0.292 A 
ATOM      4  C   UNL d   1      52.936  33.957  54.070  0.00  0.00     0.115 A 
ATOM      5  C   UNL d   1      51.980  34.808  53.428  0.00  0.00     0.356 A 
ATOM      6  N   UNL d   1      52.650  34.709  53.902  0.00  0.00    -0.190 NA
ATOM      7  O   UNL d   1      52.957  32.625  54.021  0.00  0.00    -0.301 OA
ATOM      8  C   UNL d   1      53.582  33.693  54.518  0.00  0.00     0.043 A 
ATOM      9  C   UNL d   1      53.595  32.868  54.488  0.00  0.00     0.102 A 
ATOM     10  O   UNL d   1      51.490  32.728  52.980  0.00  0.00    -0.264 OA
ATOM     11  O   UNL d   1      51.694  35.573  53.261  0.00  0.00    -0.244 OA
ATOM     12  C   UNL d   1      54.149  34.099  54.941  0.00  0.00     0.004 A 
ATOM     13  C   UNL d   1      54.174  32.451  54.881  0.00  0.00     0.025 A 
ATOM     14  C   UNL d   1      54.742  33.680  55.345  0.00  0.00     0.000 A 
ATOM     15  C   UNL d   1      54.755  32.856  55.315  0.00  0.00     0.002 A 
ENDROOT
BRANCH   2  16
ATOM     16  C   UNL d   1      50.927  34.245  52.651  0.00  0.00     0.071 A 
ATOM     17  C   UNL d   1      50.191  34.373  52.995  0.00  0.00     0.018 A 
ATOM     18  C   UNL d   1      49.524  34.466  52.519  0.00  0.00     0.002 A 
ATOM     19  C   UNL d   1      49.597  34.430  51.699  0.00  0.00     0.000 A 
ATOM     20  C   UNL d   1      50.327  34.302  51.350  0.00  0.00     0.002 A 
ATOM     21  C   UNL d   1      48.927  34.523  51.220  0.00  0.00     0.000 C 
ATOM     22  C   UNL d   1      50.996  34.209  51.831  0.00  0.00     0.018 A 
ENDBRANCH   2  16
TORSDOF 1
ENDMDL
MODEL 3
REMARK VINA RESULT:      -8.8      2.321      3.532
REMARK  1 active torsions:
REMARK  status: ('A' for Active; 'I' for Inactive)
REMARK    1  A    between atoms: C_10  and  N_2 
ROOT
ATOM      1  C   UNL d   1      52.869  32.049  53.438  0.00  0.00     0.174 A 
ATOM      2  N   UNL d   1      53.333  33.235  54.081  0.00  0.00    -0.224 N 
ATOM      3  C   UNL d   1      52.821  32.860  53.558  0.00  0.00     0.292 A 
ATOM      4  C   UNL d   1      53.428  31.608  53.839  0.00  0.00     0.115 A 
ATOM      5  C   UNL d   1      53.893  32.798  54.485  0.00  0.00     0.356 A 
ATOM      6  N   UNL d   1      53.940  31.983  54.362  0.00  0.00    -0.190 NA
ATOM      7  O   UNL d   1      52.433  31.535  52.954  0.00  0.00    -0.301 OA
ATOM      8  C   UNL d   1      53.345  30.816  53.608  0.00  0.00     0.043 A 
ATOM      9  C   UNL d   1      52.730  30.771  53.061  0.00  0.00     0.102 A 
ATOM     10  O   UNL d   1      52.247  33.317  53.148  0.00  0.00    -0.264 OA
ATOM     11  O   UNL d   1      54.415  33.173  55.017  0.00  0.00    -0.244 OA
ATOM     12  C   UNL d   1      53.752  30.144  53.830  0.00  0.00     0.004 A 
ATOM     13  C   UNL d   1      52.521  30.053  52.734  0.00  0.00     0.025 A 
ATOM     14  C   UNL d   1      53.545  29.409  53.501  0.00  0.00     0.000 A 
ATOM     15  C   UNL d   1      52.929  29.364  52.954  0.00  0.00     0.002 A 
ENDROOT
BRANCH   2  16
ATOM     16  C   UNL d   1      53.282  34.054  54.201  0.00  0.00     0.071 A 
ATOM     17  C   UNL d   1      53.570  34.575  53.633  0.00  0.00     0.018 A 
ATOM     18  C   UNL d   1      53.518  35.388  53.755  0.00  0.00     0.002 A 
ATOM     19  C   UNL d   1      53.178  35.678  54.447  0.00  0.00     0.000 A 
ATOM     20  C   UNL d   1      52.889  35.165  55.017  0.00  0.00     0.002 A 
ATOM     21  C   UNL d   1      53.125  36.496  54.570  0.00  0.00     0.000 C 
ATOM     22  C   UNL d   1      52.943  34.348  54.892  0.00  0.00     0.018 A 
ENDBRANCH   2  16
TORSDOF 1
ENDMDL
MODEL 4
REMARK VINA RESULT:      -8.6      2.224      4.100
REMARK  1 active torsions:
REMARK  status: ('A' for Active; 'I' for Inactive)
REMARK    1  A    between atoms: C_10  and  N_2 
ROOT
ATOM      1  C   UNL d   1      53.311  32.819  54.170  0.00  0.00     0.174 A 
ATOM      2  N   UNL d   1      53.202  31.458  53.760  0.00  0.00    -0.224 N 
ATOM      3  C   UNL d   1      53.435  32.019  54.313  0.00  0.00     0.292 A 
ATOM      4  C   UNL d   1      52.954  33.061  53.478  0.00  0.00     0.115 A 
ATOM      5  C   UNL d   1      52.843  31.695  53.064  0.00  0.00     0.356 A 
ATOM      6  N   UNL d   1      52.720  32.499  52.924  0.00  0.00    -0.190 NA
ATOM      7  O   UNL d   1      53.486  33.494  54.620  0.00  0.00    -0.301 OA
ATOM      8  C   UNL d   1      52.903  33.889  53.489  0.00  0.00     0.043 A 
ATOM      9  C   UNL d   1      53.233  34.156  54.196  0.00  0.00     0.102 A 
ATOM     10  O   UNL d   1      53.803  31.766  55.025  0.00  0.00    -0.264 OA
ATOM     11  O   UNL d   1      52.604  31.129  52.500  0.00  0.00    -0.244 OA
ATOM     12  C   UNL d   1      52.601  34.419  52.947  0.00  0.00     0.004 A 
ATOM     13  C   UNL d   1      53.260  34.955  54.362  0.00  0.00     0.025 A 
ATOM     14  C   UNL d   1      52.625  35.234  53.109  0.00  0.00     0.000 A 
ATOM     15  C   UNL d   1      52.954  35.501  53.816  0.00  0.00     0.002 A 
ENDROOT
BRANCH   2  16
ATOM     16  C   UNL d   1      53.328  30.651  53.905  0.00  0.00     0.071 A 
ATOM     17  C   UNL d   1      53.970  30.264  53.567  0.00  0.00     0.018 A 
ATOM     18  C   UNL d   1      54.093  29.462  53.713  0.00  0.00     0.002 A 
ATOM     19  C   UNL d   1      53.571  29.049  54.199  0.00  0.00     0.000 A 
ATOM     20  C   UNL d   1      52.929  29.428  54.539  0.00  0.00     0.002 A 
ATOM     21  C   UNL d   1      53.694  28.243  54.346  0.00  0.00     0.000 C 
ATOM     22  C   UNL d   1      52.808  30.235  54.390  0.00  0.00     0.018 A 
ENDBRANCH   2  16
TORSDOF 1
ENDMDL
MODEL 5
REMARK VINA RESULT:      -8.5      2.162      3.447
REMARK  1 active torsions:
REMARK  status: ('A' for Active; 'I' for Inactive)
REMARK    1  A    between atoms: C_10  and  N_2 
ROOT
ATOM      1  C   UNL d   1      53.294  31.763  53.962  0.00  0.00     0.174 A 
ATOM      2  N   UNL d   1      52.981  33.126  53.683  0.00  0.00    -0.224 N 
ATOM      3  C   UNL d   1      53.335  32.559  54.161  0.00  0.00     0.292 A 
ATOM      4  C   UNL d   1      52.901  31.530  53.285  0.00  0.00     0.115 A 
ATOM      5  C   UNL d   1      52.586  32.898  53.005  0.00  0.00     0.356 A 
ATOM      6  N   UNL d   1      52.547  32.097  52.807  0.00  0.00    -0.190 NA
ATOM      7  O   UNL d   1      53.593  31.084  54.333  0.00  0.00    -0.301 OA
ATOM      8  C   UNL d   1      52.951  30.704  53.229  0.00  0.00     0.043 A 
ATOM      9  C   UNL d   1      53.379  30.428  53.878  0.00  0.00     0.102 A 
ATOM     10  O   UNL d   1      53.739  32.802  54.857  0.00  0.00    -0.264 OA
ATOM     11  O   UNL d   1      52.226  33.470  52.516  0.00  0.00    -0.244 OA
ATOM     12  C   UNL d   1      52.661  30.182  52.673  0.00  0.00     0.004 A 
ATOM     13  C   UNL d   1      53.519  29.630  53.970  0.00  0.00     0.025 A 
ATOM     14  C   UNL d   1      52.799  29.367  52.760  0.00  0.00     0.000 A 
ATOM     15  C   UNL d   1      53.228  29.091  53.409  0.00  0.00     0.002 A 
ENDROOT
BRANCH   2  16
ATOM     16  C   UNL d   1      53.024  33.929  53.886  0.00  0.00     0.071 A 
ATOM     17  C   UNL d   1      53.636  34.398  53.599  0.00  0.00     0.018 A 
ATOM     18  C   UNL d   1      53.676  35.195  53.802  0.00  0.00     0.002 A 
ATOM     19  C   UNL d   1      53.100  35.522  54.294  0.00  0.00     0.000 A 
ATOM     20  C   UNL d   1      52.488  35.061  54.583  0.00  0.00     0.002 A 
ATOM     21  C   UNL d   1      53.140  36.324  54.499  0.00  0.00     0.000 C 
ATOM     22  C   UNL d   1      52.451  34.259  54.377  0.00  0.00     0.018 A 
ENDBRANCH   2  16
TORSDOF 1
ENDMDL
MODEL 6
REMARK VINA RESULT:      -7.9      0.811      4.264
REMARK  1 active torsions:
REMARK  status: ('A' for Active; 'I' for Inactive)
REMARK    1  A    between atoms: C_10  and  N_2 
ROOT
ATOM      1  C   UNL d   1      51.128  34.434  53.199  0.00  0.00     0.174 A 
ATOM      2  N   UNL d   1      52.396  33.820  53.417  0.00  0.00    -0.224 N 
ATOM      3  C   UNL d   1      51.801  34.332  53.660  0.00  0.00     0.292 A 
ATOM      4  C   UNL d   1      51.047  34.027  52.496  0.00  0.00     0.115 A 
ATOM      5  C   UNL d   1      52.320  33.409  52.715  0.00  0.00     0.356 A 
ATOM      6  N   UNL d   1      51.643  33.515  52.254  0.00  0.00    -0.190 NA
ATOM      7  O   UNL d   1      50.453  34.905  53.304  0.00  0.00    -0.301 OA
ATOM      8  C   UNL d   1      50.321  34.240  52.156  0.00  0.00     0.043 A 
ATOM      9  C   UNL d   1      49.953  34.783  52.656  0.00  0.00     0.102 A 
ATOM     10  O   UNL d   1      51.887  34.750  54.383  0.00  0.00    -0.264 OA
ATOM     11  O   UNL d   1      52.922  32.888  52.465  0.00  0.00    -0.244 OA
ATOM     12  C   UNL d   1      49.960  34.006  51.463  0.00  0.00     0.004 A 
ATOM     13  C   UNL d   1      49.224  35.093  52.463  0.00  0.00     0.025 A 
ATOM     14  C   UNL d   1      49.217  34.317  51.259  0.00  0.00     0.000 A 
ATOM     15  C   UNL d   1      48.849  34.861  51.759  0.00  0.00     0.002 A 
ENDROOT
BRANCH   2  16
ATOM     16  C   UNL d   1      53.075  33.718  53.884  0.00  0.00     0.071 A 
ATOM     17  C   UNL d   1      53.143  33.064  54.379  0.00  0.00     0.018 A 
ATOM     18  C   UNL d   1      53.818  32.966  54.842  0.00  0.00     0.002 A 
ATOM     19  C   UNL d   1      54.424  33.523  54.806  0.00  0.00     0.000 A 
ATOM     20  C   UNL d   1      54.363  34.176  54.315  0.00  0.00     0.002 A 
ATOM     21  C   UNL d   1      55.104  33.425  55.271  0.00  0.00     0.000 C 
ATOM     22  C   UNL d   1      53.682  34.272  53.851  0.00  0.00     0.018 A 
ENDBRANCH   2  16
TORSDOF 1
ENDMDL
MODEL 7
REMARK VINA RESULT:      -7.9      1.152      1.842
REMARK  1 active torsions:
REMARK  status: ('A' for Active; 'I' for Inactive)
REMARK    1  A    between atoms: C_10  and  N_2 
ROOT
ATOM      1  C   UNL d   1      51.912  32.862  53.247  0.00  0.00     0.174 A 
ATOM      2  N   UNL d   1      51.154  34.048  53.016  0.00  0.00    -0.224 N 
ATOM      3  C   UNL d   1      51.192  33.231  53.105  0.00  0.00     0.292 A 
ATOM      4  C   UNL d   1      52.596  33.305  53.302  0.00  0.00     0.115 A 
ATOM      5  C   UNL d   1      51.836  34.496  53.071  0.00  0.00     0.356 A 
ATOM      6  N   UNL d   1      52.558  34.121  53.214  0.00  0.00    -0.190 NA
ATOM      7  O   UNL d   1      52.112  32.064  53.357  0.00  0.00    -0.301 OA
ATOM      8  C   UNL d   1      53.227  32.787  53.447  0.00  0.00     0.043 A 
ATOM      9  C   UNL d   1      52.928  32.020  53.481  0.00  0.00     0.102 A 
ATOM     10  O   UNL d   1      50.487  32.779  53.047  0.00  0.00    -0.264 OA
ATOM     11  O   UNL d   1      51.802  35.324  52.982  0.00  0.00    -0.244 OA
ATOM     12  C   UNL d   1      54.025  32.924  53.550  0.00  0.00     0.004 A 
ATOM     13  C   UNL d   1      53.426  31.388  53.618  0.00  0.00     0.025 A 
ATOM     14  C   UNL d   1      54.539  32.286  53.690  0.00  0.00     0.000 A 
ATOM     15  C   UNL d   1      54.240  31.518  53.724  0.00  0.00     0.002 A 
ENDROOT
BRANCH   2  16
ATOM     16  C   UNL d   1      50.426  34.419  52.872  0.00  0.00     0.071 A 
ATOM     17  C   UNL d   1      50.080  34.377  52.128  0.00  0.00     0.018 A 
ATOM     18  C   UNL d   1      49.356  34.747  51.988  0.00  0.00     0.002 A 
ATOM     19  C   UNL d   1      48.982  35.158  52.596  0.00  0.00     0.000 A 
ATOM     20  C   UNL d   1      49.322  35.204  53.340  0.00  0.00     0.002 A 
ATOM     21  C   UNL d   1      48.254  35.531  52.456  0.00  0.00     0.000 C 
ATOM     22  C   UNL d   1      50.049  34.831  53.477  0.00  0.00     0.018 A 
ENDBRANCH   2  16
TORSDOF 1
ENDMDL
