MODEL 1
REMARK VINA RESULT:      41.6      0.000      0.000
REMARK  4 active torsions:
REMARK  status: ('A' for Active; 'I' for Inactive)
REMARK    1  A    between atoms: C_8  and  C_1 
REMARK    2  A    between atoms: N_11  and  C_9 
REMARK    3  A    between atoms: C_15  and  N_11 
REMARK    4  A    between atoms: C_16  and  N_11 
ROOT
ATOM      1  C   UNL d   1     -49.965  26.837  33.860  0.00  0.00     0.102 A 
ATOM      2  C   UNL d   1     -50.706  27.226  33.810  0.00  0.00     0.303 A 
ATOM      3  C   UNL d   1     -49.946  26.012  33.839  0.00  0.00     0.011 A 
ATOM      4  O   UNL d   1     -51.392  26.772  33.742  0.00  0.00    -0.273 OA
ATOM      5  C   UNL d   1     -51.368  25.954  33.721  0.00  0.00     0.105 A 
ATOM      6  C   UNL d   1     -50.628  25.565  33.771  0.00  0.00     0.023 A 
ATOM      7  C   UNL d   1     -52.042  25.523  33.655  0.00  0.00     0.042 A 
ATOM      8  C   UNL d   1     -52.020  24.702  33.634  0.00  0.00     0.066 A 
ATOM      9  O   UNL d   1     -50.746  28.057  33.830  0.00  0.00    -0.259 OA
ATOM     10  C   UNL d   1     -50.596  24.763  33.752  0.00  0.00     0.004 A 
ATOM     11  C   UNL d   1     -51.280  24.313  33.684  0.00  0.00     0.018 A 
ENDROOT
BRANCH   8  12
ATOM     12  N   UNL d   1     -52.721  24.264  33.565  0.00  0.00    -0.304 N 
BRANCH  12  13
ATOM     13  C   UNL d   1     -52.715  23.454  33.754  0.00  0.00     0.080 C 
ATOM     14  C   UNL d   1     -52.642  23.219  34.553  0.00  0.00     0.021 C 
ENDBRANCH  12  13
BRANCH  12  15
ATOM     15  C   UNL d   1     -53.407  24.621  33.315  0.00  0.00     0.080 C 
ATOM     16  C   UNL d   1     -54.120  24.246  33.369  0.00  0.00     0.021 C 
ENDBRANCH  12  15
ENDBRANCH   8  12
BRANCH   1  17
ATOM     17  C   UNL d   1     -49.264  27.279  33.929  0.00  0.00     0.201 C 
ATOM     18  O   UNL d   1     -49.283  28.111  33.872  0.00  0.00    -0.286 OA
ATOM     19  C   UNL d   1     -48.548  26.884  34.056  0.00  0.00     0.045 C 
ENDBRANCH   1  17
TORSDOF 4
ENDMDL
