MODEL 1
REMARK VINA RESULT:      -2.9      0.000      0.000
REMARK  4 active torsions:
REMARK  status: ('A' for Active; 'I' for Inactive)
REMARK    1  A    between atoms: C_6  and  N_1 
REMARK    2  A    between atoms: C_3  and  C_4 
REMARK    3  A    between atoms: C_5  and  C_3 
REMARK       I    between atoms: C_4  and  N_10 
REMARK    4  A    between atoms: N_10  and  C_13 
ROOT
ATOM      1  C   UNL d   1      30.467  16.872 -24.631  0.00  0.00     0.281 C 
ATOM      2  N   UNL d   1      30.838  17.596 -24.777  0.00  0.00    -0.208 NA
ATOM      3  O   UNL d   1      30.904  16.245 -24.322  0.00  0.00    -0.265 OA
ENDROOT
BRANCH   1   4
ATOM      4  C   UNL d   1      29.665  16.780 -24.793  0.00  0.00     0.086 C 
BRANCH   4   5
ATOM      5  C   UNL d   1      29.153  16.481 -24.211  0.00  0.00     0.144 A 
ATOM      6  C   UNL d   1      28.498  16.924 -23.975  0.00  0.00     0.297 A 
ATOM      7  N   UNL d   1      27.981  16.636 -23.397  0.00  0.00    -0.204 NA
ATOM      8  O   UNL d   1      28.356  17.666 -24.321  0.00  0.00    -0.264 OA
ATOM      9  C   UNL d   1      28.134  15.901 -23.064  0.00  0.00     0.123 A 
ATOM     10  C   UNL d   1      28.789  15.458 -23.301  0.00  0.00     0.120 A 
ATOM     11  N   UNL d   1      29.290  15.750 -23.869  0.00  0.00    -0.237 NA
ENDBRANCH   4   5
ENDBRANCH   1   4
BRANCH   2  12
ATOM     12  C   UNL d   1      31.640  17.689 -24.615  0.00  0.00     0.086 A 
ATOM     13  C   UNL d   1      31.875  18.142 -23.967  0.00  0.00     0.043 A 
ATOM     14  C   UNL d   1      32.678  18.234 -23.806  0.00  0.00     0.128 A 
ATOM     15  C   UNL d   1      33.241  17.875 -24.290  0.00  0.00     0.024 A 
ATOM     16  C   UNL d   1      33.001  17.423 -24.936  0.00  0.00     0.003 A 
ATOM     17  C   UNL d   1      32.200  17.331 -25.097  0.00  0.00     0.019 A 
BRANCH  14  18
ATOM     18  N   UNL d   1      32.916  18.686 -23.160  0.00  0.00    -0.114 N 
ATOM     19  O   UNL d   1      33.123  18.325 -22.448  0.00  0.00    -0.532 OA
ATOM     20  O   UNL d   1      32.952  19.517 -23.220  0.00  0.00    -0.532 OA
ENDBRANCH  14  18
ENDBRANCH   2  12
TORSDOF 4
ENDMDL
MODEL 2
REMARK VINA RESULT:      -2.8      2.116      4.740
REMARK  4 active torsions:
REMARK  status: ('A' for Active; 'I' for Inactive)
REMARK    1  A    between atoms: C_6  and  N_1 
REMARK    2  A    between atoms: C_3  and  C_4 
REMARK    3  A    between atoms: C_5  and  C_3 
REMARK       I    between atoms: C_4  and  N_10 
REMARK    4  A    between atoms: N_10  and  C_13 
ROOT
ATOM      1  C   UNL d   1      33.085  19.213 -22.811  0.00  0.00     0.281 C 
ATOM      2  N   UNL d   1      32.771  18.449 -22.841  0.00  0.00    -0.208 NA
ATOM      3  O   UNL d   1      33.241  19.617 -23.513  0.00  0.00    -0.265 OA
ENDROOT
BRANCH   1   4
ATOM      4  C   UNL d   1      33.241  19.567 -22.084  0.00  0.00     0.086 C 
BRANCH   4   5
ATOM      5  C   UNL d   1      33.162  20.388 -21.993  0.00  0.00     0.144 A 
ATOM      6  C   UNL d   1      33.004  20.705 -21.248  0.00  0.00     0.297 A 
ATOM      7  N   UNL d   1      32.923  21.522 -21.146  0.00  0.00    -0.204 NA
ATOM      8  O   UNL d   1      32.923  20.199 -20.594  0.00  0.00    -0.264 OA
ATOM      9  C   UNL d   1      33.005  22.009 -21.802  0.00  0.00     0.123 A 
ATOM     10  C   UNL d   1      33.164  21.693 -22.547  0.00  0.00     0.120 A 
ATOM     11  N   UNL d   1      33.241  20.889 -22.637  0.00  0.00    -0.237 NA
ENDBRANCH   4   5
ENDBRANCH   1   4
BRANCH   2  12
ATOM     12  C   UNL d   1      32.616  18.095 -23.568  0.00  0.00     0.086 A 
ATOM     13  C   UNL d   1      31.836  17.938 -23.786  0.00  0.00     0.043 A 
ATOM     14  C   UNL d   1      31.681  17.584 -24.514  0.00  0.00     0.128 A 
ATOM     15  C   UNL d   1      32.303  17.388 -25.019  0.00  0.00     0.024 A 
ATOM     16  C   UNL d   1      33.080  17.547 -24.797  0.00  0.00     0.003 A 
ATOM     17  C   UNL d   1      33.235  17.901 -24.071  0.00  0.00     0.019 A 
BRANCH  14  18
ATOM     18  N   UNL d   1      30.904  17.426 -24.735  0.00  0.00    -0.114 N 
ATOM     19  O   UNL d   1      30.610  16.655 -24.719  0.00  0.00    -0.532 OA
ATOM     20  O   UNL d   1      30.402  18.046 -24.978  0.00  0.00    -0.532 OA
ENDBRANCH  14  18
ENDBRANCH   2  12
TORSDOF 4
ENDMDL
MODEL 3
REMARK VINA RESULT:      -2.6      2.666      4.125
REMARK  4 active torsions:
REMARK  status: ('A' for Active; 'I' for Inactive)
REMARK    1  A    between atoms: C_6  and  N_1 
REMARK    2  A    between atoms: C_3  and  C_4 
REMARK    3  A    between atoms: C_5  and  C_3 
REMARK       I    between atoms: C_4  and  N_10 
REMARK    4  A    between atoms: N_10  and  C_13 
ROOT
ATOM      1  C   UNL d   1      32.747  19.317 -22.977  0.00  0.00     0.281 C 
ATOM      2  N   UNL d   1      33.241  19.943 -22.762  0.00  0.00    -0.208 NA
ATOM      3  O   UNL d   1      32.129  19.094 -22.478  0.00  0.00    -0.265 OA
ENDROOT
BRANCH   1   4
ATOM      4  C   UNL d   1      32.871  18.919 -23.687  0.00  0.00     0.086 C 
BRANCH   4   5
ATOM      5  C   UNL d   1      32.590  18.144 -23.787  0.00  0.00     0.144 A 
ATOM      6  C   UNL d   1      32.205  17.935 -24.486  0.00  0.00     0.297 A 
ATOM      7  N   UNL d   1      31.920  17.166 -24.597  0.00  0.00    -0.204 NA
ATOM      8  O   UNL d   1      32.103  18.501 -25.085  0.00  0.00    -0.264 OA
ATOM      9  C   UNL d   1      32.029  16.617 -23.996  0.00  0.00     0.123 A 
ATOM     10  C   UNL d   1      32.413  16.826 -23.296  0.00  0.00     0.120 A 
ATOM     11  N   UNL d   1      32.689  17.584 -23.198  0.00  0.00    -0.237 NA
ENDBRANCH   4   5
ENDBRANCH   1   4
BRANCH   2  12
ATOM     12  C   UNL d   1      33.116  20.342 -22.052  0.00  0.00     0.086 A 
ATOM     13  C   UNL d   1      32.866  21.128 -22.064  0.00  0.00     0.043 A 
ATOM     14  C   UNL d   1      32.742  21.526 -21.354  0.00  0.00     0.128 A 
ATOM     15  C   UNL d   1      32.867  21.139 -20.636  0.00  0.00     0.024 A 
ATOM     16  C   UNL d   1      33.117  20.355 -20.629  0.00  0.00     0.003 A 
ATOM     17  C   UNL d   1      33.241  19.957 -21.338  0.00  0.00     0.019 A 
BRANCH  14  18
ATOM     18  N   UNL d   1      32.492  22.310 -21.362  0.00  0.00    -0.114 N 
ATOM     19  O   UNL d   1      33.007  22.913 -21.589  0.00  0.00    -0.532 OA
ATOM     20  O   UNL d   1      31.711  22.505 -21.141  0.00  0.00    -0.532 OA
ENDBRANCH  14  18
ENDBRANCH   2  12
TORSDOF 4
ENDMDL
MODEL 4
REMARK VINA RESULT:      -2.5      2.644      5.020
REMARK  4 active torsions:
REMARK  status: ('A' for Active; 'I' for Inactive)
REMARK    1  A    between atoms: C_6  and  N_1 
REMARK    2  A    between atoms: C_3  and  C_4 
REMARK    3  A    between atoms: C_5  and  C_3 
REMARK       I    between atoms: C_4  and  N_10 
REMARK    4  A    between atoms: N_10  and  C_13 
ROOT
ATOM      1  C   UNL d   1      32.850  19.913 -22.370  0.00  0.00     0.281 C 
ATOM      2  N   UNL d   1      33.039  19.109 -22.353  0.00  0.00    -0.208 NA
ATOM      3  O   UNL d   1      32.512  20.238 -23.048  0.00  0.00    -0.265 OA
ENDROOT
BRANCH   1   4
ATOM      4  C   UNL d   1      32.999  20.386 -21.712  0.00  0.00     0.086 C 
BRANCH   4   5
ATOM      5  C   UNL d   1      32.906  21.209 -21.760  0.00  0.00     0.144 A 
ATOM      6  C   UNL d   1      32.473  21.606 -21.180  0.00  0.00     0.297 A 
ATOM      7  N   UNL d   1      32.374  22.427 -21.217  0.00  0.00    -0.204 NA
ATOM      8  O   UNL d   1      32.135  21.179 -20.554  0.00  0.00    -0.264 OA
ATOM      9  C   UNL d   1      32.714  22.836 -21.842  0.00  0.00     0.123 A 
ATOM     10  C   UNL d   1      33.147  22.439 -22.422  0.00  0.00     0.120 A 
ATOM     11  N   UNL d   1      33.239  21.633 -22.376  0.00  0.00    -0.237 NA
ENDBRANCH   4   5
ENDBRANCH   1   4
BRANCH   2  12
ATOM     12  C   UNL d   1      32.890  18.636 -23.011  0.00  0.00     0.086 A 
ATOM     13  C   UNL d   1      32.391  17.983 -22.939  0.00  0.00     0.043 A 
ATOM     14  C   UNL d   1      32.242  17.511 -23.597  0.00  0.00     0.128 A 
ATOM     15  C   UNL d   1      32.591  17.691 -24.323  0.00  0.00     0.024 A 
ATOM     16  C   UNL d   1      33.089  18.344 -24.390  0.00  0.00     0.003 A 
ATOM     17  C   UNL d   1      33.237  18.816 -23.733  0.00  0.00     0.019 A 
BRANCH  14  18
ATOM     18  N   UNL d   1      31.744  16.859 -23.529  0.00  0.00    -0.114 N 
ATOM     19  O   UNL d   1      30.933  16.933 -23.661  0.00  0.00    -0.532 OA
ATOM     20  O   UNL d   1      32.056  16.112 -23.325  0.00  0.00    -0.532 OA
ENDBRANCH  14  18
ENDBRANCH   2  12
TORSDOF 4
ENDMDL
MODEL 5
REMARK VINA RESULT:      -1.1      3.935      5.748
REMARK  4 active torsions:
REMARK  status: ('A' for Active; 'I' for Inactive)
REMARK    1  A    between atoms: C_6  and  N_1 
REMARK    2  A    between atoms: C_3  and  C_4 
REMARK    3  A    between atoms: C_5  and  C_3 
REMARK       I    between atoms: C_4  and  N_10 
REMARK    4  A    between atoms: N_10  and  C_13 
ROOT
ATOM      1  C   UNL d   1      32.926  20.720 -21.946  0.00  0.00     0.281 C 
ATOM      2  N   UNL d   1      32.717  20.979 -21.189  0.00  0.00    -0.208 NA
ATOM      3  O   UNL d   1      33.046  21.273 -22.547  0.00  0.00    -0.265 OA
ENDROOT
BRANCH   1   4
ATOM      4  C   UNL d   1      33.015  19.916 -22.097  0.00  0.00     0.086 C 
BRANCH   4   5
ATOM      5  C   UNL d   1      33.064  19.640 -22.879  0.00  0.00     0.144 A 
ATOM      6  C   UNL d   1      33.010  18.832 -23.032  0.00  0.00     0.297 A 
ATOM      7  N   UNL d   1      33.057  18.546 -23.807  0.00  0.00    -0.204 NA
ATOM      8  O   UNL d   1      32.906  18.299 -22.403  0.00  0.00    -0.264 OA
ATOM      9  C   UNL d   1      33.159  19.084 -24.418  0.00  0.00     0.123 A 
ATOM     10  C   UNL d   1      33.214  19.893 -24.265  0.00  0.00     0.120 A 
ATOM     11  N   UNL d   1      33.166  20.163 -23.500  0.00  0.00    -0.237 NA
ENDBRANCH   4   5
ENDBRANCH   1   4
BRANCH   2  12
ATOM     12  C   UNL d   1      32.629  21.783 -21.038  0.00  0.00     0.086 A 
ATOM     13  C   UNL d   1      32.625  22.053 -20.258  0.00  0.00     0.043 A 
ATOM     14  C   UNL d   1      32.537  22.859 -20.108  0.00  0.00     0.128 A 
ATOM     15  C   UNL d   1      32.452  23.390 -20.733  0.00  0.00     0.024 A 
ATOM     16  C   UNL d   1      32.456  23.115 -21.510  0.00  0.00     0.003 A 
ATOM     17  C   UNL d   1      32.545  22.312 -21.661  0.00  0.00     0.019 A 
BRANCH  14  18
ATOM     18  N   UNL d   1      32.533  23.132 -19.331  0.00  0.00    -0.114 N 
ATOM     19  O   UNL d   1      33.241  23.263 -18.928  0.00  0.00    -0.532 OA
ATOM     20  O   UNL d   1      31.810  23.279 -18.941  0.00  0.00    -0.532 OA
ENDBRANCH  14  18
ENDBRANCH   2  12
TORSDOF 4
ENDMDL
MODEL 6
REMARK VINA RESULT:      -0.9      1.207      4.364
REMARK  4 active torsions:
REMARK  status: ('A' for Active; 'I' for Inactive)
REMARK    1  A    between atoms: C_6  and  N_1 
REMARK    2  A    between atoms: C_3  and  C_4 
REMARK    3  A    between atoms: C_5  and  C_3 
REMARK       I    between atoms: C_4  and  N_10 
REMARK    4  A    between atoms: N_10  and  C_13 
ROOT
ATOM      1  C   UNL d   1      31.340  16.410 -23.564  0.00  0.00     0.281 C 
ATOM      2  N   UNL d   1      30.695  15.986 -23.860  0.00  0.00    -0.208 NA
ATOM      3  O   UNL d   1      31.302  16.732 -22.806  0.00  0.00    -0.265 OA
ENDROOT
BRANCH   1   4
ATOM      4  C   UNL d   1      32.015  16.509 -24.025  0.00  0.00     0.086 C 
BRANCH   4   5
ATOM      5  C   UNL d   1      32.261  17.270 -24.248  0.00  0.00     0.144 A 
ATOM      6  C   UNL d   1      32.870  17.641 -23.833  0.00  0.00     0.297 A 
ATOM      7  N   UNL d   1      33.124  18.399 -24.046  0.00  0.00    -0.204 NA
ATOM      8  O   UNL d   1      33.231  17.251 -23.195  0.00  0.00    -0.264 OA
ATOM      9  C   UNL d   1      32.757  18.773 -24.678  0.00  0.00     0.123 A 
ATOM     10  C   UNL d   1      32.148  18.401 -25.093  0.00  0.00     0.120 A 
ATOM     11  N   UNL d   1      31.906  17.657 -24.876  0.00  0.00    -0.237 NA
ENDBRANCH   4   5
ENDBRANCH   1   4
BRANCH   2  12
ATOM     12  C   UNL d   1      30.020  15.887 -23.399  0.00  0.00     0.086 A 
ATOM     13  C   UNL d   1      29.287  16.127 -23.693  0.00  0.00     0.043 A 
ATOM     14  C   UNL d   1      28.612  16.028 -23.231  0.00  0.00     0.128 A 
ATOM     15  C   UNL d   1      28.670  15.690 -22.481  0.00  0.00     0.024 A 
ATOM     16  C   UNL d   1      29.404  15.453 -22.192  0.00  0.00     0.003 A 
ATOM     17  C   UNL d   1      30.078  15.552 -22.652  0.00  0.00     0.019 A 
BRANCH  14  18
ATOM     18  N   UNL d   1      27.879  16.266 -23.521  0.00  0.00    -0.114 N 
ATOM     19  O   UNL d   1      27.392  15.734 -23.922  0.00  0.00    -0.532 OA
ATOM     20  O   UNL d   1      27.620  17.051 -23.413  0.00  0.00    -0.532 OA
ENDBRANCH  14  18
ENDBRANCH   2  12
TORSDOF 4
ENDMDL
MODEL 7
REMARK VINA RESULT:      -0.2      4.451      6.366
REMARK  4 active torsions:
REMARK  status: ('A' for Active; 'I' for Inactive)
REMARK    1  A    between atoms: C_6  and  N_1 
REMARK    2  A    between atoms: C_3  and  C_4 
REMARK    3  A    between atoms: C_5  and  C_3 
REMARK       I    between atoms: C_4  and  N_10 
REMARK    4  A    between atoms: N_10  and  C_13 
ROOT
ATOM      1  C   UNL d   1      32.676  21.788 -20.970  0.00  0.00     0.281 C 
ATOM      2  N   UNL d   1      32.645  21.460 -21.727  0.00  0.00    -0.208 NA
ATOM      3  O   UNL d   1      32.907  21.319 -20.331  0.00  0.00    -0.265 OA
ENDROOT
BRANCH   1   4
ATOM      4  C   UNL d   1      32.477  22.579 -20.854  0.00  0.00     0.086 C 
BRANCH   4   5
ATOM      5  C   UNL d   1      32.493  22.907 -20.092  0.00  0.00     0.144 A 
ATOM      6  C   UNL d   1      31.861  23.369 -19.832  0.00  0.00     0.297 A 
ATOM      7  N   UNL d   1      31.866  23.701 -19.074  0.00  0.00    -0.204 NA
ATOM      8  O   UNL d   1      31.214  23.503 -20.335  0.00  0.00    -0.264 OA
ATOM      9  C   UNL d   1      32.513  23.560 -18.588  0.00  0.00     0.123 A 
ATOM     10  C   UNL d   1      33.144  23.097 -18.848  0.00  0.00     0.120 A 
ATOM     11  N   UNL d   1      33.130  22.776 -19.594  0.00  0.00    -0.237 NA
ENDBRANCH   4   5
ENDBRANCH   1   4
BRANCH   2  12
ATOM     12  C   UNL d   1      32.843  20.669 -21.843  0.00  0.00     0.086 A 
ATOM     13  C   UNL d   1      32.878  20.365 -22.609  0.00  0.00     0.043 A 
ATOM     14  C   UNL d   1      33.077  19.574 -22.724  0.00  0.00     0.128 A 
ATOM     15  C   UNL d   1      33.240  19.090 -22.076  0.00  0.00     0.024 A 
ATOM     16  C   UNL d   1      33.205  19.398 -21.313  0.00  0.00     0.003 A 
ATOM     17  C   UNL d   1      33.006  20.188 -21.198  0.00  0.00     0.019 A 
BRANCH  14  18
ATOM     18  N   UNL d   1      33.112  19.267 -23.487  0.00  0.00    -0.114 N 
ATOM     19  O   UNL d   1      33.038  18.456 -23.619  0.00  0.00    -0.532 OA
ATOM     20  O   UNL d   1      33.224  19.776 -24.139  0.00  0.00    -0.532 OA
ENDBRANCH  14  18
ENDBRANCH   2  12
TORSDOF 4
ENDMDL
