MODEL 1
REMARK VINA RESULT:      54.6      0.000      0.000
REMARK  6 active torsions:
REMARK  status: ('A' for Active; 'I' for Inactive)
REMARK    1  A    between atoms: C_5  and  N_1 
REMARK    2  A    between atoms: C_2  and  C_4 
REMARK       I    between atoms: N_3  and  C_2 
REMARK    3  A    between atoms: C_7  and  N_3 
REMARK       I    between atoms: C_4  and  N_8 
REMARK    4  A    between atoms: C_10  and  C_5 
REMARK    5  A    between atoms: C_14  and  C_5 
REMARK    6  A    between atoms: N_8  and  C_10 
ROOT
ATOM      1  C   UNL d   1      45.144 -16.113  37.457  0.00  0.00     0.085 C 
ENDROOT
BRANCH   1   2
ATOM      2  N   UNL d   1      44.351 -16.058  37.184  0.00  0.00    -0.302 N 
ATOM      3  C   UNL d   1      43.840 -15.491  37.497  0.00  0.00     0.080 A 
ATOM      4  C   UNL d   1      43.064 -15.441  37.227  0.00  0.00     0.018 A 
ATOM      5  C   UNL d   1      42.550 -14.870  37.542  0.00  0.00     0.002 A 
ATOM      6  C   UNL d   1      42.799 -15.957  36.644  0.00  0.00     0.003 A 
ATOM      7  C   UNL d   1      41.770 -14.814  37.275  0.00  0.00     0.000 A 
ATOM      8  C   UNL d   1      41.506 -15.337  36.686  0.00  0.00     0.000 A 
ATOM      9  C   UNL d   1      42.020 -15.908  36.371  0.00  0.00     0.000 A 
ATOM     10  C   UNL d   1      43.309 -16.524  36.330  0.00  0.00     0.019 A 
ATOM     11  C   UNL d   1      44.085 -16.575  36.600  0.00  0.00     0.080 A 
ENDBRANCH   1   2
BRANCH   1  12
ATOM     12  C   UNL d   1      45.417 -16.814  37.795  0.00  0.00     0.120 C 
BRANCH  12  13
ATOM     13  N   UNL d   1      45.414 -16.911  38.613  0.00  0.00    -0.201 NA
ATOM     14  C   UNL d   1      45.630 -17.642  38.948  0.00  0.00     0.337 C 
ATOM     15  O   UNL d   1      45.849 -18.271  38.458  0.00  0.00    -0.260 OA
BRANCH  14  16
ATOM     16  C   UNL d   1      45.627 -17.738  39.765  0.00  0.00     0.337 C 
ATOM     17  N   UNL d   1      46.280 -18.081  40.146  0.00  0.00    -0.202 NA
ATOM     18  O   UNL d   1      44.971 -17.494  40.212  0.00  0.00    -0.260 OA
BRANCH  17  19
ATOM     19  C   UNL d   1      46.272 -18.177  40.971  0.00  0.00     0.112 A 
ATOM     20  C   UNL d   1      46.323 -18.933  41.296  0.00  0.00     0.160 A 
ATOM     21  C   UNL d   1      46.316 -19.036  42.106  0.00  0.00     0.061 A 
ATOM     22  F   UNL d   1      46.383 -19.607  40.797  0.00  0.00    -0.203 F 
ATOM     23  C   UNL d   1      46.257 -18.375  42.606  0.00  0.00     0.142 A 
ATOM     24  C   UNL d   1      46.206 -17.618  42.280  0.00  0.00     0.031 A 
ATOM     25  F   UNL d   1      46.250 -18.484  43.432  0.00  0.00    -0.204 F 
ATOM     26  C   UNL d   1      46.214 -17.523  41.456  0.00  0.00     0.024 A 
ENDBRANCH  17  19
ENDBRANCH  14  16
ENDBRANCH  12  13
ENDBRANCH   1  12
BRANCH   1  27
ATOM     27  C   UNL d   1      45.644 -15.464  37.384  0.00  0.00     0.037 A 
ATOM     28  C   UNL d   1      45.978 -15.126  38.057  0.00  0.00     0.100 A 
ATOM     29  N   UNL d   1      46.478 -14.477  37.984  0.00  0.00    -0.242 NA
ATOM     30  C   UNL d   1      46.646 -14.163  37.236  0.00  0.00     0.099 A 
ATOM     31  C   UNL d   1      46.312 -14.500  36.563  0.00  0.00     0.021 A 
ATOM     32  C   UNL d   1      45.812 -15.150  36.636  0.00  0.00     0.005 A 
ENDBRANCH   1  27
TORSDOF 6
ENDMDL
