MODEL 1
REMARK VINA RESULT:      -6.8      0.000      0.000
REMARK  6 active torsions:
REMARK  status: ('A' for Active; 'I' for Inactive)
REMARK       I    between atoms: N_2  and  C_4 
REMARK    1  A    between atoms: C_6  and  N_2 
REMARK    2  A    between atoms: C_12  and  C_3 
REMARK    3  A    between atoms: C_4  and  C_11 
REMARK    4  A    between atoms: O_13  and  C_9 
REMARK    5  A    between atoms: C_11  and  C_12 
REMARK    6  A    between atoms: C_17  and  O_13 
ROOT
ATOM      1  N   UNL d   1     -48.646  14.729  22.159  0.00  0.00    -0.206 NA
ATOM      2  C   UNL d   1     -47.900  14.585  22.477  0.00  0.00     0.279 C 
ATOM      3  O   UNL d   1     -47.372  15.204  22.587  0.00  0.00    -0.265 OA
ENDROOT
BRANCH   1   4
ATOM      4  C   UNL d   1     -49.177  14.098  22.050  0.00  0.00     0.107 A 
ATOM      5  C   UNL d   1     -49.891  14.089  22.460  0.00  0.00     0.118 A 
ATOM      6  C   UNL d   1     -50.414  13.469  22.354  0.00  0.00     0.026 A 
ATOM      7  C   UNL d   1     -50.230  12.848  21.835  0.00  0.00     0.002 A 
ATOM      8  C   UNL d   1     -49.511  12.857  21.422  0.00  0.00     0.002 A 
ATOM      9  C   UNL d   1     -48.981  13.488  21.532  0.00  0.00     0.021 A 
BRANCH   5  10
ATOM     10  O   UNL d   1     -50.070  14.706  22.974  0.00  0.00    -0.304 OA
BRANCH  10  11
ATOM     11  C   UNL d   1     -50.833  14.798  23.266  0.00  0.00     0.123 C 
ATOM     12  C   UNL d   1     -51.061  15.502  23.626  0.00  0.00     0.029 C 
ENDBRANCH  10  11
ENDBRANCH   5  10
ENDBRANCH   1   4
BRANCH   2  13
ATOM     13  C   UNL d   1     -47.676  13.819  22.688  0.00  0.00     0.065 C 
BRANCH  13  14
ATOM     14  C   UNL d   1     -47.002  13.696  23.138  0.00  0.00     0.030 C 
BRANCH  14  15
ATOM     15  C   UNL d   1     -46.664  12.942  23.185  0.00  0.00     0.100 A 
ATOM     16  O   UNL d   1     -47.003  12.264  23.516  0.00  0.00    -0.307 OA
ATOM     17  C   UNL d   1     -46.476  11.644  23.443  0.00  0.00     0.100 A 
ATOM     18  C   UNL d   1     -45.798  11.933  23.063  0.00  0.00     0.027 A 
ATOM     19  C   UNL d   1     -46.593  10.874  23.698  0.00  0.00     0.027 C 
ATOM     20  C   UNL d   1     -45.914  12.734  22.904  0.00  0.00     0.027 A 
ENDBRANCH  14  15
ENDBRANCH  13  14
ENDBRANCH   2  13
TORSDOF 6
ENDMDL
MODEL 2
REMARK VINA RESULT:      -6.7      1.181      4.021
REMARK  6 active torsions:
REMARK  status: ('A' for Active; 'I' for Inactive)
REMARK       I    between atoms: N_2  and  C_4 
REMARK    1  A    between atoms: C_6  and  N_2 
REMARK    2  A    between atoms: C_12  and  C_3 
REMARK    3  A    between atoms: C_4  and  C_11 
REMARK    4  A    between atoms: O_13  and  C_9 
REMARK    5  A    between atoms: C_11  and  C_12 
REMARK    6  A    between atoms: C_17  and  O_13 
ROOT
ATOM      1  N   UNL d   1     -46.558  14.157  22.962  0.00  0.00    -0.206 NA
ATOM      2  C   UNL d   1     -47.267  14.482  22.697  0.00  0.00     0.279 C 
ATOM      3  O   UNL d   1     -47.330  15.292  22.576  0.00  0.00    -0.265 OA
ENDROOT
BRANCH   1   4
ATOM      4  C   UNL d   1     -46.499  13.337  23.084  0.00  0.00     0.107 A 
ATOM      5  C   UNL d   1     -45.902  12.910  22.712  0.00  0.00     0.118 A 
ATOM      6  C   UNL d   1     -45.843  12.102  22.830  0.00  0.00     0.026 A 
ATOM      7  C   UNL d   1     -46.383  11.710  23.324  0.00  0.00     0.002 A 
ATOM      8  C   UNL d   1     -46.984  12.140  23.698  0.00  0.00     0.002 A 
ATOM      9  C   UNL d   1     -47.043  12.961  23.576  0.00  0.00     0.021 A 
BRANCH   5  10
ATOM     10  O   UNL d   1     -45.369  13.302  22.223  0.00  0.00    -0.304 OA
BRANCH  10  11
ATOM     11  C   UNL d   1     -44.782  12.886  21.825  0.00  0.00     0.123 C 
ATOM     12  C   UNL d   1     -44.122  13.275  21.526  0.00  0.00     0.029 C 
ENDBRANCH  10  11
ENDBRANCH   5  10
ENDBRANCH   1   4
BRANCH   2  13
ATOM     13  C   UNL d   1     -47.920  13.999  22.552  0.00  0.00     0.065 C 
BRANCH  13  14
ATOM     14  C   UNL d   1     -48.598  14.312  22.214  0.00  0.00     0.030 C 
BRANCH  14  15
ATOM     15  C   UNL d   1     -49.253  13.828  22.068  0.00  0.00     0.100 A 
ATOM     16  O   UNL d   1     -49.854  13.628  22.600  0.00  0.00    -0.307 OA
ATOM     17  C   UNL d   1     -50.387  13.138  22.222  0.00  0.00     0.100 A 
ATOM     18  C   UNL d   1     -50.122  13.028  21.444  0.00  0.00     0.027 A 
ATOM     19  C   UNL d   1     -51.064  12.813  22.549  0.00  0.00     0.027 C 
ATOM     20  C   UNL d   1     -49.422  13.453  21.349  0.00  0.00     0.027 A 
ENDBRANCH  14  15
ENDBRANCH  13  14
ENDBRANCH   2  13
TORSDOF 6
ENDMDL
MODEL 3
REMARK VINA RESULT:      -6.2      1.212      1.918
REMARK  6 active torsions:
REMARK  status: ('A' for Active; 'I' for Inactive)
REMARK       I    between atoms: N_2  and  C_4 
REMARK    1  A    between atoms: C_6  and  N_2 
REMARK    2  A    between atoms: C_12  and  C_3 
REMARK    3  A    between atoms: C_4  and  C_11 
REMARK    4  A    between atoms: O_13  and  C_9 
REMARK    5  A    between atoms: C_11  and  C_12 
REMARK    6  A    between atoms: C_17  and  O_13 
ROOT
ATOM      1  N   UNL d   1     -49.883  13.723  21.648  0.00  0.00    -0.206 NA
ATOM      2  C   UNL d   1     -49.124  13.489  21.432  0.00  0.00     0.279 C 
ATOM      3  O   UNL d   1     -49.011  13.020  20.767  0.00  0.00    -0.265 OA
ENDROOT
BRANCH   1   4
ATOM      4  C   UNL d   1     -49.992  14.198  22.322  0.00  0.00     0.107 A 
ATOM      5  C   UNL d   1     -50.385  13.894  22.978  0.00  0.00     0.118 A 
ATOM      6  C   UNL d   1     -50.494  14.360  23.641  0.00  0.00     0.026 A 
ATOM      7  C   UNL d   1     -50.209  15.140  23.658  0.00  0.00     0.002 A 
ATOM      8  C   UNL d   1     -49.813  15.446  22.997  0.00  0.00     0.002 A 
ATOM      9  C   UNL d   1     -49.704  14.970  22.324  0.00  0.00     0.021 A 
BRANCH   5  10
ATOM     10  O   UNL d   1     -50.667  13.121  22.958  0.00  0.00    -0.304 OA
BRANCH  10  11
ATOM     11  C   UNL d   1     -50.901  12.744  23.650  0.00  0.00     0.123 C 
ATOM     12  C   UNL d   1     -51.064  11.937  23.652  0.00  0.00     0.029 C 
ENDBRANCH  10  11
ENDBRANCH   5  10
ENDBRANCH   1   4
BRANCH   2  13
ATOM     13  C   UNL d   1     -48.470  13.724  21.878  0.00  0.00     0.065 C 
BRANCH  13  14
ATOM     14  C   UNL d   1     -47.727  13.417  21.715  0.00  0.00     0.030 C 
BRANCH  14  15
ATOM     15  C   UNL d   1     -47.225  13.194  22.332  0.00  0.00     0.100 A 
ATOM     16  O   UNL d   1     -47.122  12.433  22.641  0.00  0.00    -0.307 OA
ATOM     17  C   UNL d   1     -46.572  12.466  23.244  0.00  0.00     0.100 A 
ATOM     18  C   UNL d   1     -46.325  13.254  23.318  0.00  0.00     0.027 A 
ATOM     19  C   UNL d   1     -46.310  11.836  23.697  0.00  0.00     0.027 C 
ATOM     20  C   UNL d   1     -46.728  13.703  22.755  0.00  0.00     0.027 A 
ENDBRANCH  14  15
ENDBRANCH  13  14
ENDBRANCH   2  13
TORSDOF 6
ENDMDL
MODEL 4
REMARK VINA RESULT:      -6.1      1.374      1.635
REMARK  6 active torsions:
REMARK  status: ('A' for Active; 'I' for Inactive)
REMARK       I    between atoms: N_2  and  C_4 
REMARK    1  A    between atoms: C_6  and  N_2 
REMARK    2  A    between atoms: C_12  and  C_3 
REMARK    3  A    between atoms: C_4  and  C_11 
REMARK    4  A    between atoms: O_13  and  C_9 
REMARK    5  A    between atoms: C_11  and  C_12 
REMARK    6  A    between atoms: C_17  and  O_13 
ROOT
ATOM      1  N   UNL d   1     -48.908  14.068  23.059  0.00  0.00    -0.206 NA
ATOM      2  C   UNL d   1     -48.119  14.295  22.999  0.00  0.00     0.279 C 
ATOM      3  O   UNL d   1     -47.919  15.091  22.969  0.00  0.00    -0.265 OA
ENDROOT
BRANCH   1   4
ATOM      4  C   UNL d   1     -49.105  13.261  23.090  0.00  0.00     0.107 A 
ATOM      5  C   UNL d   1     -49.640  12.949  22.548  0.00  0.00     0.118 A 
ATOM      6  C   UNL d   1     -49.835  12.155  22.577  0.00  0.00     0.026 A 
ATOM      7  C   UNL d   1     -49.495  11.660  23.150  0.00  0.00     0.002 A 
ATOM      8  C   UNL d   1     -48.955  11.974  23.695  0.00  0.00     0.002 A 
ATOM      9  C   UNL d   1     -48.759  12.781  23.664  0.00  0.00     0.021 A 
BRANCH   5  10
ATOM     10  O   UNL d   1     -49.976  13.443  21.982  0.00  0.00    -0.304 OA
BRANCH  10  11
ATOM     11  C   UNL d   1     -50.656  13.217  21.580  0.00  0.00     0.123 C 
ATOM     12  C   UNL d   1     -51.064  13.756  21.111  0.00  0.00     0.029 C 
ENDBRANCH  10  11
ENDBRANCH   5  10
ENDBRANCH   1   4
BRANCH   2  13
ATOM     13  C   UNL d   1     -47.521  13.726  22.970  0.00  0.00     0.065 C 
BRANCH  13  14
ATOM     14  C   UNL d   1     -46.734  13.953  23.001  0.00  0.00     0.030 C 
BRANCH  14  15
ATOM     15  C   UNL d   1     -46.141  13.435  22.748  0.00  0.00     0.100 A 
ATOM     16  O   UNL d   1     -45.838  12.784  23.160  0.00  0.00    -0.307 OA
ATOM     17  C   UNL d   1     -45.260  12.430  22.703  0.00  0.00     0.100 A 
ATOM     18  C   UNL d   1     -45.198  12.860  21.996  0.00  0.00     0.027 A 
ATOM     19  C   UNL d   1     -44.820  11.769  22.904  0.00  0.00     0.027 C 
ATOM     20  C   UNL d   1     -45.741  13.480  22.024  0.00  0.00     0.027 A 
ENDBRANCH  14  15
ENDBRANCH  13  14
ENDBRANCH   2  13
TORSDOF 6
ENDMDL
MODEL 5
REMARK VINA RESULT:      -5.9      8.345      9.502
REMARK  6 active torsions:
REMARK  status: ('A' for Active; 'I' for Inactive)
REMARK       I    between atoms: N_2  and  C_4 
REMARK    1  A    between atoms: C_6  and  N_2 
REMARK    2  A    between atoms: C_12  and  C_3 
REMARK    3  A    between atoms: C_4  and  C_11 
REMARK    4  A    between atoms: O_13  and  C_9 
REMARK    5  A    between atoms: C_11  and  C_12 
REMARK    6  A    between atoms: C_17  and  O_13 
ROOT
ATOM      1  N   UNL d   1     -40.860  13.989  18.097  0.00  0.00    -0.206 NA
ATOM      2  C   UNL d   1     -41.011  13.987  18.907  0.00  0.00     0.279 C 
ATOM      3  O   UNL d   1     -41.636  13.548  19.209  0.00  0.00    -0.265 OA
ENDROOT
BRANCH   1   4
ATOM      4  C   UNL d   1     -40.226  14.435  17.797  0.00  0.00     0.107 A 
ATOM      5  C   UNL d   1     -40.373  15.056  17.278  0.00  0.00     0.118 A 
ATOM      6  C   UNL d   1     -39.751  15.497  16.981  0.00  0.00     0.026 A 
ATOM      7  C   UNL d   1     -38.970  15.321  17.201  0.00  0.00     0.002 A 
ATOM      8  C   UNL d   1     -38.822  14.696  17.724  0.00  0.00     0.002 A 
ATOM      9  C   UNL d   1     -39.456  14.249  18.024  0.00  0.00     0.021 A 
BRANCH   5  10
ATOM     10  O   UNL d   1     -41.149  15.228  17.062  0.00  0.00    -0.304 OA
BRANCH  10  11
ATOM     11  C   UNL d   1     -41.307  15.790  16.484  0.00  0.00     0.123 C 
ATOM     12  C   UNL d   1     -42.078  15.918  16.225  0.00  0.00     0.029 C 
ENDBRANCH  10  11
ENDBRANCH   5  10
ENDBRANCH   1   4
BRANCH   2  13
ATOM     13  C   UNL d   1     -40.538  14.425  19.422  0.00  0.00     0.065 C 
BRANCH  13  14
ATOM     14  C   UNL d   1     -40.744  14.497  20.213  0.00  0.00     0.030 C 
BRANCH  14  15
ATOM     15  C   UNL d   1     -40.262  14.923  20.732  0.00  0.00     0.100 A 
ATOM     16  O   UNL d   1     -39.574  14.657  21.107  0.00  0.00    -0.307 OA
ATOM     17  C   UNL d   1     -39.277  15.261  21.570  0.00  0.00     0.100 A 
ATOM     18  C   UNL d   1     -39.781  15.914  21.488  0.00  0.00     0.027 A 
ATOM     19  C   UNL d   1     -38.602  15.229  22.034  0.00  0.00     0.027 C 
ATOM     20  C   UNL d   1     -40.389  15.706  20.971  0.00  0.00     0.027 A 
ENDBRANCH  14  15
ENDBRANCH  13  14
ENDBRANCH   2  13
TORSDOF 6
ENDMDL
MODEL 6
REMARK VINA RESULT:      -5.8      1.048      4.155
REMARK  6 active torsions:
REMARK  status: ('A' for Active; 'I' for Inactive)
REMARK       I    between atoms: N_2  and  C_4 
REMARK    1  A    between atoms: C_6  and  N_2 
REMARK    2  A    between atoms: C_12  and  C_3 
REMARK    3  A    between atoms: C_4  and  C_11 
REMARK    4  A    between atoms: O_13  and  C_9 
REMARK    5  A    between atoms: C_11  and  C_12 
REMARK    6  A    between atoms: C_17  and  O_13 
ROOT
ATOM      1  N   UNL d   1     -47.708  12.686  21.783  0.00  0.00    -0.206 NA
ATOM      2  C   UNL d   1     -48.478  12.923  21.615  0.00  0.00     0.279 C 
ATOM      3  O   UNL d   1     -48.940  12.488  21.094  0.00  0.00    -0.265 OA
ENDROOT
BRANCH   1   4
ATOM      4  C   UNL d   1     -47.245  13.131  22.312  0.00  0.00     0.107 A 
ATOM      5  C   UNL d   1     -46.929  12.771  22.981  0.00  0.00     0.118 A 
ATOM      6  C   UNL d   1     -46.474  13.207  23.502  0.00  0.00     0.026 A 
ATOM      7  C   UNL d   1     -46.327  14.012  23.361  0.00  0.00     0.002 A 
ATOM      8  C   UNL d   1     -46.645  14.374  22.687  0.00  0.00     0.002 A 
ATOM      9  C   UNL d   1     -47.108  13.929  22.158  0.00  0.00     0.021 A 
BRANCH   5  10
ATOM     10  O   UNL d   1     -47.076  11.973  23.118  0.00  0.00    -0.304 OA
BRANCH  10  11
ATOM     11  C   UNL d   1     -46.660  11.565  23.698  0.00  0.00     0.123 C 
ATOM     12  C   UNL d   1     -46.198  10.913  23.501  0.00  0.00     0.029 C 
ENDBRANCH  10  11
ENDBRANCH   5  10
ENDBRANCH   1   4
BRANCH   2  13
ATOM     13  C   UNL d   1     -48.795  13.599  21.969  0.00  0.00     0.065 C 
BRANCH  13  14
ATOM     14  C   UNL d   1     -49.550  13.852  21.773  0.00  0.00     0.030 C 
BRANCH  14  15
ATOM     15  C   UNL d   1     -49.984  14.315  22.302  0.00  0.00     0.100 A 
ATOM     16  O   UNL d   1     -49.719  14.981  22.717  0.00  0.00    -0.307 OA
ATOM     17  C   UNL d   1     -50.331  15.265  23.177  0.00  0.00     0.100 A 
ATOM     18  C   UNL d   1     -50.989  14.776  23.052  0.00  0.00     0.027 A 
ATOM     19  C   UNL d   1     -50.304  15.917  23.673  0.00  0.00     0.027 C 
ATOM     20  C   UNL d   1     -50.775  14.190  22.513  0.00  0.00     0.027 A 
ENDBRANCH  14  15
ENDBRANCH  13  14
ENDBRANCH   2  13
TORSDOF 6
ENDMDL
MODEL 7
REMARK VINA RESULT:      -5.5      8.546     10.325
REMARK  6 active torsions:
REMARK  status: ('A' for Active; 'I' for Inactive)
REMARK       I    between atoms: N_2  and  C_4 
REMARK    1  A    between atoms: C_6  and  N_2 
REMARK    2  A    between atoms: C_12  and  C_3 
REMARK    3  A    between atoms: C_4  and  C_11 
REMARK    4  A    between atoms: O_13  and  C_9 
REMARK    5  A    between atoms: C_11  and  C_12 
REMARK    6  A    between atoms: C_17  and  O_13 
ROOT
ATOM      1  N   UNL d   1     -40.146  14.088  17.727  0.00  0.00    -0.206 NA
ATOM      2  C   UNL d   1     -40.592  14.144  18.417  0.00  0.00     0.279 C 
ATOM      3  O   UNL d   1     -41.304  13.740  18.482  0.00  0.00    -0.265 OA
ENDROOT
BRANCH   1   4
ATOM      4  C   UNL d   1     -39.426  14.499  17.666  0.00  0.00     0.107 A 
ATOM      5  C   UNL d   1     -38.721  14.081  17.594  0.00  0.00     0.118 A 
ATOM      6  C   UNL d   1     -38.012  14.484  17.534  0.00  0.00     0.026 A 
ATOM      7  C   UNL d   1     -37.998  15.314  17.546  0.00  0.00     0.002 A 
ATOM      8  C   UNL d   1     -38.707  15.735  17.619  0.00  0.00     0.002 A 
ATOM      9  C   UNL d   1     -39.428  15.323  17.680  0.00  0.00     0.021 A 
BRANCH   5  10
ATOM     10  O   UNL d   1     -38.739  13.258  17.582  0.00  0.00    -0.304 OA
BRANCH  10  11
ATOM     11  C   UNL d   1     -38.073  12.829  17.363  0.00  0.00     0.123 C 
ATOM     12  C   UNL d   1     -38.029  12.020  17.510  0.00  0.00     0.029 C 
ENDBRANCH  10  11
ENDBRANCH   5  10
ENDBRANCH   1   4
BRANCH   2  13
ATOM     13  C   UNL d   1     -40.329  14.605  19.050  0.00  0.00     0.065 C 
BRANCH  13  14
ATOM     14  C   UNL d   1     -40.714  14.573  19.772  0.00  0.00     0.030 C 
BRANCH  14  15
ATOM     15  C   UNL d   1     -40.418  14.991  20.421  0.00  0.00     0.100 A 
ATOM     16  O   UNL d   1     -39.756  14.798  20.879  0.00  0.00    -0.307 OA
ATOM     17  C   UNL d   1     -39.666  15.364  21.462  0.00  0.00     0.100 A 
ATOM     18  C   UNL d   1     -40.276  15.918  21.373  0.00  0.00     0.027 A 
ATOM     19  C   UNL d   1     -39.080  15.382  22.034  0.00  0.00     0.027 C 
ATOM     20  C   UNL d   1     -40.740  15.689  20.731  0.00  0.00     0.027 A 
ENDBRANCH  14  15
ENDBRANCH  13  14
ENDBRANCH   2  13
TORSDOF 6
ENDMDL
MODEL 8
REMARK VINA RESULT:      -5.3      1.456      2.212
REMARK  6 active torsions:
REMARK  status: ('A' for Active; 'I' for Inactive)
REMARK       I    between atoms: N_2  and  C_4 
REMARK    1  A    between atoms: C_6  and  N_2 
REMARK    2  A    between atoms: C_12  and  C_3 
REMARK    3  A    between atoms: C_4  and  C_11 
REMARK    4  A    between atoms: O_13  and  C_9 
REMARK    5  A    between atoms: C_11  and  C_12 
REMARK    6  A    between atoms: C_17  and  O_13 
ROOT
ATOM      1  N   UNL d   1     -49.631  13.061  23.397  0.00  0.00    -0.206 NA
ATOM      2  C   UNL d   1     -48.894  12.702  23.473  0.00  0.00     0.279 C 
ATOM      3  O   UNL d   1     -48.840  11.914  23.697  0.00  0.00    -0.265 OA
ENDROOT
BRANCH   1   4
ATOM      4  C   UNL d   1     -49.680  13.860  23.170  0.00  0.00     0.107 A 
ATOM      5  C   UNL d   1     -50.032  14.061  22.454  0.00  0.00     0.118 A 
ATOM      6  C   UNL d   1     -50.081  14.845  22.228  0.00  0.00     0.026 A 
ATOM      7  C   UNL d   1     -49.777  15.443  22.718  0.00  0.00     0.002 A 
ATOM      8  C   UNL d   1     -49.422  15.240  23.439  0.00  0.00     0.002 A 
ATOM      9  C   UNL d   1     -49.374  14.442  23.666  0.00  0.00     0.021 A 
BRANCH   5  10
ATOM     10  O   UNL d   1     -50.333  13.466  21.970  0.00  0.00    -0.304 OA
BRANCH  10  11
ATOM     11  C   UNL d   1     -50.837  13.648  21.347  0.00  0.00     0.123 C 
ATOM     12  C   UNL d   1     -51.056  13.071  20.803  0.00  0.00     0.029 C 
ENDBRANCH  10  11
ENDBRANCH   5  10
ENDBRANCH   1   4
BRANCH   2  13
ATOM     13  C   UNL d   1     -48.203  13.129  23.324  0.00  0.00     0.065 C 
BRANCH  13  14
ATOM     14  C   UNL d   1     -47.470  12.791  23.467  0.00  0.00     0.030 C 
BRANCH  14  15
ATOM     15  C   UNL d   1     -46.794  13.089  23.096  0.00  0.00     0.100 A 
ATOM     16  O   UNL d   1     -46.355  12.727  22.495  0.00  0.00    -0.307 OA
ATOM     17  C   UNL d   1     -45.733  13.217  22.293  0.00  0.00     0.100 A 
ATOM     18  C   UNL d   1     -45.779  13.894  22.770  0.00  0.00     0.027 A 
ATOM     19  C   UNL d   1     -45.164  13.069  21.723  0.00  0.00     0.027 C 
ATOM     20  C   UNL d   1     -46.434  13.815  23.265  0.00  0.00     0.027 A 
ENDBRANCH  14  15
ENDBRANCH  13  14
ENDBRANCH   2  13
TORSDOF 6
ENDMDL
MODEL 9
REMARK VINA RESULT:      -4.4      1.154      1.393
REMARK  6 active torsions:
REMARK  status: ('A' for Active; 'I' for Inactive)
REMARK       I    between atoms: N_2  and  C_4 
REMARK    1  A    between atoms: C_6  and  N_2 
REMARK    2  A    between atoms: C_12  and  C_3 
REMARK    3  A    between atoms: C_4  and  C_11 
REMARK    4  A    between atoms: O_13  and  C_9 
REMARK    5  A    between atoms: C_11  and  C_12 
REMARK    6  A    between atoms: C_17  and  O_13 
ROOT
ATOM      1  N   UNL d   1     -49.588  13.301  21.801  0.00  0.00    -0.206 NA
ATOM      2  C   UNL d   1     -48.776  13.391  21.693  0.00  0.00     0.279 C 
ATOM      3  O   UNL d   1     -48.490  13.838  21.067  0.00  0.00    -0.265 OA
ENDROOT
BRANCH   1   4
ATOM      4  C   UNL d   1     -49.872  12.847  22.437  0.00  0.00     0.107 A 
ATOM      5  C   UNL d   1     -50.336  13.200  23.017  0.00  0.00     0.118 A 
ATOM      6  C   UNL d   1     -50.617  12.755  23.643  0.00  0.00     0.026 A 
ATOM      7  C   UNL d   1     -50.436  11.947  23.698  0.00  0.00     0.002 A 
ATOM      8  C   UNL d   1     -49.968  11.591  23.114  0.00  0.00     0.002 A 
ATOM      9  C   UNL d   1     -49.684  12.045  22.478  0.00  0.00     0.021 A 
BRANCH   5  10
ATOM     10  O   UNL d   1     -50.514  14.002  22.959  0.00  0.00    -0.304 OA
BRANCH  10  11
ATOM     11  C   UNL d   1     -50.934  14.381  23.555  0.00  0.00     0.123 C 
ATOM     12  C   UNL d   1     -50.967  15.203  23.587  0.00  0.00     0.029 C 
ENDBRANCH  10  11
ENDBRANCH   5  10
ENDBRANCH   1   4
BRANCH   2  13
ATOM     13  C   UNL d   1     -48.243  13.033  22.212  0.00  0.00     0.065 C 
BRANCH  13  14
ATOM     14  C   UNL d   1     -47.442  13.204  22.165  0.00  0.00     0.030 C 
BRANCH  14  15
ATOM     15  C   UNL d   1     -46.902  12.806  22.647  0.00  0.00     0.100 A 
ATOM     16  O   UNL d   1     -46.462  12.132  22.452  0.00  0.00    -0.307 OA
ATOM     17  C   UNL d   1     -45.999  11.926  23.093  0.00  0.00     0.100 A 
ATOM     18  C   UNL d   1     -46.146  12.474  23.698  0.00  0.00     0.027 A 
ATOM     19  C   UNL d   1     -45.481  11.293  23.134  0.00  0.00     0.027 C 
ATOM     20  C   UNL d   1     -46.703  13.016  23.423  0.00  0.00     0.027 A 
ENDBRANCH  14  15
ENDBRANCH  13  14
ENDBRANCH   2  13
TORSDOF 6
ENDMDL
