MODEL 1
REMARK VINA RESULT:      92.0      0.000      0.000
REMARK  5 active torsions:
REMARK  status: ('A' for Active; 'I' for Inactive)
REMARK    1  A    between atoms: C_6  and  N_1 
REMARK    2  A    between atoms: C_7  and  C_3 
REMARK    3  A    between atoms: C_10  and  C_7 
REMARK    4  A    between atoms: C_16  and  C_8 
REMARK    5  A    between atoms: C_14  and  C_18 
ROOT
ATOM      1  N   UNL d   1      59.533  49.359  50.615  0.00  0.00    -0.252 N 
ATOM      2  C   UNL d   1      59.884  49.400  51.355  0.00  0.00     0.203 A 
ATOM      3  C   UNL d   1      60.837  49.160  50.462  0.00  0.00     0.091 A 
ATOM      4  C   UNL d   1      60.120  49.210  50.059  0.00  0.00     0.272 A 
ATOM      5  S   UNL d   1      60.688  49.277  51.264  0.00  0.00    -0.043 SA
ATOM      6  N   UNL d   1      59.491  49.541  52.072  0.00  0.00    -0.121 N 
ATOM      7  O   UNL d   1      60.016  49.127  49.249  0.00  0.00    -0.266 OA
ENDROOT
BRANCH   3   8
ATOM      8  C   UNL d   1      61.577  49.017  50.126  0.00  0.00     0.036 C 
BRANCH   8   9
ATOM      9  C   UNL d   1      61.877  48.244  50.070  0.00  0.00     0.101 A 
ATOM     10  O   UNL d   1      61.426  47.571  49.906  0.00  0.00    -0.307 OA
ATOM     11  C   UNL d   1      61.935  46.915  49.900  0.00  0.00     0.100 A 
ATOM     12  C   UNL d   1      62.701  47.194  50.060  0.00  0.00     0.027 A 
ATOM     13  C   UNL d   1      62.656  48.013  50.164  0.00  0.00     0.027 A 
BRANCH  11  14
ATOM     14  C   UNL d   1      61.721  46.139  49.760  0.00  0.00     0.023 A 
ATOM     15  C   UNL d   1      61.525  45.643  50.383  0.00  0.00     0.008 A 
ATOM     16  C   UNL d   1      61.309  44.856  50.233  0.00  0.00     0.065 A 
ATOM     17  C   UNL d   1      61.291  44.573  49.474  0.00  0.00     0.006 A 
ATOM     18  C   UNL d   1      61.485  45.058  48.839  0.00  0.00     0.000 A 
ATOM     19  C   UNL d   1      61.700  45.845  48.993  0.00  0.00     0.002 A 
BRANCH  16  20
ATOM     20  C   UNL d   1      61.108  44.352  50.879  0.00  0.00     0.211 C 
ATOM     21  O   UNL d   1      60.387  44.440  51.259  0.00  0.00    -0.644 OA
ATOM     22  O   UNL d   1      61.631  43.777  51.128  0.00  0.00    -0.644 OA
ENDBRANCH  16  20
ENDBRANCH  11  14
ENDBRANCH   8   9
ENDBRANCH   3   8
BRANCH   1  23
ATOM     23  C   UNL d   1      58.724  49.452  50.458  0.00  0.00     0.071 A 
ATOM     24  C   UNL d   1      58.175  49.393  51.078  0.00  0.00     0.044 A 
ATOM     25  C   UNL d   1      57.358  49.486  50.928  0.00  0.00     0.121 A 
ATOM     26  O   UNL d   1      56.701  49.456  51.432  0.00  0.00    -0.299 OA
ATOM     27  C   UNL d   1      57.103  49.635  50.163  0.00  0.00     0.119 A 
ATOM     28  C   UNL d   1      56.033  49.588  50.967  0.00  0.00     0.304 A 
ATOM     29  O   UNL d   1      56.276  49.701  50.179  0.00  0.00    -0.300 OA
ATOM     30  C   UNL d   1      57.639  49.694  49.545  0.00  0.00     0.028 A 
ATOM     31  C   UNL d   1      58.455  49.602  49.692  0.00  0.00     0.020 A 
ENDBRANCH   1  23
TORSDOF 5
ENDMDL
