MODEL 1
REMARK VINA RESULT:      -5.0      0.000      0.000
REMARK  4 active torsions:
REMARK  status: ('A' for Active; 'I' for Inactive)
REMARK    1  A    between atoms: S_6  and  C_1 
REMARK    2  A    between atoms: C_14  and  N_2 
REMARK    3  A    between atoms: C_7  and  S_6 
REMARK    4  A    between atoms: O_18  and  C_16 
ROOT
ATOM      1  C   UNL d   1      57.779   0.512  30.705  0.00  0.00     0.114 A 
ATOM      2  N   UNL d   1      58.550   0.226  30.773  0.00  0.00    -0.239 NA
ATOM      3  C   UNL d   1      58.982   0.098  30.088  0.00  0.00     0.084 A 
ATOM      4  C   UNL d   1      58.660   0.247  29.361  0.00  0.00     0.018 A 
ATOM      5  C   UNL d   1      57.894   0.530  29.291  0.00  0.00     0.004 A 
ATOM      6  C   UNL d   1      59.757  -0.189  30.153  0.00  0.00     0.043 A 
ATOM      7  C   UNL d   1      57.457   0.661  29.978  0.00  0.00     0.026 A 
ATOM      8  C   UNL d   1      59.101   0.114  28.671  0.00  0.00     0.004 A 
ATOM      9  C   UNL d   1      60.189  -0.319  29.468  0.00  0.00     0.096 A 
ATOM     10  C   UNL d   1      59.867  -0.170  28.741  0.00  0.00     0.024 A 
ATOM     11  C   UNL d   1      57.568   0.681  28.555  0.00  0.00     0.000 C 
ENDROOT
BRANCH   1  12
ATOM     12  S   UNL d   1      57.241   0.682  31.343  0.00  0.00    -0.028 SA
BRANCH  12  13
ATOM     13  C   UNL d   1      57.100  -0.173  31.478  0.00  0.00     0.220 A 
ATOM     14  N   UNL d   1      56.726  -0.532  32.150  0.00  0.00    -0.186 N 
ATOM     15  N   UNL d   1      56.727  -1.342  32.017  0.00  0.00    -0.038 NA
ATOM     16  N   UNL d   1      57.099  -1.503  31.267  0.00  0.00    -0.022 NA
ATOM     17  N   UNL d   1      57.322  -0.773  30.951  0.00  0.00    -0.101 NA
BRANCH  14  18
ATOM     18  C   UNL d   1      56.416  -0.133  32.817  0.00  0.00     0.087 A 
ATOM     19  C   UNL d   1      55.579  -0.023  32.862  0.00  0.00     0.019 A 
ATOM     20  C   UNL d   1      55.228   0.387  33.541  0.00  0.00     0.002 A 
ATOM     21  C   UNL d   1      55.738   0.666  34.143  0.00  0.00     0.000 A 
ATOM     22  C   UNL d   1      56.597   0.557  34.104  0.00  0.00     0.002 A 
ATOM     23  C   UNL d   1      56.897   0.150  33.420  0.00  0.00     0.019 A 
ENDBRANCH  14  18
ENDBRANCH  12  13
ENDBRANCH   1  12
BRANCH   9  24
ATOM     24  O   UNL d   1      60.955  -0.602  29.538  0.00  0.00    -0.328 OA
ATOM     25  C   UNL d   1      61.115  -1.386  29.399  0.00  0.00     0.181 C 
ENDBRANCH   9  24
TORSDOF 4
ENDMDL
MODEL 2
REMARK VINA RESULT:      -4.4      1.122      1.641
REMARK  4 active torsions:
REMARK  status: ('A' for Active; 'I' for Inactive)
REMARK    1  A    between atoms: S_6  and  C_1 
REMARK    2  A    between atoms: C_14  and  N_2 
REMARK    3  A    between atoms: C_7  and  S_6 
REMARK    4  A    between atoms: O_18  and  C_16 
ROOT
ATOM      1  C   UNL d   1      57.218   0.210  31.402  0.00  0.00     0.114 A 
ATOM      2  N   UNL d   1      57.219  -0.237  30.708  0.00  0.00    -0.239 NA
ATOM      3  C   UNL d   1      57.933  -0.368  30.328  0.00  0.00     0.084 A 
ATOM      4  C   UNL d   1      58.623  -0.067  30.625  0.00  0.00     0.018 A 
ATOM      5  C   UNL d   1      58.625   0.377  31.314  0.00  0.00     0.004 A 
ATOM      6  C   UNL d   1      57.937  -0.817  29.631  0.00  0.00     0.043 A 
ATOM      7  C   UNL d   1      57.908   0.511  31.699  0.00  0.00     0.026 A 
ATOM      8  C   UNL d   1      59.343  -0.204  30.236  0.00  0.00     0.004 A 
ATOM      9  C   UNL d   1      58.651  -0.950  29.250  0.00  0.00     0.096 A 
ATOM     10  C   UNL d   1      59.341  -0.649  29.547  0.00  0.00     0.024 A 
ATOM     11  C   UNL d   1      59.323   0.682  31.614  0.00  0.00     0.000 C 
ENDROOT
BRANCH   1  12
ATOM     12  S   UNL d   1      56.542   0.410  31.879  0.00  0.00    -0.028 SA
BRANCH  12  13
ATOM     13  C   UNL d   1      56.441  -0.426  32.121  0.00  0.00     0.220 A 
ATOM     14  N   UNL d   1      56.100  -0.715  32.842  0.00  0.00    -0.186 N 
ATOM     15  N   UNL d   1      56.130  -1.534  32.809  0.00  0.00    -0.038 NA
ATOM     16  N   UNL d   1      56.488  -1.771  32.072  0.00  0.00    -0.022 NA
ATOM     17  N   UNL d   1      56.672  -1.078  31.663  0.00  0.00    -0.101 NA
BRANCH  14  18
ATOM     18  C   UNL d   1      55.791  -0.249  33.466  0.00  0.00     0.087 A 
ATOM     19  C   UNL d   1      56.272  -0.136  34.153  0.00  0.00     0.019 A 
ATOM     20  C   UNL d   1      55.980   0.341  34.815  0.00  0.00     0.002 A 
ATOM     21  C   UNL d   1      55.218   0.682  34.755  0.00  0.00     0.000 A 
ATOM     22  C   UNL d   1      54.720   0.570  34.055  0.00  0.00     0.002 A 
ATOM     23  C   UNL d   1      55.047   0.095  33.429  0.00  0.00     0.019 A 
ENDBRANCH  14  18
ENDBRANCH  12  13
ENDBRANCH   1  12
BRANCH   9  24
ATOM     24  O   UNL d   1      58.649  -1.394  28.561  0.00  0.00    -0.328 OA
ATOM     25  C   UNL d   1      59.159  -2.020  28.477  0.00  0.00     0.181 C 
ENDBRANCH   9  24
TORSDOF 4
ENDMDL
MODEL 3
REMARK VINA RESULT:      -4.4      1.820      4.866
REMARK  4 active torsions:
REMARK  status: ('A' for Active; 'I' for Inactive)
REMARK    1  A    between atoms: S_6  and  C_1 
REMARK    2  A    between atoms: C_14  and  N_2 
REMARK    3  A    between atoms: C_7  and  S_6 
REMARK    4  A    between atoms: O_18  and  C_16 
ROOT
ATOM      1  C   UNL d   1      57.089   0.678  31.936  0.00  0.00     0.114 A 
ATOM      2  N   UNL d   1      56.283   0.682  32.109  0.00  0.00    -0.239 NA
ATOM      3  C   UNL d   1      56.050   0.676  32.895  0.00  0.00     0.084 A 
ATOM      4  C   UNL d   1      56.599   0.667  33.489  0.00  0.00     0.018 A 
ATOM      5  C   UNL d   1      57.401   0.663  33.320  0.00  0.00     0.004 A 
ATOM      6  C   UNL d   1      55.240   0.680  33.071  0.00  0.00     0.043 A 
ATOM      7  C   UNL d   1      57.638   0.668  32.530  0.00  0.00     0.026 A 
ATOM      8  C   UNL d   1      56.358   0.662  34.283  0.00  0.00     0.004 A 
ATOM      9  C   UNL d   1      55.007   0.675  33.858  0.00  0.00     0.096 A 
ATOM     10  C   UNL d   1      55.555   0.666  34.452  0.00  0.00     0.024 A 
ATOM     11  C   UNL d   1      57.957   0.654  33.922  0.00  0.00     0.000 C 
ENDROOT
BRANCH   1  12
ATOM     12  S   UNL d   1      57.445   0.682  31.162  0.00  0.00    -0.028 SA
BRANCH  12  13
ATOM     13  C   UNL d   1      57.374  -0.190  31.103  0.00  0.00     0.220 A 
ATOM     14  N   UNL d   1      57.760  -0.701  30.546  0.00  0.00    -0.186 N 
ATOM     15  N   UNL d   1      57.515  -1.465  30.716  0.00  0.00    -0.038 NA
ATOM     16  N   UNL d   1      56.976  -1.448  31.376  0.00  0.00    -0.022 NA
ATOM     17  N   UNL d   1      56.901  -0.656  31.600  0.00  0.00    -0.101 NA
BRANCH  14  18
ATOM     18  C   UNL d   1      58.289  -0.465  29.941  0.00  0.00     0.087 A 
ATOM     19  C   UNL d   1      59.116  -0.461  30.116  0.00  0.00     0.019 A 
ATOM     20  C   UNL d   1      59.689  -0.222  29.510  0.00  0.00     0.002 A 
ATOM     21  C   UNL d   1      59.400   0.001  28.757  0.00  0.00     0.000 A 
ATOM     22  C   UNL d   1      58.554  -0.000  28.571  0.00  0.00     0.002 A 
ATOM     23  C   UNL d   1      58.029  -0.242  29.195  0.00  0.00     0.019 A 
ENDBRANCH  14  18
ENDBRANCH  12  13
ENDBRANCH   1  12
BRANCH   9  24
ATOM     24  O   UNL d   1      54.205   0.679  34.027  0.00  0.00    -0.328 OA
ATOM     25  C   UNL d   1      53.949   0.669  34.797  0.00  0.00     0.181 C 
ENDBRANCH   9  24
TORSDOF 4
ENDMDL
MODEL 4
REMARK VINA RESULT:      -2.4      9.140     10.217
REMARK  4 active torsions:
REMARK  status: ('A' for Active; 'I' for Inactive)
REMARK    1  A    between atoms: S_6  and  C_1 
REMARK    2  A    between atoms: C_14  and  N_2 
REMARK    3  A    between atoms: C_7  and  S_6 
REMARK    4  A    between atoms: O_18  and  C_16 
ROOT
ATOM      1  C   UNL d   1      59.581  -9.243  34.615  0.00  0.00     0.114 A 
ATOM      2  N   UNL d   1      59.519  -8.421  34.648  0.00  0.00    -0.239 NA
ATOM      3  C   UNL d   1      59.954  -8.017  35.213  0.00  0.00     0.084 A 
ATOM      4  C   UNL d   1      60.433  -8.415  35.729  0.00  0.00     0.018 A 
ATOM      5  C   UNL d   1      60.497  -9.231  35.700  0.00  0.00     0.004 A 
ATOM      6  C   UNL d   1      59.893  -7.191  35.248  0.00  0.00     0.043 A 
ATOM      7  C   UNL d   1      60.060  -9.640  35.132  0.00  0.00     0.026 A 
ATOM      8  C   UNL d   1      60.871  -8.001  36.300  0.00  0.00     0.004 A 
ATOM      9  C   UNL d   1      60.328  -6.786  35.814  0.00  0.00     0.096 A 
ATOM     10  C   UNL d   1      60.808  -7.183  36.330  0.00  0.00     0.024 A 
ATOM     11  C   UNL d   1      60.982  -9.634  36.222  0.00  0.00     0.000 C 
ENDROOT
BRANCH   1  12
ATOM     12  S   UNL d   1      59.180  -9.764  34.074  0.00  0.00    -0.028 SA
BRANCH  12  13
ATOM     13  C   UNL d   1      59.769  -9.597  33.446  0.00  0.00     0.220 A 
ATOM     14  N   UNL d   1      59.628  -9.539  32.612  0.00  0.00    -0.186 N 
ATOM     15  N   UNL d   1      60.350  -9.376  32.259  0.00  0.00    -0.038 NA
ATOM     16  N   UNL d   1      60.952  -9.329  32.862  0.00  0.00    -0.022 NA
ATOM     17  N   UNL d   1      60.576  -9.467  33.585  0.00  0.00    -0.101 NA
BRANCH  14  18
ATOM     18  C   UNL d   1      58.891  -9.632  32.226  0.00  0.00     0.087 A 
ATOM     19  C   UNL d   1      58.883  -9.649  31.380  0.00  0.00     0.019 A 
ATOM     20  C   UNL d   1      58.136  -9.744  30.952  0.00  0.00     0.002 A 
ATOM     21  C   UNL d   1      57.430  -9.817  31.396  0.00  0.00     0.000 A 
ATOM     22  C   UNL d   1      57.429  -9.800  32.262  0.00  0.00     0.002 A 
ATOM     23  C   UNL d   1      58.186  -9.706  32.640  0.00  0.00     0.019 A 
ENDBRANCH  14  18
ENDBRANCH  12  13
ENDBRANCH   1  12
BRANCH   9  24
ATOM     24  O   UNL d   1      60.265  -5.969  35.843  0.00  0.00    -0.328 OA
ATOM     25  C   UNL d   1      60.879  -5.522  36.130  0.00  0.00     0.181 C 
ENDBRANCH   9  24
TORSDOF 4
ENDMDL
