MODEL 1
REMARK VINA RESULT:      78.8      0.000      0.000
REMARK  6 active torsions:
REMARK  status: ('A' for Active; 'I' for Inactive)
REMARK    1  A    between atoms: C_7  and  C_1 
REMARK    2  A    between atoms: C_6  and  O_13 
REMARK    3  A    between atoms: C_12  and  C_6 
REMARK    4  A    between atoms: O_13  and  C_10 
REMARK    5  A    between atoms: C_28  and  C_14 
REMARK    6  A    between atoms: C_31  and  C_28 
ROOT
ATOM      1  C   UNL d   1     -50.357  27.575  33.681  0.00  0.00     0.064 A 
ATOM      2  C   UNL d   1     -49.293  28.365  34.207  0.00  0.00     0.062 A 
ATOM      3  C   UNL d   1     -49.671  27.636  34.132  0.00  0.00     0.199 A 
ATOM      4  C   UNL d   1     -50.665  28.240  33.306  0.00  0.00     0.126 A 
ATOM      5  C   UNL d   1     -49.602  29.030  33.831  0.00  0.00     0.105 A 
ATOM      6  O   UNL d   1     -50.288  28.968  33.380  0.00  0.00    -0.305 OA
ATOM      7  C   UNL d   1     -48.607  28.426  34.658  0.00  0.00     0.007 A 
ATOM      8  C   UNL d   1     -48.535  29.822  34.358  0.00  0.00     0.105 A 
ATOM      9  C   UNL d   1     -49.225  29.758  33.905  0.00  0.00     0.050 A 
ATOM     10  C   UNL d   1     -48.227  29.157  34.734  0.00  0.00     0.023 A 
ATOM     11  O   UNL d   1     -49.362  26.970  34.508  0.00  0.00    -0.286 OA
ENDROOT
BRANCH   1  12
ATOM     12  C   UNL d   1     -50.734  26.846  33.607  0.00  0.00     0.007 A 
ATOM     13  C   UNL d   1     -50.286  26.147  33.530  0.00  0.00     0.027 A 
ATOM     14  C   UNL d   1     -50.656  25.423  33.456  0.00  0.00     0.123 A 
ATOM     15  O   UNL d   1     -50.208  24.737  33.381  0.00  0.00    -0.301 OA
ATOM     16  C   UNL d   1     -51.492  25.378  33.456  0.00  0.00     0.123 A 
ATOM     17  C   UNL d   1     -50.586  24.004  33.306  0.00  0.00     0.149 A 
ATOM     18  C   UNL d   1     -51.409  23.955  33.306  0.00  0.00     0.149 A 
ATOM     19  O   UNL d   1     -51.865  24.649  33.382  0.00  0.00    -0.301 OA
ATOM     20  C   UNL d   1     -51.940  26.078  33.533  0.00  0.00     0.027 A 
ATOM     21  C   UNL d   1     -51.562  26.805  33.607  0.00  0.00     0.002 A 
ENDBRANCH   1  12
BRANCH  10  22
ATOM     22  C   UNL d   1     -47.534  29.223  35.188  0.00  0.00     0.002 C 
BRANCH  22  23
ATOM     23  C   UNL d   1     -47.571  29.520  35.955  0.00  0.00     0.000 C 
ATOM     24  C   UNL d   1     -47.081  29.219  36.539  0.00  0.00     0.000 C 
ENDBRANCH  22  23
ENDBRANCH  10  22
BRANCH   8  25
ATOM     25  O   UNL d   1     -48.152  30.555  34.436  0.00  0.00    -0.271 OA
BRANCH  25  26
ATOM     26  C   UNL d   1     -48.575  31.256  34.333  0.00  0.00     0.323 C 
ATOM     27  O   UNL d   1     -49.390  31.269  34.424  0.00  0.00    -0.257 OA
BRANCH  26  28
ATOM     28  C   UNL d   1     -48.174  31.953  34.136  0.00  0.00     0.163 A 
ATOM     29  O   UNL d   1     -47.384  32.015  33.914  0.00  0.00    -0.300 OA
ATOM     30  C   UNL d   1     -47.211  32.808  33.767  0.00  0.00     0.123 A 
ATOM     31  C   UNL d   1     -47.907  33.242  33.901  0.00  0.00     0.029 A 
ATOM     32  C   UNL d   1     -48.501  32.707  34.129  0.00  0.00     0.032 A 
ENDBRANCH  26  28
ENDBRANCH  25  26
ENDBRANCH   8  25
TORSDOF 6
ENDMDL
