MODEL 1
REMARK VINA RESULT:      -7.8      0.000      0.000
REMARK  6 active torsions:
REMARK  status: ('A' for Active; 'I' for Inactive)
REMARK    1  A    between atoms: C_4  and  N_1 
REMARK    2  A    between atoms: C_3  and  C_2 
REMARK    3  A    between atoms: S_6  and  C_11 
REMARK    4  A    between atoms: C_7  and  S_6 
REMARK    5  A    between atoms: C_8  and  C_10 
REMARK    6  A    between atoms: C_11  and  C_8 
ROOT
ATOM      1  C   UNL d   1     -47.446  13.950  22.738  0.00  0.00     0.202 C 
ATOM      2  O   UNL d   1     -47.299  14.751  22.906  0.00  0.00    -0.286 OA
ENDROOT
BRANCH   1   3
ATOM      3  C   UNL d   1     -46.838  13.395  22.826  0.00  0.00     0.040 A 
ATOM      4  C   UNL d   1     -46.932  12.759  23.344  0.00  0.00     0.005 A 
ATOM      5  C   UNL d   1     -46.316  12.220  23.415  0.00  0.00     0.024 A 
ATOM      6  C   UNL d   1     -45.612  12.303  22.981  0.00  0.00     0.127 A 
ATOM      7  C   UNL d   1     -45.529  12.940  22.467  0.00  0.00     0.024 A 
ATOM      8  C   UNL d   1     -46.147  13.476  22.400  0.00  0.00     0.005 A 
BRANCH   6   9
ATOM      9  N   UNL d   1     -44.977  11.750  23.053  0.00  0.00    -0.114 N 
ATOM     10  O   UNL d   1     -45.050  11.133  23.595  0.00  0.00    -0.532 OA
ATOM     11  O   UNL d   1     -44.296  11.844  22.574  0.00  0.00    -0.532 OA
ENDBRANCH   6   9
ENDBRANCH   1   3
BRANCH   1  12
ATOM     12  C   UNL d   1     -48.183  13.710  22.487  0.00  0.00     0.077 C 
BRANCH  12  13
ATOM     13  S   UNL d   1     -48.833  14.231  22.520  0.00  0.00    -0.083 SA
BRANCH  13  14
ATOM     14  C   UNL d   1     -49.586  14.003  22.202  0.00  0.00     0.035 A 
ATOM     15  C   UNL d   1     -50.245  14.460  22.381  0.00  0.00     0.070 A 
ATOM     16  C   UNL d   1     -50.988  14.236  22.068  0.00  0.00     0.007 A 
ATOM     17  C   UNL d   1     -51.053  13.559  21.583  0.00  0.00     0.000 A 
ATOM     18  C   UNL d   1     -50.384  13.121  21.418  0.00  0.00     0.001 A 
ATOM     19  C   UNL d   1     -49.651  13.342  21.727  0.00  0.00     0.007 A 
BRANCH  15  20
ATOM     20  C   UNL d   1     -50.184  15.149  22.875  0.00  0.00     0.211 C 
ATOM     21  O   UNL d   1     -50.288  15.074  23.698  0.00  0.00    -0.644 OA
ATOM     22  O   UNL d   1     -50.022  15.892  22.549  0.00  0.00    -0.644 OA
ENDBRANCH  15  20
ENDBRANCH  13  14
ENDBRANCH  12  13
ENDBRANCH   1  12
TORSDOF 6
ENDMDL
MODEL 2
REMARK VINA RESULT:      -6.7      1.239      1.821
REMARK  6 active torsions:
REMARK  status: ('A' for Active; 'I' for Inactive)
REMARK    1  A    between atoms: C_4  and  N_1 
REMARK    2  A    between atoms: C_3  and  C_2 
REMARK    3  A    between atoms: S_6  and  C_11 
REMARK    4  A    between atoms: C_7  and  S_6 
REMARK    5  A    between atoms: C_8  and  C_10 
REMARK    6  A    between atoms: C_11  and  C_8 
ROOT
ATOM      1  C   UNL d   1     -47.908  12.903  23.243  0.00  0.00     0.202 C 
ATOM      2  O   UNL d   1     -48.232  12.284  23.696  0.00  0.00    -0.286 OA
ENDROOT
BRANCH   1   3
ATOM      3  C   UNL d   1     -47.117  12.864  23.003  0.00  0.00     0.040 A 
ATOM      4  C   UNL d   1     -46.831  13.393  22.437  0.00  0.00     0.005 A 
ATOM      5  C   UNL d   1     -46.043  13.336  22.213  0.00  0.00     0.024 A 
ATOM      6  C   UNL d   1     -45.537  12.765  22.542  0.00  0.00     0.127 A 
ATOM      7  C   UNL d   1     -45.832  12.243  23.105  0.00  0.00     0.024 A 
ATOM      8  C   UNL d   1     -46.620  12.304  23.325  0.00  0.00     0.005 A 
BRANCH   6   9
ATOM      9  N   UNL d   1     -44.726  12.706  22.313  0.00  0.00    -0.114 N 
ATOM     10  O   UNL d   1     -44.403  13.300  21.843  0.00  0.00    -0.532 OA
ATOM     11  O   UNL d   1     -44.275  12.047  22.571  0.00  0.00    -0.532 OA
ENDBRANCH   6   9
ENDBRANCH   1   3
BRANCH   1  12
ATOM     12  C   UNL d   1     -48.366  13.544  23.036  0.00  0.00     0.077 C 
BRANCH  12  13
ATOM     13  S   UNL d   1     -49.194  13.473  22.974  0.00  0.00    -0.083 SA
BRANCH  13  14
ATOM     14  C   UNL d   1     -49.688  14.163  22.967  0.00  0.00     0.035 A 
ATOM     15  C   UNL d   1     -50.417  14.122  22.590  0.00  0.00     0.070 A 
ATOM     16  C   UNL d   1     -50.905  14.803  22.584  0.00  0.00     0.007 A 
ATOM     17  C   UNL d   1     -50.650  15.506  22.955  0.00  0.00     0.000 A 
ATOM     18  C   UNL d   1     -49.922  15.522  23.324  0.00  0.00     0.001 A 
ATOM     19  C   UNL d   1     -49.441  14.851  23.330  0.00  0.00     0.007 A 
BRANCH  15  20
ATOM     20  C   UNL d   1     -50.680  13.409  22.212  0.00  0.00     0.211 C 
ATOM     21  O   UNL d   1     -50.548  13.306  21.396  0.00  0.00    -0.644 OA
ATOM     22  O   UNL d   1     -51.064  12.816  22.642  0.00  0.00    -0.644 OA
ENDBRANCH  15  20
ENDBRANCH  13  14
ENDBRANCH  12  13
ENDBRANCH   1  12
TORSDOF 6
ENDMDL
MODEL 3
REMARK VINA RESULT:      -5.9      8.466      9.461
REMARK  6 active torsions:
REMARK  status: ('A' for Active; 'I' for Inactive)
REMARK    1  A    between atoms: C_4  and  N_1 
REMARK    2  A    between atoms: C_3  and  C_2 
REMARK    3  A    between atoms: S_6  and  C_11 
REMARK    4  A    between atoms: C_7  and  S_6 
REMARK    5  A    between atoms: C_8  and  C_10 
REMARK    6  A    between atoms: C_11  and  C_8 
ROOT
ATOM      1  C   UNL d   1     -40.232  14.476  20.268  0.00  0.00     0.202 C 
ATOM      2  O   UNL d   1     -41.059  14.389  20.237  0.00  0.00    -0.286 OA
ENDROOT
BRANCH   1   3
ATOM      3  C   UNL d   1     -39.868  14.685  20.981  0.00  0.00     0.040 A 
ATOM      4  C   UNL d   1     -39.804  15.480  21.194  0.00  0.00     0.005 A 
ATOM      5  C   UNL d   1     -39.439  15.664  21.907  0.00  0.00     0.024 A 
ATOM      6  C   UNL d   1     -39.138  15.073  22.408  0.00  0.00     0.127 A 
ATOM      7  C   UNL d   1     -39.207  14.284  22.186  0.00  0.00     0.024 A 
ATOM      8  C   UNL d   1     -39.573  14.105  21.473  0.00  0.00     0.005 A 
BRANCH   6   9
ATOM      9  N   UNL d   1     -38.762  15.261  23.141  0.00  0.00    -0.114 N 
ATOM     10  O   UNL d   1     -38.141  14.785  23.400  0.00  0.00    -0.532 OA
ATOM     11  O   UNL d   1     -39.030  15.922  23.582  0.00  0.00    -0.532 OA
ENDBRANCH   6   9
ENDBRANCH   1   3
BRANCH   1  12
ATOM     12  C   UNL d   1     -39.780  14.356  19.600  0.00  0.00     0.077 C 
BRANCH  12  13
ATOM     13  S   UNL d   1     -40.114  14.434  18.841  0.00  0.00    -0.083 SA
BRANCH  13  14
ATOM     14  C   UNL d   1     -39.686  14.186  18.152  0.00  0.00     0.035 A 
ATOM     15  C   UNL d   1     -39.871  14.528  17.428  0.00  0.00     0.070 A 
ATOM     16  C   UNL d   1     -39.449  14.283  16.748  0.00  0.00     0.007 A 
ATOM     17  C   UNL d   1     -38.852  13.702  16.810  0.00  0.00     0.000 A 
ATOM     18  C   UNL d   1     -38.686  13.377  17.540  0.00  0.00     0.001 A 
ATOM     19  C   UNL d   1     -39.103  13.619  18.211  0.00  0.00     0.007 A 
BRANCH  15  20
ATOM     20  C   UNL d   1     -40.478  15.119  17.360  0.00  0.00     0.211 C 
ATOM     21  O   UNL d   1     -41.259  14.886  17.189  0.00  0.00    -0.644 OA
ATOM     22  O   UNL d   1     -40.303  15.921  17.461  0.00  0.00    -0.644 OA
ENDBRANCH  15  20
ENDBRANCH  13  14
ENDBRANCH  12  13
ENDBRANCH   1  12
TORSDOF 6
ENDMDL
MODEL 4
REMARK VINA RESULT:      -5.7      7.845      9.896
REMARK  6 active torsions:
REMARK  status: ('A' for Active; 'I' for Inactive)
REMARK    1  A    between atoms: C_4  and  N_1 
REMARK    2  A    between atoms: C_3  and  C_2 
REMARK    3  A    between atoms: S_6  and  C_11 
REMARK    4  A    between atoms: C_7  and  S_6 
REMARK    5  A    between atoms: C_8  and  C_10 
REMARK    6  A    between atoms: C_11  and  C_8 
ROOT
ATOM      1  C   UNL d   1     -40.050  14.318  18.258  0.00  0.00     0.202 C 
ATOM      2  O   UNL d   1     -40.745  13.867  18.328  0.00  0.00    -0.286 OA
ENDROOT
BRANCH   1   3
ATOM      3  C   UNL d   1     -39.576  14.240  17.585  0.00  0.00     0.040 A 
ATOM      4  C   UNL d   1     -39.066  13.594  17.511  0.00  0.00     0.005 A 
ATOM      5  C   UNL d   1     -38.605  13.538  16.834  0.00  0.00     0.024 A 
ATOM      6  C   UNL d   1     -38.641  14.109  16.232  0.00  0.00     0.127 A 
ATOM      7  C   UNL d   1     -39.152  14.749  16.316  0.00  0.00     0.024 A 
ATOM      8  C   UNL d   1     -39.611  14.802  16.994  0.00  0.00     0.005 A 
BRANCH   6   9
ATOM      9  N   UNL d   1     -38.167  14.053  15.535  0.00  0.00    -0.114 N 
ATOM     10  O   UNL d   1     -37.939  14.747  15.154  0.00  0.00    -0.532 OA
ATOM     11  O   UNL d   1     -37.943  13.295  15.252  0.00  0.00    -0.532 OA
ENDBRANCH   6   9
ENDBRANCH   1   3
BRANCH   1  12
ATOM     12  C   UNL d   1     -39.836  14.837  18.849  0.00  0.00     0.077 C 
BRANCH  12  13
ATOM     13  S   UNL d   1     -40.230  14.831  19.584  0.00  0.00    -0.083 SA
BRANCH  13  14
ATOM     14  C   UNL d   1     -39.880  15.196  20.265  0.00  0.00     0.035 A 
ATOM     15  C   UNL d   1     -40.369  15.425  20.884  0.00  0.00     0.070 A 
ATOM     16  C   UNL d   1     -40.025  15.786  21.556  0.00  0.00     0.007 A 
ATOM     17  C   UNL d   1     -39.200  15.907  21.592  0.00  0.00     0.000 A 
ATOM     18  C   UNL d   1     -38.734  15.671  20.964  0.00  0.00     0.001 A 
ATOM     19  C   UNL d   1     -39.074  15.316  20.301  0.00  0.00     0.007 A 
BRANCH  15  20
ATOM     20  C   UNL d   1     -41.209  15.304  20.852  0.00  0.00     0.211 C 
ATOM     21  O   UNL d   1     -41.703  15.922  20.592  0.00  0.00    -0.644 OA
ATOM     22  O   UNL d   1     -41.543  14.580  21.076  0.00  0.00    -0.644 OA
ENDBRANCH  15  20
ENDBRANCH  13  14
ENDBRANCH  12  13
ENDBRANCH   1  12
TORSDOF 6
ENDMDL
MODEL 5
REMARK VINA RESULT:      -5.7      8.229      9.687
REMARK  6 active torsions:
REMARK  status: ('A' for Active; 'I' for Inactive)
REMARK    1  A    between atoms: C_4  and  N_1 
REMARK    2  A    between atoms: C_3  and  C_2 
REMARK    3  A    between atoms: S_6  and  C_11 
REMARK    4  A    between atoms: C_7  and  S_6 
REMARK    5  A    between atoms: C_8  and  C_10 
REMARK    6  A    between atoms: C_11  and  C_8 
ROOT
ATOM      1  C   UNL d   1     -40.563  14.698  20.346  0.00  0.00     0.202 C 
ATOM      2  O   UNL d   1     -41.199  14.309  20.716  0.00  0.00    -0.286 OA
ENDROOT
BRANCH   1   3
ATOM      3  C   UNL d   1     -40.590  14.847  19.533  0.00  0.00     0.040 A 
ATOM      4  C   UNL d   1     -40.689  15.618  19.256  0.00  0.00     0.005 A 
ATOM      5  C   UNL d   1     -40.712  15.742  18.445  0.00  0.00     0.024 A 
ATOM      6  C   UNL d   1     -40.639  15.113  17.906  0.00  0.00     0.127 A 
ATOM      7  C   UNL d   1     -40.540  14.348  18.192  0.00  0.00     0.024 A 
ATOM      8  C   UNL d   1     -40.518  14.230  19.004  0.00  0.00     0.005 A 
BRANCH   6   9
ATOM      9  N   UNL d   1     -40.663  15.238  17.071  0.00  0.00    -0.114 N 
ATOM     10  O   UNL d   1     -39.963  15.426  16.679  0.00  0.00    -0.532 OA
ATOM     11  O   UNL d   1     -41.394  15.167  16.666  0.00  0.00    -0.532 OA
ENDBRANCH   6   9
ENDBRANCH   1   3
BRANCH   1  12
ATOM     12  C   UNL d   1     -39.916  14.934  20.782  0.00  0.00     0.077 C 
BRANCH  12  13
ATOM     13  S   UNL d   1     -39.654  14.482  21.432  0.00  0.00    -0.083 SA
BRANCH  13  14
ATOM     14  C   UNL d   1     -39.095  14.802  21.983  0.00  0.00     0.035 A 
ATOM     15  C   UNL d   1     -38.663  14.284  22.454  0.00  0.00     0.070 A 
ATOM     16  C   UNL d   1     -38.112  14.599  22.998  0.00  0.00     0.007 A 
ATOM     17  C   UNL d   1     -38.006  15.425  23.059  0.00  0.00     0.000 A 
ATOM     18  C   UNL d   1     -38.446  15.921  22.582  0.00  0.00     0.001 A 
ATOM     19  C   UNL d   1     -38.990  15.609  22.044  0.00  0.00     0.007 A 
BRANCH  15  20
ATOM     20  C   UNL d   1     -38.768  13.443  22.395  0.00  0.00     0.211 C 
ATOM     21  O   UNL d   1     -38.331  13.014  21.830  0.00  0.00    -0.644 OA
ATOM     22  O   UNL d   1     -39.296  13.045  22.892  0.00  0.00    -0.644 OA
ENDBRANCH  15  20
ENDBRANCH  13  14
ENDBRANCH  12  13
ENDBRANCH   1  12
TORSDOF 6
ENDMDL
MODEL 6
REMARK VINA RESULT:      -5.1      8.912      9.824
REMARK  6 active torsions:
REMARK  status: ('A' for Active; 'I' for Inactive)
REMARK    1  A    between atoms: C_4  and  N_1 
REMARK    2  A    between atoms: C_3  and  C_2 
REMARK    3  A    between atoms: S_6  and  C_11 
REMARK    4  A    between atoms: C_7  and  S_6 
REMARK    5  A    between atoms: C_8  and  C_10 
REMARK    6  A    between atoms: C_11  and  C_8 
ROOT
ATOM      1  C   UNL d   1     -38.671  15.201  19.619  0.00  0.00     0.202 C 
ATOM      2  O   UNL d   1     -37.999  15.653  19.426  0.00  0.00    -0.286 OA
ENDROOT
BRANCH   1   3
ATOM      3  C   UNL d   1     -38.665  14.726  20.297  0.00  0.00     0.040 A 
ATOM      4  C   UNL d   1     -39.025  14.991  20.991  0.00  0.00     0.005 A 
ATOM      5  C   UNL d   1     -39.006  14.502  21.650  0.00  0.00     0.024 A 
ATOM      6  C   UNL d   1     -38.638  13.757  21.631  0.00  0.00     0.127 A 
ATOM      7  C   UNL d   1     -38.282  13.503  20.934  0.00  0.00     0.024 A 
ATOM      8  C   UNL d   1     -38.303  13.995  20.278  0.00  0.00     0.005 A 
BRANCH   6   9
ATOM      9  N   UNL d   1     -38.618  13.253  22.309  0.00  0.00    -0.114 N 
ATOM     10  O   UNL d   1     -37.964  12.764  22.419  0.00  0.00    -0.532 OA
ATOM     11  O   UNL d   1     -39.261  13.264  22.847  0.00  0.00    -0.532 OA
ENDBRANCH   6   9
ENDBRANCH   1   3
BRANCH   1  12
ATOM     12  C   UNL d   1     -39.333  15.225  19.145  0.00  0.00     0.077 C 
BRANCH  12  13
ATOM     13  S   UNL d   1     -39.262  15.332  18.321  0.00  0.00    -0.083 SA
BRANCH  13  14
ATOM     14  C   UNL d   1     -39.946  15.491  17.846  0.00  0.00     0.035 A 
ATOM     15  C   UNL d   1     -39.902  15.362  17.035  0.00  0.00     0.070 A 
ATOM     16  C   UNL d   1     -40.577  15.520  16.565  0.00  0.00     0.007 A 
ATOM     17  C   UNL d   1     -41.279  15.802  16.918  0.00  0.00     0.000 A 
ATOM     18  C   UNL d   1     -41.299  15.922  17.726  0.00  0.00     0.001 A 
ATOM     19  C   UNL d   1     -40.633  15.767  18.189  0.00  0.00     0.007 A 
BRANCH  15  20
ATOM     20  C   UNL d   1     -39.190  15.076  16.671  0.00  0.00     0.211 C 
ATOM     21  O   UNL d   1     -38.634  15.620  16.374  0.00  0.00    -0.644 OA
ATOM     22  O   UNL d   1     -39.041  14.265  16.609  0.00  0.00    -0.644 OA
ENDBRANCH  15  20
ENDBRANCH  13  14
ENDBRANCH  12  13
ENDBRANCH   1  12
TORSDOF 6
ENDMDL
