MODEL 1
REMARK VINA RESULT:      99.8      0.000      0.000
REMARK  6 active torsions:
REMARK  status: ('A' for Active; 'I' for Inactive)
REMARK    1  A    between atoms: C_5  and  C_1 
REMARK    2  A    between atoms: N_6  and  C_5 
REMARK    3  A    between atoms: C_9  and  C_5 
REMARK    4  A    between atoms: C_8  and  C_11 
REMARK    5  A    between atoms: O_18  and  C_8 
REMARK    6  A    between atoms: C_23  and  O_18 
ROOT
ATOM      1  C   UNL d   1      60.311  48.176  50.809  0.00  0.00     0.083 C 
ENDROOT
BRANCH   1   2
ATOM      2  C   UNL d   1      60.848  48.728  51.130  0.00  0.00     0.037 A 
ATOM      3  C   UNL d   1      61.306  49.264  50.697  0.00  0.00     0.083 A 
ATOM      4  N   UNL d   1      61.757  49.707  51.199  0.00  0.00    -0.245 NA
ATOM      5  C   UNL d   1      61.297  49.331  49.856  0.00  0.00     0.021 C 
ATOM      6  C   UNL d   1      61.598  49.465  51.955  0.00  0.00     0.081 A 
ATOM      7  C   UNL d   1      61.037  48.861  51.912  0.00  0.00     0.021 A 
ATOM      8  C   UNL d   1      61.884  49.708  52.689  0.00  0.00     0.019 A 
ATOM      9  C   UNL d   1      60.765  48.503  52.603  0.00  0.00     0.002 A 
ATOM     10  C   UNL d   1      61.052  48.747  53.338  0.00  0.00     0.000 A 
ATOM     11  C   UNL d   1      61.612  49.351  53.381  0.00  0.00     0.002 A 
ENDBRANCH   1   2
BRANCH   1  12
ATOM     12  N   UNL d   1      59.499  48.372  50.732  0.00  0.00    -0.302 N 
ATOM     13  C   UNL d   1      58.940  47.926  51.119  0.00  0.00     0.080 A 
ATOM     14  C   UNL d   1      58.142  48.121  51.043  0.00  0.00     0.024 A 
ATOM     15  C   UNL d   1      57.929  48.768  50.572  0.00  0.00     0.067 A 
ATOM     16  C   UNL d   1      58.493  49.214  50.185  0.00  0.00     0.024 A 
ATOM     17  C   UNL d   1      59.290  49.019  50.262  0.00  0.00     0.080 A 
BRANCH  15  18
ATOM     18  C   UNL d   1      57.122  48.976  50.486  0.00  0.00     0.300 C 
ATOM     19  O   UNL d   1      56.847  49.708  50.765  0.00  0.00    -0.259 OA
BRANCH  18  20
ATOM     20  O   UNL d   1      56.617  48.448  50.126  0.00  0.00    -0.271 OA
BRANCH  20  21
ATOM     21  C   UNL d   1      56.257  48.649  49.413  0.00  0.00     0.126 C 
ATOM     22  C   UNL d   1      56.184  48.088  48.829  0.00  0.00     0.029 C 
ENDBRANCH  20  21
ENDBRANCH  18  20
ENDBRANCH  15  18
ENDBRANCH   1  12
BRANCH   1  23
ATOM     23  C   UNL d   1      60.588  47.422  50.563  0.00  0.00     0.098 A 
ATOM     24  N   UNL d   1      60.395  46.754  50.989  0.00  0.00    -0.243 NA
ATOM     25  C   UNL d   1      60.661  46.020  50.754  0.00  0.00     0.099 A 
ATOM     26  C   UNL d   1      61.128  45.954  50.082  0.00  0.00     0.021 A 
ATOM     27  C   UNL d   1      61.329  46.617  49.645  0.00  0.00     0.003 A 
ATOM     28  C   UNL d   1      61.066  47.366  49.872  0.00  0.00     0.021 A 
ENDBRANCH   1  23
TORSDOF 6
ENDMDL
