MODEL 1
REMARK VINA RESULT:      -1.6      0.000      0.000
REMARK  3 active torsions:
REMARK  status: ('A' for Active; 'I' for Inactive)
REMARK    1  A    between atoms: C_7  and  N_1 
REMARK    2  A    between atoms: C_10  and  C_3 
REMARK    3  A    between atoms: C_8  and  C_7 
ROOT
ATOM      1  N   UNL d   1      30.817  17.047 -24.506  0.00  0.00    -0.289 N 
ATOM      2  N   UNL d   1      30.315  15.973 -23.703  0.00  0.00    -0.217 NA
ATOM      3  C   UNL d   1      30.943  16.355 -24.071  0.00  0.00     0.149 A 
ATOM      4  C   UNL d   1      29.412  16.977 -24.200  0.00  0.00     0.044 A 
ATOM      5  C   UNL d   1      29.551  16.277 -23.762  0.00  0.00     0.139 A 
ATOM      6  C   UNL d   1      30.040  17.359 -24.568  0.00  0.00     0.068 A 
ATOM      7  S   UNL d   1      28.907  15.900 -23.394  0.00  0.00    -0.057 SA
ATOM      8  C   UNL d   1      28.642  17.287 -24.262  0.00  0.00     0.004 A 
ATOM      9  C   UNL d   1      29.918  18.053 -25.005  0.00  0.00     0.018 A 
ATOM     10  C   UNL d   1      28.522  17.984 -24.701  0.00  0.00     0.000 A 
ATOM     11  C   UNL d   1      29.150  18.366 -25.069  0.00  0.00     0.002 A 
ENDROOT
BRANCH   1  12
ATOM     12  C   UNL d   1      31.444  17.428 -24.874  0.00  0.00     0.106 C 
BRANCH  12  13
ATOM     13  C   UNL d   1      31.725  18.146 -24.580  0.00  0.00     0.118 A 
ATOM     14  O   UNL d   1      31.719  18.375 -23.801  0.00  0.00    -0.304 OA
ATOM     15  C   UNL d   1      32.048  19.123 -23.753  0.00  0.00     0.123 A 
ATOM     16  C   UNL d   1      32.260  19.358 -24.517  0.00  0.00     0.029 A 
ATOM     17  C   UNL d   1      32.058  18.747 -25.034  0.00  0.00     0.028 A 
ENDBRANCH  12  13
ENDBRANCH   1  12
BRANCH   3  18
ATOM     18  C   UNL d   1      31.711  16.052 -24.014  0.00  0.00     0.035 A 
ATOM     19  C   UNL d   1      32.092  15.751 -24.677  0.00  0.00     0.003 A 
ATOM     20  C   UNL d   1      32.854  15.454 -24.602  0.00  0.00     0.000 A 
ATOM     21  C   UNL d   1      33.241  15.453 -23.882  0.00  0.00     0.000 A 
ATOM     22  C   UNL d   1      32.854  15.759 -23.207  0.00  0.00     0.000 A 
ATOM     23  C   UNL d   1      32.089  16.057 -23.278  0.00  0.00     0.003 A 
ENDBRANCH   3  18
TORSDOF 3
ENDMDL
