MODEL 1
REMARK VINA RESULT:      -4.6      0.000      0.000
REMARK  6 active torsions:
REMARK  status: ('A' for Active; 'I' for Inactive)
REMARK    1  A    between atoms: N_13  and  C_4 
REMARK    2  A    between atoms: O_17  and  C_9 
REMARK    3  A    between atoms: O_18  and  C_11 
REMARK    4  A    between atoms: C_19  and  N_13 
REMARK    5  A    between atoms: C_15  and  C_20 
REMARK    6  A    between atoms: C_20  and  C_19 
ROOT
ATOM      1  C   UNL d   1     -41.669-122.544 -52.094  0.00  0.00     0.101 C 
ENDROOT
BRANCH   1   2
ATOM      2  N   UNL d   1     -41.862-122.240 -52.816  0.00  0.00    -0.225 NA
BRANCH   2   3
ATOM      3  C   UNL d   1     -41.679-122.641 -53.495  0.00  0.00     0.169 A 
ATOM      4  C   UNL d   1     -41.870-122.341 -54.180  0.00  0.00     0.094 A 
ATOM      5  C   UNL d   1     -41.691-122.733 -54.834  0.00  0.00     0.190 A 
ATOM      6  C   UNL d   1     -42.427-121.360 -54.923  0.00  0.00     0.128 A 
ATOM      7  N   UNL d   1     -41.329-123.410 -54.798  0.00  0.00    -0.203 NA
ATOM      8  N   UNL d   1     -41.881-122.435 -55.522  0.00  0.00    -0.128 NA
ATOM      9  C   UNL d   1     -41.134-123.716 -54.103  0.00  0.00     0.202 A 
ATOM     10  N   UNL d   1     -41.311-123.328 -53.447  0.00  0.00    -0.205 NA
ATOM     11  N   UNL d   1     -42.245-121.755 -55.570  0.00  0.00    -0.145 NA
ENDBRANCH   2   3
ENDBRANCH   1   2
BRANCH   1  12
ATOM     12  C   UNL d   1     -41.849-122.132 -51.402  0.00  0.00     0.021 C 
BRANCH  12  13
ATOM     13  C   UNL d   1     -41.844-122.515 -50.676  0.00  0.00     0.004 A 
ATOM     14  C   UNL d   1     -42.553-122.712 -50.322  0.00  0.00     0.026 A 
ATOM     15  C   UNL d   1     -42.555-123.100 -49.586  0.00  0.00     0.116 A 
ATOM     16  C   UNL d   1     -41.842-123.285 -49.214  0.00  0.00     0.116 A 
ATOM     17  C   UNL d   1     -41.123-123.083 -49.576  0.00  0.00     0.026 A 
ATOM     18  C   UNL d   1     -41.123-122.697 -50.309  0.00  0.00     0.002 A 
BRANCH  15  19
ATOM     19  O   UNL d   1     -43.277-123.301 -49.225  0.00  0.00    -0.326 OA
ATOM     20  C   UNL d   1     -43.997-123.075 -49.579  0.00  0.00     0.181 C 
ENDBRANCH  15  19
BRANCH  16  21
ATOM     21  O   UNL d   1     -41.836-123.674 -48.474  0.00  0.00    -0.326 OA
ATOM     22  C   UNL d   1     -41.249-123.484 -47.917  0.00  0.00     0.181 C 
ENDBRANCH  16  21
ENDBRANCH  12  13
ENDBRANCH   1  12
TORSDOF 6
ENDMDL
MODEL 2
REMARK VINA RESULT:      -3.5      2.736      5.110
REMARK  6 active torsions:
REMARK  status: ('A' for Active; 'I' for Inactive)
REMARK    1  A    between atoms: N_13  and  C_4 
REMARK    2  A    between atoms: O_17  and  C_9 
REMARK    3  A    between atoms: O_18  and  C_11 
REMARK    4  A    between atoms: C_19  and  N_13 
REMARK    5  A    between atoms: C_15  and  C_20 
REMARK    6  A    between atoms: C_20  and  C_19 
ROOT
ATOM      1  C   UNL d   1     -41.724-122.742 -51.274  0.00  0.00     0.101 C 
ENDROOT
BRANCH   1   2
ATOM      2  N   UNL d   1     -41.649-122.528 -50.500  0.00  0.00    -0.225 NA
BRANCH   2   3
ATOM      3  C   UNL d   1     -42.235-122.695 -49.967  0.00  0.00     0.169 A 
ATOM      4  C   UNL d   1     -42.050-122.902 -49.247  0.00  0.00     0.094 A 
ATOM      5  C   UNL d   1     -42.620-123.062 -48.735  0.00  0.00     0.190 A 
ATOM      6  C   UNL d   1     -41.126-123.162 -48.295  0.00  0.00     0.128 A 
ATOM      7  N   UNL d   1     -43.358-123.015 -48.944  0.00  0.00    -0.203 NA
ATOM      8  N   UNL d   1     -42.438-123.270 -48.012  0.00  0.00    -0.128 NA
ATOM      9  C   UNL d   1     -43.548-122.805 -49.674  0.00  0.00     0.202 A 
ATOM     10  N   UNL d   1     -42.982-122.644 -50.190  0.00  0.00    -0.205 NA
ATOM     11  N   UNL d   1     -41.699-123.321 -47.791  0.00  0.00    -0.145 NA
ENDBRANCH   2   3
ENDBRANCH   1   2
BRANCH   1  12
ATOM     12  C   UNL d   1     -41.160-122.512 -51.831  0.00  0.00     0.021 C 
BRANCH  12  13
ATOM     13  C   UNL d   1     -41.269-122.678 -52.628  0.00  0.00     0.004 A 
ATOM     14  C   UNL d   1     -41.509-122.082 -53.132  0.00  0.00     0.026 A 
ATOM     15  C   UNL d   1     -41.621-122.243 -53.941  0.00  0.00     0.116 A 
ATOM     16  C   UNL d   1     -41.490-123.004 -54.232  0.00  0.00     0.116 A 
ATOM     17  C   UNL d   1     -41.246-123.608 -53.717  0.00  0.00     0.026 A 
ATOM     18  C   UNL d   1     -41.136-123.444 -52.913  0.00  0.00     0.002 A 
BRANCH  15  19
ATOM     19  O   UNL d   1     -41.865-121.636 -54.454  0.00  0.00    -0.326 OA
ATOM     20  C   UNL d   1     -42.568-121.218 -54.301  0.00  0.00     0.181 C 
ENDBRANCH  15  19
BRANCH  16  21
ATOM     21  O   UNL d   1     -41.601-123.173 -55.044  0.00  0.00    -0.326 OA
ATOM     22  C   UNL d   1     -41.195-123.813 -55.386  0.00  0.00     0.181 C 
ENDBRANCH  16  21
ENDBRANCH  12  13
ENDBRANCH   1  12
TORSDOF 6
ENDMDL
