MODEL 1
REMARK VINA RESULT:      84.5      0.000      0.000
REMARK  8 active torsions:
REMARK  status: ('A' for Active; 'I' for Inactive)
REMARK    1  A    between atoms: C_5  and  C_1 
REMARK       I    between atoms: C_2  and  N_4 
REMARK    2  A    between atoms: C_7  and  C_2 
REMARK    3  A    between atoms: N_4  and  C_3 
REMARK    4  A    between atoms: N_6  and  C_5 
REMARK    5  A    between atoms: C_13  and  C_5 
REMARK    6  A    between atoms: C_15  and  N_6 
REMARK    7  A    between atoms: C_9  and  C_15 
REMARK    8  A    between atoms: O_19  and  C_9 
ROOT
ATOM      1  C   UNL d   1     -51.168  26.233  34.130  0.00  0.00     0.035 A 
ATOM      2  C   UNL d   1     -51.253  26.489  34.919  0.00  0.00     0.086 A 
ATOM      3  C   UNL d   1     -50.737  26.695  33.598  0.00  0.00     0.003 A 
ATOM      4  C   UNL d   1     -50.906  27.204  35.166  0.00  0.00     0.019 A 
ATOM      5  C   UNL d   1     -50.391  27.410  33.845  0.00  0.00     0.000 A 
ATOM      6  C   UNL d   1     -50.476  27.659  34.622  0.00  0.00     0.002 A 
ATOM      7  C   UNL d   1     -49.962  27.865  33.306  0.00  0.00     0.000 C 
ENDROOT
BRANCH   1   8
ATOM      8  C   UNL d   1     -51.510  25.527  33.886  0.00  0.00     0.083 C 
BRANCH   8   9
ATOM      9  N   UNL d   1     -52.335  25.464  33.815  0.00  0.00    -0.238 NA
BRANCH   9  10
ATOM     10  C   UNL d   1     -52.658  24.885  33.328  0.00  0.00     0.167 C 
BRANCH  10  11
ATOM     11  C   UNL d   1     -53.395  24.560  33.503  0.00  0.00     0.315 C 
ATOM     12  O   UNL d   1     -53.470  23.757  33.705  0.00  0.00    -0.257 OA
BRANCH  11  13
ATOM     13  O   UNL d   1     -54.080  25.037  33.480  0.00  0.00    -0.295 OA
ATOM     14  C   UNL d   1     -54.835  24.634  33.306  0.00  0.00     0.185 C 
ENDBRANCH  11  13
ENDBRANCH  10  11
ENDBRANCH   9  10
ENDBRANCH   8   9
BRANCH   8  15
ATOM     15  C   UNL d   1     -51.036  24.881  33.711  0.00  0.00     0.018 A 
ATOM     16  C   UNL d   1     -51.374  24.146  33.546  0.00  0.00     0.002 A 
ATOM     17  C   UNL d   1     -50.905  23.504  33.372  0.00  0.00     0.000 A 
ATOM     18  C   UNL d   1     -50.072  23.584  33.360  0.00  0.00     0.000 A 
ATOM     19  C   UNL d   1     -49.733  24.314  33.524  0.00  0.00     0.000 A 
ATOM     20  C   UNL d   1     -50.208  24.965  33.700  0.00  0.00     0.002 A 
ENDBRANCH   8  15
ENDBRANCH   1   8
BRANCH   2  21
ATOM     21  N   UNL d   1     -51.682  26.028  35.447  0.00  0.00    -0.208 NA
ATOM     22  C   UNL d   1     -51.723  26.247  36.257  0.00  0.00     0.279 C 
ATOM     23  O   UNL d   1     -51.329  26.927  36.515  0.00  0.00    -0.265 OA
BRANCH  22  24
ATOM     24  C   UNL d   1     -52.153  25.785  36.789  0.00  0.00     0.059 A 
ATOM     25  C   UNL d   1     -52.294  26.063  37.552  0.00  0.00     0.016 A 
ATOM     26  C   UNL d   1     -52.725  25.601  38.085  0.00  0.00     0.058 A 
ATOM     27 CL   UNL d   1     -52.859  25.888  38.842  0.00  0.00    -0.082 Cl
ATOM     28  C   UNL d   1     -53.012  24.865  37.854  0.00  0.00     0.011 A 
ATOM     29  C   UNL d   1     -52.870  24.588  37.091  0.00  0.00     0.001 A 
ATOM     30  C   UNL d   1     -52.440  25.050  36.559  0.00  0.00     0.005 A 
ENDBRANCH  22  24
ENDBRANCH   2  21
TORSDOF 8
ENDMDL
MODEL 2
REMARK VINA RESULT:      86.7      1.147      2.119
REMARK  8 active torsions:
REMARK  status: ('A' for Active; 'I' for Inactive)
REMARK    1  A    between atoms: C_5  and  C_1 
REMARK       I    between atoms: C_2  and  N_4 
REMARK    2  A    between atoms: C_7  and  C_2 
REMARK    3  A    between atoms: N_4  and  C_3 
REMARK    4  A    between atoms: N_6  and  C_5 
REMARK    5  A    between atoms: C_13  and  C_5 
REMARK    6  A    between atoms: C_15  and  N_6 
REMARK    7  A    between atoms: C_9  and  C_15 
REMARK    8  A    between atoms: O_19  and  C_9 
ROOT
ATOM      1  C   UNL d   1     -50.603  26.421  34.258  0.00  0.00     0.035 A 
ATOM      2  C   UNL d   1     -50.541  26.687  35.047  0.00  0.00     0.086 A 
ATOM      3  C   UNL d   1     -50.101  26.737  33.684  0.00  0.00     0.003 A 
ATOM      4  C   UNL d   1     -49.978  27.264  35.250  0.00  0.00     0.019 A 
ATOM      5  C   UNL d   1     -49.537  27.314  33.888  0.00  0.00     0.000 A 
ATOM      6  C   UNL d   1     -49.479  27.573  34.664  0.00  0.00     0.002 A 
ATOM      7  C   UNL d   1     -49.040  27.623  33.306  0.00  0.00     0.000 C 
ENDROOT
BRANCH   1   8
ATOM      8  C   UNL d   1     -51.159  25.850  34.057  0.00  0.00     0.083 C 
BRANCH   8   9
ATOM      9  N   UNL d   1     -50.947  25.047  34.036  0.00  0.00    -0.238 NA
BRANCH   9  10
ATOM     10  C   UNL d   1     -51.162  24.588  33.389  0.00  0.00     0.167 C 
BRANCH  10  11
ATOM     11  C   UNL d   1     -51.122  23.766  33.433  0.00  0.00     0.315 C 
ATOM     12  O   UNL d   1     -51.803  23.312  33.580  0.00  0.00    -0.257 OA
BRANCH  11  13
ATOM     13  O   UNL d   1     -50.391  23.375  33.330  0.00  0.00    -0.295 OA
ATOM     14  C   UNL d   1     -49.676  23.876  33.306  0.00  0.00     0.185 C 
ENDBRANCH  11  13
ENDBRANCH  10  11
ENDBRANCH   9  10
ENDBRANCH   8   9
BRANCH   8  15
ATOM     15  C   UNL d   1     -51.928  26.074  33.876  0.00  0.00     0.018 A 
ATOM     16  C   UNL d   1     -52.562  25.583  34.071  0.00  0.00     0.002 A 
ATOM     17  C   UNL d   1     -53.325  25.803  33.893  0.00  0.00     0.000 A 
ATOM     18  C   UNL d   1     -53.473  26.532  33.509  0.00  0.00     0.000 A 
ATOM     19  C   UNL d   1     -52.844  27.021  33.314  0.00  0.00     0.000 A 
ATOM     20  C   UNL d   1     -52.070  26.799  33.494  0.00  0.00     0.002 A 
ENDBRANCH   8  15
ENDBRANCH   1   8
BRANCH   2  21
ATOM     21  N   UNL d   1     -51.042  26.371  35.617  0.00  0.00    -0.208 NA
ATOM     22  C   UNL d   1     -51.057  26.701  36.389  0.00  0.00     0.279 C 
ATOM     23  O   UNL d   1     -50.566  27.342  36.568  0.00  0.00    -0.265 OA
BRANCH  22  24
ATOM     24  C   UNL d   1     -51.560  26.386  36.963  0.00  0.00     0.059 A 
ATOM     25  C   UNL d   1     -51.275  26.243  37.724  0.00  0.00     0.016 A 
ATOM     26  C   UNL d   1     -51.777  25.928  38.299  0.00  0.00     0.058 A 
ATOM     27 CL   UNL d   1     -51.482  25.791  39.053  0.00  0.00    -0.082 Cl
ATOM     28  C   UNL d   1     -52.560  25.756  38.113  0.00  0.00     0.011 A 
ATOM     29  C   UNL d   1     -52.844  25.899  37.352  0.00  0.00     0.001 A 
ATOM     30  C   UNL d   1     -52.343  26.214  36.778  0.00  0.00     0.005 A 
ENDBRANCH  22  24
ENDBRANCH   2  21
TORSDOF 8
ENDMDL
