MODEL 1
REMARK VINA RESULT:      83.0      0.000      0.000
REMARK  6 active torsions:
REMARK  status: ('A' for Active; 'I' for Inactive)
REMARK       I    between atoms: N_2  and  C_1 
REMARK    1  A    between atoms: C_5  and  C_1 
REMARK    2  A    between atoms: C_4  and  N_2 
REMARK    3  A    between atoms: C_3  and  C_4 
REMARK    4  A    between atoms: N_7  and  C_4 
REMARK    5  A    between atoms: C_15  and  N_7 
REMARK    6  A    between atoms: C_14  and  C_15 
ROOT
ATOM      1  C   UNL d   1      61.342  47.392  50.243  0.00  0.00     0.280 C 
ATOM      2  N   UNL d   1      60.935  47.965  49.825  0.00  0.00    -0.189 NA
ATOM      3  O   UNL d   1      61.584  47.536  51.010  0.00  0.00    -0.265 OA
ENDROOT
BRANCH   2   4
ATOM      4  C   UNL d   1      60.760  48.700  50.171  0.00  0.00     0.185 C 
BRANCH   4   5
ATOM      5  C   UNL d   1      60.197  49.197  49.807  0.00  0.00     0.250 C 
ATOM      6 CL   UNL d   1      59.606  48.773  50.194  0.00  0.00    -0.075 Cl
ATOM      7 CL   UNL d   1      60.821  49.595  49.437  0.00  0.00    -0.075 Cl
ATOM      8 CL   UNL d   1      59.628  49.707  49.431  0.00  0.00    -0.075 Cl
ENDBRANCH   4   5
BRANCH   4   9
ATOM      9  N   UNL d   1      61.140  48.916  50.855  0.00  0.00    -0.226 NA
BRANCH   9  10
ATOM     10  C   UNL d   1      60.931  49.617  51.259  0.00  0.00     0.102 C 
BRANCH  10  11
ATOM     11  C   UNL d   1      60.871  49.647  52.061  0.00  0.00     0.038 A 
ATOM     12  C   UNL d   1      61.565  49.667  52.526  0.00  0.00     0.101 A 
ATOM     13  N   UNL d   1      61.500  49.698  53.352  0.00  0.00    -0.242 NA
ATOM     14  C   UNL d   1      60.785  49.707  53.709  0.00  0.00     0.099 A 
ATOM     15  C   UNL d   1      60.101  49.686  53.237  0.00  0.00     0.021 A 
ATOM     16  C   UNL d   1      60.143  49.656  52.423  0.00  0.00     0.005 A 
ENDBRANCH  10  11
ENDBRANCH   9  10
ENDBRANCH   4   9
ENDBRANCH   2   4
BRANCH   1  17
ATOM     17  C   UNL d   1      61.518  46.671  49.916  0.00  0.00     0.058 A 
ATOM     18  C   UNL d   1      61.249  45.986  50.236  0.00  0.00     0.005 A 
ATOM     19  C   UNL d   1      61.423  45.248  49.911  0.00  0.00     0.000 A 
ATOM     20  C   UNL d   1      60.783  46.041  50.916  0.00  0.00     0.000 A 
ATOM     21  C   UNL d   1      61.132  44.568  50.264  0.00  0.00     0.000 A 
ATOM     22  C   UNL d   1      61.884  45.212  49.241  0.00  0.00     0.000 A 
ATOM     23  C   UNL d   1      60.664  44.615  50.945  0.00  0.00     0.000 A 
ATOM     24  C   UNL d   1      60.481  45.365  51.285  0.00  0.00     0.000 A 
ATOM     25  C   UNL d   1      62.171  45.915  48.896  0.00  0.00     0.000 A 
ATOM     26  C   UNL d   1      61.984  46.630  49.238  0.00  0.00     0.005 A 
ENDBRANCH   1  17
TORSDOF 6
ENDMDL
MODEL 2
REMARK VINA RESULT:      83.5      2.745      3.598
REMARK  6 active torsions:
REMARK  status: ('A' for Active; 'I' for Inactive)
REMARK       I    between atoms: N_2  and  C_1 
REMARK    1  A    between atoms: C_5  and  C_1 
REMARK    2  A    between atoms: C_4  and  N_2 
REMARK    3  A    between atoms: C_3  and  C_4 
REMARK    4  A    between atoms: N_7  and  C_4 
REMARK    5  A    between atoms: C_15  and  N_7 
REMARK    6  A    between atoms: C_14  and  C_15 
ROOT
ATOM      1  C   UNL d   1      58.964  49.052  50.926  0.00  0.00     0.280 C 
ATOM      2  N   UNL d   1      58.351  49.348  50.474  0.00  0.00    -0.189 NA
ATOM      3  O   UNL d   1      58.806  48.644  51.617  0.00  0.00    -0.265 OA
ENDROOT
BRANCH   2   4
ATOM      4  C   UNL d   1      57.561  49.241  50.706  0.00  0.00     0.185 C 
BRANCH   4   5
ATOM      5  C   UNL d   1      57.071  48.734  50.258  0.00  0.00     0.250 C 
ATOM      6 CL   UNL d   1      57.242  49.194  49.596  0.00  0.00    -0.075 Cl
ATOM      7 CL   UNL d   1      56.927  48.301  50.947  0.00  0.00    -0.075 Cl
ATOM      8 CL   UNL d   1      56.570  48.214  49.807  0.00  0.00    -0.075 Cl
ENDBRANCH   4   5
BRANCH   4   9
ATOM      9  N   UNL d   1      57.284  49.630  51.362  0.00  0.00    -0.226 NA
BRANCH   9  10
ATOM     10  C   UNL d   1      57.750  49.691  52.053  0.00  0.00     0.102 C 
BRANCH  10  11
ATOM     11  C   UNL d   1      57.425  49.692  52.789  0.00  0.00     0.038 A 
ATOM     12  C   UNL d   1      56.593  49.682  52.872  0.00  0.00     0.101 A 
ATOM     13  N   UNL d   1      56.261  49.682  53.633  0.00  0.00    -0.242 NA
ATOM     14  C   UNL d   1      56.724  49.691  54.284  0.00  0.00     0.099 A 
ATOM     15  C   UNL d   1      57.550  49.701  54.190  0.00  0.00     0.021 A 
ATOM     16  C   UNL d   1      57.896  49.701  53.451  0.00  0.00     0.005 A 
ENDBRANCH  10  11
ENDBRANCH   9  10
ENDBRANCH   4   9
ENDBRANCH   2   4
BRANCH   1  17
ATOM     17  C   UNL d   1      59.740  49.149  50.710  0.00  0.00     0.058 A 
ATOM     18  C   UNL d   1      60.338  48.818  51.129  0.00  0.00     0.005 A 
ATOM     19  C   UNL d   1      61.131  48.912  50.917  0.00  0.00     0.000 A 
ATOM     20  C   UNL d   1      60.136  48.370  51.794  0.00  0.00     0.000 A 
ATOM     21  C   UNL d   1      61.717  48.560  51.367  0.00  0.00     0.000 A 
ATOM     22  C   UNL d   1      61.312  49.357  50.259  0.00  0.00     0.000 A 
ATOM     23  C   UNL d   1      61.524  48.109  52.034  0.00  0.00     0.000 A 
ATOM     24  C   UNL d   1      60.717  48.008  52.258  0.00  0.00     0.000 A 
ATOM     25  C   UNL d   1      60.701  49.708  49.814  0.00  0.00     0.000 A 
ATOM     26  C   UNL d   1      59.927  49.598  50.046  0.00  0.00     0.005 A 
ENDBRANCH   1  17
TORSDOF 6
ENDMDL
