MODEL 1
REMARK VINA RESULT:      -7.7      0.000      0.000
REMARK  2 active torsions:
REMARK  status: ('A' for Active; 'I' for Inactive)
REMARK    1  A    between atoms: C_6  and  C_4 
REMARK    2  A    between atoms: C_7  and  C_5 
ROOT
ATOM      1  O   UNL d   1     -48.410  13.908  23.234  0.00  0.00    -0.268 OA
ATOM      2  N   UNL d   1     -48.990  13.918  22.026  0.00  0.00    -0.121 NA
ATOM      3  N   UNL d   1     -48.294  13.468  21.969  0.00  0.00    -0.121 NA
ATOM      4  C   UNL d   1     -47.940  13.465  22.715  0.00  0.00     0.204 A 
ATOM      5  C   UNL d   1     -49.058  14.183  22.795  0.00  0.00     0.204 A 
ENDROOT
BRANCH   4   6
ATOM      6  C   UNL d   1     -47.231  13.082  22.918  0.00  0.00     0.046 A 
ATOM      7  C   UNL d   1     -46.508  13.399  22.688  0.00  0.00     0.024 A 
ATOM      8  C   UNL d   1     -45.814  13.020  22.889  0.00  0.00     0.099 A 
ATOM      9  N   UNL d   1     -45.836  12.319  23.323  0.00  0.00    -0.242 NA
ATOM     10  C   UNL d   1     -46.551  11.995  23.557  0.00  0.00     0.099 A 
ATOM     11  C   UNL d   1     -47.253  12.381  23.352  0.00  0.00     0.024 A 
ENDBRANCH   4   6
BRANCH   5  12
ATOM     12  C   UNL d   1     -49.673  14.654  23.099  0.00  0.00     0.043 A 
ATOM     13  C   UNL d   1     -50.410  14.322  23.254  0.00  0.00     0.004 A 
ATOM     14  C   UNL d   1     -51.014  14.786  23.553  0.00  0.00     0.000 A 
ATOM     15  C   UNL d   1     -50.882  15.588  23.698  0.00  0.00     0.000 A 
ATOM     16  C   UNL d   1     -50.146  15.922  23.543  0.00  0.00     0.000 A 
ATOM     17  C   UNL d   1     -49.537  15.452  23.242  0.00  0.00     0.004 A 
ENDBRANCH   5  12
TORSDOF 2
ENDMDL
MODEL 2
REMARK VINA RESULT:      -7.7      0.981      3.951
REMARK  2 active torsions:
REMARK  status: ('A' for Active; 'I' for Inactive)
REMARK    1  A    between atoms: C_6  and  C_4 
REMARK    2  A    between atoms: C_7  and  C_5 
ROOT
ATOM      1  O   UNL d   1     -48.677  13.745  23.278  0.00  0.00    -0.268 OA
ATOM      2  N   UNL d   1     -47.598  14.142  22.589  0.00  0.00    -0.121 NA
ATOM      3  N   UNL d   1     -48.176  14.733  22.515  0.00  0.00    -0.121 NA
ATOM      4  C   UNL d   1     -48.840  14.484  22.941  0.00  0.00     0.204 A 
ATOM      5  C   UNL d   1     -47.904  13.544  23.053  0.00  0.00     0.204 A 
ENDROOT
BRANCH   4   6
ATOM      6  C   UNL d   1     -49.554  14.902  23.021  0.00  0.00     0.046 A 
ATOM      7  C   UNL d   1     -50.197  14.719  22.544  0.00  0.00     0.024 A 
ATOM      8  C   UNL d   1     -50.896  15.131  22.625  0.00  0.00     0.099 A 
ATOM      9  N   UNL d   1     -50.959  15.732  23.187  0.00  0.00    -0.242 NA
ATOM     10  C   UNL d   1     -50.323  15.922  23.667  0.00  0.00     0.099 A 
ATOM     11  C   UNL d   1     -49.616  15.503  23.582  0.00  0.00     0.024 A 
ENDBRANCH   4   6
BRANCH   5  12
ATOM     12  C   UNL d   1     -47.513  12.842  23.271  0.00  0.00     0.043 A 
ATOM     13  C   UNL d   1     -47.946  12.166  23.451  0.00  0.00     0.004 A 
ATOM     14  C   UNL d   1     -47.559  11.477  23.665  0.00  0.00     0.000 A 
ATOM     15  C   UNL d   1     -46.734  11.463  23.698  0.00  0.00     0.000 A 
ATOM     16  C   UNL d   1     -46.300  12.139  23.517  0.00  0.00     0.000 A 
ATOM     17  C   UNL d   1     -46.691  12.833  23.302  0.00  0.00     0.004 A 
ENDBRANCH   5  12
TORSDOF 2
ENDMDL
MODEL 3
REMARK VINA RESULT:      -7.4      1.577      1.928
REMARK  2 active torsions:
REMARK  status: ('A' for Active; 'I' for Inactive)
REMARK    1  A    between atoms: C_6  and  C_4 
REMARK    2  A    between atoms: C_7  and  C_5 
ROOT
ATOM      1  O   UNL d   1     -48.423  12.465  22.877  0.00  0.00    -0.268 OA
ATOM      2  N   UNL d   1     -49.310  11.546  23.284  0.00  0.00    -0.121 NA
ATOM      3  N   UNL d   1     -48.553  11.278  23.495  0.00  0.00    -0.121 NA
ATOM      4  C   UNL d   1     -48.009  11.847  23.243  0.00  0.00     0.204 A 
ATOM      5  C   UNL d   1     -49.228  12.267  22.909  0.00  0.00     0.204 A 
ENDROOT
BRANCH   4   6
ATOM      6  C   UNL d   1     -47.185  11.811  23.337  0.00  0.00     0.046 A 
ATOM      7  C   UNL d   1     -46.718  12.467  23.167  0.00  0.00     0.024 A 
ATOM      8  C   UNL d   1     -45.910  12.427  23.260  0.00  0.00     0.099 A 
ATOM      9  N   UNL d   1     -45.557  11.730  23.526  0.00  0.00    -0.242 NA
ATOM     10  C   UNL d   1     -46.013  11.072  23.698  0.00  0.00     0.099 A 
ATOM     11  C   UNL d   1     -46.832  11.114  23.602  0.00  0.00     0.024 A 
ENDBRANCH   4   6
BRANCH   5  12
ATOM     12  C   UNL d   1     -49.846  12.735  22.605  0.00  0.00     0.043 A 
ATOM     13  C   UNL d   1     -50.146  12.584  21.854  0.00  0.00     0.004 A 
ATOM     14  C   UNL d   1     -50.754  13.045  21.556  0.00  0.00     0.000 A 
ATOM     15  C   UNL d   1     -51.064  13.660  22.012  0.00  0.00     0.000 A 
ATOM     16  C   UNL d   1     -50.764  13.811  22.763  0.00  0.00     0.000 A 
ATOM     17  C   UNL d   1     -50.152  13.346  23.062  0.00  0.00     0.004 A 
ENDBRANCH   5  12
TORSDOF 2
ENDMDL
MODEL 4
REMARK VINA RESULT:      -6.8      2.120      3.938
REMARK  2 active torsions:
REMARK  status: ('A' for Active; 'I' for Inactive)
REMARK    1  A    between atoms: C_6  and  C_4 
REMARK    2  A    between atoms: C_7  and  C_5 
ROOT
ATOM      1  O   UNL d   1     -48.108  12.760  22.845  0.00  0.00    -0.268 OA
ATOM      2  N   UNL d   1     -47.357  11.924  23.575  0.00  0.00    -0.121 NA
ATOM      3  N   UNL d   1     -48.148  11.684  23.650  0.00  0.00    -0.121 NA
ATOM      4  C   UNL d   1     -48.607  12.202  23.199  0.00  0.00     0.204 A 
ATOM      5  C   UNL d   1     -47.336  12.578  23.086  0.00  0.00     0.204 A 
ENDROOT
BRANCH   4   6
ATOM      6  C   UNL d   1     -49.433  12.172  23.111  0.00  0.00     0.046 A 
ATOM      7  C   UNL d   1     -49.902  11.838  23.698  0.00  0.00     0.024 A 
ATOM      8  C   UNL d   1     -50.712  11.811  23.607  0.00  0.00     0.099 A 
ATOM      9  N   UNL d   1     -51.063  12.120  22.927  0.00  0.00    -0.242 NA
ATOM     10  C   UNL d   1     -50.604  12.455  22.337  0.00  0.00     0.099 A 
ATOM     11  C   UNL d   1     -49.784  12.481  22.431  0.00  0.00     0.024 A 
ENDBRANCH   4   6
BRANCH   5  12
ATOM     12  C   UNL d   1     -46.654  12.999  22.860  0.00  0.00     0.043 A 
ATOM     13  C   UNL d   1     -46.000  12.597  22.564  0.00  0.00     0.004 A 
ATOM     14  C   UNL d   1     -45.330  13.013  22.342  0.00  0.00     0.000 A 
ATOM     15  C   UNL d   1     -45.314  13.835  22.416  0.00  0.00     0.000 A 
ATOM     16  C   UNL d   1     -45.968  14.238  22.712  0.00  0.00     0.000 A 
ATOM     17  C   UNL d   1     -46.642  13.817  22.935  0.00  0.00     0.004 A 
ENDBRANCH   5  12
TORSDOF 2
ENDMDL
MODEL 5
REMARK VINA RESULT:      -6.5      8.418     10.429
REMARK  2 active torsions:
REMARK  status: ('A' for Active; 'I' for Inactive)
REMARK    1  A    between atoms: C_6  and  C_4 
REMARK    2  A    between atoms: C_7  and  C_5 
ROOT
ATOM      1  O   UNL d   1     -39.659  14.446  18.524  0.00  0.00    -0.268 OA
ATOM      2  N   UNL d   1     -40.534  13.804  17.736  0.00  0.00    -0.121 NA
ATOM      3  N   UNL d   1     -40.940  14.050  18.417  0.00  0.00    -0.121 NA
ATOM      4  C   UNL d   1     -40.397  14.445  18.900  0.00  0.00     0.204 A 
ATOM      5  C   UNL d   1     -39.756  14.046  17.804  0.00  0.00     0.204 A 
ENDROOT
BRANCH   4   6
ATOM      6  C   UNL d   1     -40.559  14.787  19.640  0.00  0.00     0.046 A 
ATOM      7  C   UNL d   1     -40.485  14.343  20.327  0.00  0.00     0.024 A 
ATOM      8  C   UNL d   1     -40.644  14.682  21.051  0.00  0.00     0.099 A 
ATOM      9  N   UNL d   1     -40.881  15.471  21.096  0.00  0.00    -0.242 NA
ATOM     10  C   UNL d   1     -40.958  15.922  20.416  0.00  0.00     0.099 A 
ATOM     11  C   UNL d   1     -40.796  15.576  19.684  0.00  0.00     0.024 A 
ENDBRANCH   4   6
BRANCH   5  12
ATOM     12  C   UNL d   1     -39.152  13.916  17.245  0.00  0.00     0.043 A 
ATOM     13  C   UNL d   1     -38.647  13.272  17.326  0.00  0.00     0.004 A 
ATOM     14  C   UNL d   1     -38.054  13.145  16.776  0.00  0.00     0.000 A 
ATOM     15  C   UNL d   1     -37.965  13.666  16.141  0.00  0.00     0.000 A 
ATOM     16  C   UNL d   1     -38.470  14.311  16.060  0.00  0.00     0.000 A 
ATOM     17  C   UNL d   1     -39.067  14.437  16.615  0.00  0.00     0.004 A 
ENDBRANCH   5  12
TORSDOF 2
ENDMDL
MODEL 6
REMARK VINA RESULT:      -6.5      8.463      9.961
REMARK  2 active torsions:
REMARK  status: ('A' for Active; 'I' for Inactive)
REMARK    1  A    between atoms: C_6  and  C_4 
REMARK    2  A    between atoms: C_7  and  C_5 
ROOT
ATOM      1  O   UNL d   1     -39.666  14.460  18.522  0.00  0.00    -0.268 OA
ATOM      2  N   UNL d   1     -40.939  14.049  18.437  0.00  0.00    -0.121 NA
ATOM      3  N   UNL d   1     -40.543  13.789  17.755  0.00  0.00    -0.121 NA
ATOM      4  C   UNL d   1     -39.759  14.044  17.811  0.00  0.00     0.204 A 
ATOM      5  C   UNL d   1     -40.403  14.456  18.901  0.00  0.00     0.204 A 
ENDROOT
BRANCH   4   6
ATOM      6  C   UNL d   1     -39.160  13.910  17.251  0.00  0.00     0.046 A 
ATOM      7  C   UNL d   1     -38.663  13.259  17.323  0.00  0.00     0.024 A 
ATOM      8  C   UNL d   1     -38.077  13.131  16.772  0.00  0.00     0.099 A 
ATOM      9  N   UNL d   1     -37.980  13.654  16.141  0.00  0.00    -0.242 NA
ATOM     10  C   UNL d   1     -38.470  14.305  16.060  0.00  0.00     0.099 A 
ATOM     11  C   UNL d   1     -39.064  14.433  16.620  0.00  0.00     0.024 A 
ENDBRANCH   4   6
BRANCH   5  12
ATOM     12  C   UNL d   1     -40.563  14.812  19.636  0.00  0.00     0.043 A 
ATOM     13  C   UNL d   1     -40.394  14.411  20.335  0.00  0.00     0.004 A 
ATOM     14  C   UNL d   1     -40.552  14.763  21.057  0.00  0.00     0.000 A 
ATOM     15  C   UNL d   1     -40.881  15.520  21.082  0.00  0.00     0.000 A 
ATOM     16  C   UNL d   1     -41.050  15.922  20.384  0.00  0.00     0.000 A 
ATOM     17  C   UNL d   1     -40.890  15.566  19.656  0.00  0.00     0.004 A 
ENDBRANCH   5  12
TORSDOF 2
ENDMDL
