MODEL 1
REMARK VINA RESULT:      53.9      0.000      0.000
REMARK  6 active torsions:
REMARK  status: ('A' for Active; 'I' for Inactive)
REMARK    1  A    between atoms: C_6  and  C_1 
REMARK    2  A    between atoms: C_8  and  C_6 
REMARK    3  A    between atoms: O_14  and  C_10 
REMARK    4  A    between atoms: C_12  and  C_20 
REMARK    5  A    between atoms: O_21  and  C_12 
REMARK    6  A    between atoms: C_20  and  O_14 
ROOT
ATOM      1  C   UNL d   1     -50.871  26.414  33.546  0.00  0.00     0.141 A 
ATOM      2  C   UNL d   1     -49.761  27.021  33.988  0.00  0.00     0.105 A 
ATOM      3  O   UNL d   1     -50.102  26.276  33.818  0.00  0.00    -0.304 OA
ATOM      4  C   UNL d   1     -50.313  27.604  33.821  0.00  0.00     0.064 A 
ATOM      5  C   UNL d   1     -51.012  27.238  33.544  0.00  0.00     0.220 A 
ATOM      6  C   UNL d   1     -49.011  27.229  34.274  0.00  0.00     0.046 A 
ATOM      7  C   UNL d   1     -50.121  28.403  33.939  0.00  0.00     0.007 A 
ATOM      8  C   UNL d   1     -48.826  28.020  34.389  0.00  0.00     0.102 A 
ATOM      9  O   UNL d   1     -51.706  27.616  33.313  0.00  0.00    -0.284 OA
ATOM     10  C   UNL d   1     -49.378  28.603  34.223  0.00  0.00     0.025 A 
ATOM     11  C   UNL d   1     -48.456  26.642  34.442  0.00  0.00     0.004 C 
ENDROOT
BRANCH   1  12
ATOM     12  C   UNL d   1     -51.416  25.832  33.312  0.00  0.00     0.053 C 
BRANCH  12  13
ATOM     13  C   UNL d   1     -51.224  25.040  33.382  0.00  0.00     0.102 A 
ATOM     14  O   UNL d   1     -50.473  24.718  33.306  0.00  0.00    -0.305 OA
ATOM     15  C   UNL d   1     -50.531  23.902  33.419  0.00  0.00     0.123 A 
ATOM     16  C   UNL d   1     -51.327  23.722  33.565  0.00  0.00     0.029 A 
ATOM     17  C   UNL d   1     -51.748  24.422  33.542  0.00  0.00     0.027 A 
ENDBRANCH  12  13
ENDBRANCH   1  12
BRANCH   8  18
ATOM     18  O   UNL d   1     -48.083  28.229  34.674  0.00  0.00    -0.300 OA
BRANCH  18  19
ATOM     19  C   UNL d   1     -48.004  28.604  35.406  0.00  0.00     0.191 C 
BRANCH  19  20
ATOM     20  C   UNL d   1     -47.479  29.242  35.496  0.00  0.00     0.321 C 
ATOM     21  O   UNL d   1     -46.786  29.272  35.049  0.00  0.00    -0.257 OA
BRANCH  20  22
ATOM     22  O   UNL d   1     -47.647  29.840  36.024  0.00  0.00    -0.294 OA
ATOM     23  C   UNL d   1     -47.428  30.614  35.863  0.00  0.00     0.185 C 
ENDBRANCH  20  22
ENDBRANCH  19  20
ENDBRANCH  18  19
ENDBRANCH   8  18
TORSDOF 6
ENDMDL
MODEL 2
REMARK VINA RESULT:      56.4      1.558      5.680
REMARK  6 active torsions:
REMARK  status: ('A' for Active; 'I' for Inactive)
REMARK    1  A    between atoms: C_6  and  C_1 
REMARK    2  A    between atoms: C_8  and  C_6 
REMARK    3  A    between atoms: O_14  and  C_10 
REMARK    4  A    between atoms: C_12  and  C_20 
REMARK    5  A    between atoms: O_21  and  C_12 
REMARK    6  A    between atoms: C_20  and  O_14 
ROOT
ATOM      1  C   UNL d   1     -47.636  30.799  35.109  0.00  0.00     0.141 A 
ATOM      2  C   UNL d   1     -48.366  29.786  34.623  0.00  0.00     0.105 A 
ATOM      3  O   UNL d   1     -48.183  30.595  34.522  0.00  0.00    -0.304 OA
ATOM      4  C   UNL d   1     -47.939  29.499  35.261  0.00  0.00     0.064 A 
ATOM      5  C   UNL d   1     -47.478  30.123  35.575  0.00  0.00     0.220 A 
ATOM      6  C   UNL d   1     -48.875  29.282  34.204  0.00  0.00     0.046 A 
ATOM      7  C   UNL d   1     -48.015  28.705  35.488  0.00  0.00     0.007 A 
ATOM      8  C   UNL d   1     -48.946  28.497  34.432  0.00  0.00     0.102 A 
ATOM      9  O   UNL d   1     -46.966  30.080  36.218  0.00  0.00    -0.284 OA
ATOM     10  C   UNL d   1     -48.519  28.210  35.071  0.00  0.00     0.025 A 
ATOM     11  C   UNL d   1     -49.305  29.570  33.562  0.00  0.00     0.004 C 
ENDROOT
BRANCH   1  12
ATOM     12  C   UNL d   1     -47.298  31.549  35.220  0.00  0.00     0.053 C 
BRANCH  12  13
ATOM     13  C   UNL d   1     -47.460  32.153  34.693  0.00  0.00     0.102 A 
ATOM     14  O   UNL d   1     -48.143  32.610  34.679  0.00  0.00    -0.305 OA
ATOM     15  C   UNL d   1     -48.075  33.152  34.060  0.00  0.00     0.123 A 
ATOM     16  C   UNL d   1     -47.343  33.027  33.691  0.00  0.00     0.029 A 
ATOM     17  C   UNL d   1     -46.970  32.414  34.082  0.00  0.00     0.027 A 
ENDBRANCH  12  13
ENDBRANCH   1  12
BRANCH   8  18
ATOM     18  O   UNL d   1     -49.450  27.994  34.018  0.00  0.00    -0.300 OA
BRANCH  18  19
ATOM     19  C   UNL d   1     -49.534  27.204  34.246  0.00  0.00     0.191 C 
BRANCH  19  20
ATOM     20  C   UNL d   1     -49.955  26.673  33.766  0.00  0.00     0.321 C 
ATOM     21  O   UNL d   1     -49.548  26.122  33.306  0.00  0.00    -0.257 OA
BRANCH  20  22
ATOM     22  O   UNL d   1     -50.770  26.692  33.748  0.00  0.00    -0.294 OA
ATOM     23  C   UNL d   1     -51.192  26.126  33.332  0.00  0.00     0.185 C 
ENDBRANCH  20  22
ENDBRANCH  19  20
ENDBRANCH  18  19
ENDBRANCH   8  18
TORSDOF 6
ENDMDL
