MODEL 1
REMARK VINA RESULT:      15.2      0.000      0.000
REMARK  1 active torsions:
REMARK  status: ('A' for Active; 'I' for Inactive)
REMARK    1  A    between atoms: C_2  and  N_1 
ROOT
ATOM      1  C   UNL d   1      58.902  49.695  50.502  0.00  0.00     0.130 A 
ATOM      2  C   UNL d   1      58.435  49.691  51.149  0.00  0.00     0.067 A 
ATOM      3  C   UNL d   1      57.607  49.684  51.079  0.00  0.00     0.215 A 
ATOM      4  C   UNL d   1      57.263  49.680  50.329  0.00  0.00     0.120 A 
ATOM      5  C   UNL d   1      58.575  49.691  49.738  0.00  0.00     0.025 A 
ATOM      6  C   UNL d   1      57.755  49.684  49.647  0.00  0.00     0.022 A 
ATOM      7  N   UNL d   1      56.447  49.673  50.241  0.00  0.00    -0.241 NA
ATOM      8  O   UNL d   1      57.127  49.680  51.744  0.00  0.00    -0.285 OA
ATOM      9  C   UNL d   1      57.415  49.680  48.900  0.00  0.00     0.003 A 
ATOM     10  C   UNL d   1      56.120  49.670  49.478  0.00  0.00     0.099 A 
ATOM     11  C   UNL d   1      56.587  49.673  48.831  0.00  0.00     0.021 A 
ENDROOT
BRANCH   1  12
ATOM     12  N   UNL d   1      59.710  49.702  50.624  0.00  0.00    -0.114 N 
ATOM     13  O   UNL d   1      60.000  49.707  51.397  0.00  0.00    -0.532 OA
ATOM     14  O   UNL d   1      60.212  49.704  49.981  0.00  0.00    -0.532 OA
ENDBRANCH   1  12
TORSDOF 1
ENDMDL
