MODEL 1
REMARK VINA RESULT:      -0.6      0.000      0.000
REMARK  4 active torsions:
REMARK  status: ('A' for Active; 'I' for Inactive)
REMARK    1  A    between atoms: S_5  and  C_2 
REMARK    2  A    between atoms: C_14  and  S_5 
REMARK    3  A    between atoms: N_11  and  C_8 
REMARK    4  A    between atoms: C_15  and  N_11 
ROOT
ATOM      1  C   UNL d   1      58.728  -0.089  30.604  0.00  0.00     0.197 A 
ATOM      2  C   UNL d   1      58.402   0.092  31.338  0.00  0.00     0.227 A 
ATOM      3  N   UNL d   1      59.472   0.269  30.556  0.00  0.00    -0.192 N 
ATOM      4  N   UNL d   1      58.444  -0.537  29.966  0.00  0.00    -0.206 NA
ATOM      5  N   UNL d   1      58.947   0.567  31.752  0.00  0.00    -0.115 NA
ATOM      6  N   UNL d   1      59.609   0.675  31.263  0.00  0.00    -0.058 NA
ATOM      7  C   UNL d   1      58.903  -0.629  29.279  0.00  0.00     0.166 A 
ATOM      8  C   UNL d   1      59.645  -0.266  29.241  0.00  0.00     0.054 A 
ATOM      9  C   UNL d   1      59.935   0.181  29.871  0.00  0.00     0.089 A 
ATOM     10  C   UNL d   1      60.110  -0.353  28.557  0.00  0.00     0.005 A 
ATOM     11  C   UNL d   1      60.676   0.541  29.828  0.00  0.00     0.019 A 
ATOM     12  C   UNL d   1      60.849   0.005  28.513  0.00  0.00     0.000 A 
ATOM     13  C   UNL d   1      61.133   0.453  29.150  0.00  0.00     0.002 A 
ENDROOT
BRANCH   2  14
ATOM     14  S   UNL d   1      57.667  -0.150  31.623  0.00  0.00     0.231 S 
ATOM     15  O   UNL d   1      57.269   0.356  31.110  0.00  0.00    -0.215 OA
ATOM     16  O   UNL d   1      58.070  -0.657  32.137  0.00  0.00    -0.215 OA
BRANCH  14  17
ATOM     17  C   UNL d   1      56.962  -0.424  31.941  0.00  0.00     0.090 A 
ATOM     18  C   UNL d   1      56.436   0.105  32.289  0.00  0.00     0.011 A 
ATOM     19  C   UNL d   1      55.730  -0.160  32.609  0.00  0.00     0.001 A 
ATOM     20  C   UNL d   1      55.546  -0.969  32.581  0.00  0.00     0.000 A 
ATOM     21  C   UNL d   1      56.077  -1.498  32.230  0.00  0.00     0.001 A 
ATOM     22  C   UNL d   1      56.779  -1.227  31.912  0.00  0.00     0.011 A 
ENDBRANCH  14  17
ENDBRANCH   2  14
BRANCH   7  23
ATOM     23  N   UNL d   1      58.620  -1.074  28.645  0.00  0.00    -0.227 NA
BRANCH  23  24
ATOM     24  C   UNL d   1      58.601  -1.896  28.693  0.00  0.00     0.083 A 
ATOM     25  C   UNL d   1      59.284  -2.315  28.885  0.00  0.00     0.019 A 
ATOM     26  C   UNL d   1      59.264  -3.137  28.934  0.00  0.00     0.002 A 
ATOM     27  C   UNL d   1      59.947  -3.557  29.126  0.00  0.00     0.000 C 
ATOM     28  C   UNL d   1      58.556  -3.546  28.790  0.00  0.00     0.000 A 
ATOM     29  C   UNL d   1      57.870  -3.115  28.597  0.00  0.00     0.002 A 
ATOM     30  C   UNL d   1      57.896  -2.298  28.550  0.00  0.00     0.019 A 
ENDBRANCH  23  24
ENDBRANCH   7  23
TORSDOF 4
ENDMDL
MODEL 2
REMARK VINA RESULT:       2.0      1.282      2.961
REMARK  4 active torsions:
REMARK  status: ('A' for Active; 'I' for Inactive)
REMARK    1  A    between atoms: S_5  and  C_2 
REMARK    2  A    between atoms: C_14  and  S_5 
REMARK    3  A    between atoms: N_11  and  C_8 
REMARK    4  A    between atoms: C_15  and  N_11 
ROOT
ATOM      1  C   UNL d   1      57.462  -1.023  30.959  0.00  0.00     0.197 A 
ATOM      2  C   UNL d   1      56.902  -1.199  31.537  0.00  0.00     0.227 A 
ATOM      3  N   UNL d   1      57.546  -1.685  30.471  0.00  0.00    -0.192 N 
ATOM      4  N   UNL d   1      57.910  -0.341  30.812  0.00  0.00    -0.206 NA
ATOM      5  N   UNL d   1      56.635  -1.978  31.408  0.00  0.00    -0.115 NA
ATOM      6  N   UNL d   1      57.038  -2.275  30.745  0.00  0.00    -0.058 NA
ATOM      7  C   UNL d   1      58.444  -0.318  30.175  0.00  0.00     0.166 A 
ATOM      8  C   UNL d   1      58.522  -0.985  29.692  0.00  0.00     0.054 A 
ATOM      9  C   UNL d   1      58.079  -1.667  29.833  0.00  0.00     0.089 A 
ATOM     10  C   UNL d   1      59.053  -0.970  29.054  0.00  0.00     0.005 A 
ATOM     11  C   UNL d   1      58.160  -2.330  29.348  0.00  0.00     0.019 A 
ATOM     12  C   UNL d   1      59.135  -1.630  28.570  0.00  0.00     0.000 A 
ATOM     13  C   UNL d   1      58.688  -2.312  28.717  0.00  0.00     0.002 A 
ENDROOT
BRANCH   2  14
ATOM     14  S   UNL d   1      56.644  -0.701  32.141  0.00  0.00     0.231 S 
ATOM     15  O   UNL d   1      56.370  -0.142  31.604  0.00  0.00    -0.215 OA
ATOM     16  O   UNL d   1      56.920  -1.266  32.679  0.00  0.00    -0.215 OA
BRANCH  14  17
ATOM     17  C   UNL d   1      56.405  -0.243  32.779  0.00  0.00     0.090 A 
ATOM     18  C   UNL d   1      56.969   0.117  33.258  0.00  0.00     0.011 A 
ATOM     19  C   UNL d   1      56.740   0.577  33.897  0.00  0.00     0.001 A 
ATOM     20  C   UNL d   1      55.932   0.678  34.059  0.00  0.00     0.000 A 
ATOM     21  C   UNL d   1      55.367   0.314  33.575  0.00  0.00     0.001 A 
ATOM     22  C   UNL d   1      55.603  -0.143  32.939  0.00  0.00     0.011 A 
ENDBRANCH  14  17
ENDBRANCH   2  14
BRANCH   7  23
ATOM     23  N   UNL d   1      58.890   0.361  30.029  0.00  0.00    -0.227 NA
BRANCH  23  24
ATOM     24  C   UNL d   1      59.624   0.458  30.387  0.00  0.00     0.083 A 
ATOM     25  C   UNL d   1      59.679   0.521  31.208  0.00  0.00     0.019 A 
ATOM     26  C   UNL d   1      60.414   0.618  31.566  0.00  0.00     0.002 A 
ATOM     27  C   UNL d   1      60.469   0.681  32.386  0.00  0.00     0.000 C 
ATOM     28  C   UNL d   1      61.102   0.653  31.103  0.00  0.00     0.000 A 
ATOM     29  C   UNL d   1      61.039   0.589  30.275  0.00  0.00     0.002 A 
ATOM     30  C   UNL d   1      60.305   0.493  29.924  0.00  0.00     0.019 A 
ENDBRANCH  23  24
ENDBRANCH   7  23
TORSDOF 4
ENDMDL
