MODEL 1
REMARK VINA RESULT:      -9.3      0.000      0.000
REMARK  3 active torsions:
REMARK  status: ('A' for Active; 'I' for Inactive)
REMARK    1  A    between atoms: N_9  and  C_3 
REMARK    2  A    between atoms: C_12  and  C_5 
REMARK    3  A    between atoms: C_17  and  N_10 
ROOT
ATOM      1  N   UNL d   1      52.252  33.731  53.421  0.00  0.00    -0.196 N 
ATOM      2  C   UNL d   1      52.930  33.351  53.698  0.00  0.00     0.167 A 
ATOM      3  C   UNL d   1      51.709  33.320  52.960  0.00  0.00     0.152 A 
ATOM      4  N   UNL d   1      52.264  34.508  53.688  0.00  0.00    -0.163 NA
ATOM      5  C   UNL d   1      53.363  33.892  54.137  0.00  0.00     0.055 A 
ATOM      6  C   UNL d   1      52.957  34.604  54.134  0.00  0.00     0.104 A 
ATOM      7  N   UNL d   1      53.064  32.560  53.514  0.00  0.00    -0.227 NA
ATOM      8  C   UNL d   1      51.840  32.522  52.771  0.00  0.00     0.057 A 
ATOM      9  C   UNL d   1      52.518  32.142  53.049  0.00  0.00     0.086 A 
ATOM     10  C   UNL d   1      53.194  35.300  54.508  0.00  0.00     0.023 C 
ATOM     11  C   UNL d   1      52.654  31.345  52.864  0.00  0.00     0.021 C 
ENDROOT
BRANCH   3  12
ATOM     12  N   UNL d   1      51.024  33.703  52.680  0.00  0.00    -0.286 N 
ATOM     13  C   UNL d   1      51.009  34.010  51.908  0.00  0.00     0.101 A 
ATOM     14  C   UNL d   1      50.332  34.390  51.630  0.00  0.00     0.100 A 
ATOM     15  N   UNL d   1      49.669  34.463  52.125  0.00  0.00    -0.301 N 
ATOM     16  C   UNL d   1      49.687  34.158  52.889  0.00  0.00     0.100 A 
ATOM     17  C   UNL d   1      50.365  33.778  53.166  0.00  0.00     0.101 A 
BRANCH  15  18
ATOM     18  C   UNL d   1      48.988  34.845  51.847  0.00  0.00     0.064 A 
ATOM     19  C   UNL d   1      48.674  34.646  51.111  0.00  0.00     0.018 A 
ATOM     20  C   UNL d   1      48.004  35.113  50.986  0.00  0.00     0.002 A 
ATOM     21  C   UNL d   1      47.908  35.596  51.643  0.00  0.00     0.002 A 
ATOM     22  C   UNL d   1      48.506  35.436  52.171  0.00  0.00     0.018 A 
ENDBRANCH  15  18
ENDBRANCH   3  12
BRANCH   5  23
ATOM     23  C   UNL d   1      54.076  33.831  54.542  0.00  0.00     0.004 A 
ATOM     24  C   UNL d   1      54.081  33.603  55.343  0.00  0.00     0.000 A 
ATOM     25  C   UNL d   1      54.795  33.542  55.748  0.00  0.00     0.000 A 
ATOM     26  C   UNL d   1      55.507  33.706  55.363  0.00  0.00     0.000 A 
ATOM     27  C   UNL d   1      55.507  33.932  54.570  0.00  0.00     0.000 A 
ATOM     28  C   UNL d   1      54.788  33.995  54.158  0.00  0.00     0.000 A 
ENDBRANCH   5  23
TORSDOF 3
ENDMDL
