MODEL 1
REMARK VINA RESULT:      14.4      0.000      0.000
REMARK  3 active torsions:
REMARK  status: ('A' for Active; 'I' for Inactive)
REMARK    1  A    between atoms: N_2  and  C_1 
REMARK    2  A    between atoms: N_3  and  C_1 
REMARK       I    between atoms: C_4  and  N_2 
REMARK    3  A    between atoms: C_9  and  C_4 
ROOT
ATOM      1  C   UNL d   1      46.024 -17.385  44.235  0.00  0.00     0.209 C 
ATOM      2  S   UNL d   1      45.789 -17.710  44.954  0.00  0.00    -0.038 SA
ENDROOT
BRANCH   1   3
ATOM      3  N   UNL d   1      46.103 -16.561  44.170  0.00  0.00    -0.180 NA
ATOM      4  C   UNL d   1      45.542 -16.074  44.532  0.00  0.00     0.281 C 
ATOM      5  O   UNL d   1      44.910 -16.398  44.955  0.00  0.00    -0.265 OA
BRANCH   4   6
ATOM      6  C   UNL d   1      45.615 -15.257  44.471  0.00  0.00     0.058 A 
ATOM      7  C   UNL d   1      45.123 -14.828  43.957  0.00  0.00     0.005 A 
ATOM      8  C   UNL d   1      45.193 -14.013  43.893  0.00  0.00     0.000 A 
ATOM      9  C   UNL d   1      45.764 -13.614  44.349  0.00  0.00     0.000 A 
ATOM     10  C   UNL d   1      46.255 -14.038  44.861  0.00  0.00     0.000 A 
ATOM     11  C   UNL d   1      46.176 -14.857  44.918  0.00  0.00     0.005 A 
ENDBRANCH   4   6
ENDBRANCH   1   3
BRANCH   1  12
ATOM     12  N   UNL d   1      46.179 -17.867  43.592  0.00  0.00    -0.281 N 
ATOM     13  C   UNL d   1      46.372 -18.663  43.713  0.00  0.00     0.082 A 
ATOM     14  C   UNL d   1      46.529 -19.151  43.057  0.00  0.00     0.019 A 
ATOM     15  C   UNL d   1      46.492 -18.842  42.294  0.00  0.00     0.003 A 
ATOM     16  C   UNL d   1      46.300 -18.052  42.180  0.00  0.00     0.019 A 
ATOM     17  C   UNL d   1      46.647 -19.324  41.647  0.00  0.00     0.000 C 
ATOM     18  C   UNL d   1      46.143 -17.562  42.828  0.00  0.00     0.082 A 
ENDBRANCH   1  12
TORSDOF 3
ENDMDL
MODEL 2
REMARK VINA RESULT:      14.7      0.833      4.072
REMARK  3 active torsions:
REMARK  status: ('A' for Active; 'I' for Inactive)
REMARK    1  A    between atoms: N_2  and  C_1 
REMARK    2  A    between atoms: N_3  and  C_1 
REMARK       I    between atoms: C_4  and  N_2 
REMARK    3  A    between atoms: C_9  and  C_4 
ROOT
ATOM      1  C   UNL d   1      45.765 -16.500  44.251  0.00  0.00     0.209 C 
ATOM      2  S   UNL d   1      45.635 -16.905  44.955  0.00  0.00    -0.038 SA
ENDROOT
BRANCH   1   3
ATOM      3  N   UNL d   1      45.941 -16.931  43.563  0.00  0.00    -0.180 NA
ATOM      4  C   UNL d   1      46.116 -17.736  43.626  0.00  0.00     0.281 C 
ATOM      5  O   UNL d   1      46.117 -18.112  44.363  0.00  0.00    -0.265 OA
BRANCH   4   6
ATOM      6  C   UNL d   1      46.291 -18.167  42.948  0.00  0.00     0.058 A 
ATOM      7  C   UNL d   1      46.471 -18.976  42.999  0.00  0.00     0.005 A 
ATOM      8  C   UNL d   1      46.646 -19.409  42.324  0.00  0.00     0.000 A 
ATOM      9  C   UNL d   1      46.642 -19.031  41.582  0.00  0.00     0.000 A 
ATOM     10  C   UNL d   1      46.463 -18.226  41.529  0.00  0.00     0.000 A 
ATOM     11  C   UNL d   1      46.289 -17.801  42.213  0.00  0.00     0.005 A 
ENDBRANCH   4   6
ENDBRANCH   1   3
BRANCH   1  12
ATOM     12  N   UNL d   1      45.722 -15.683  44.228  0.00  0.00    -0.281 N 
ATOM     13  C   UNL d   1      45.040 -15.301  44.500  0.00  0.00     0.082 A 
ATOM     14  C   UNL d   1      44.999 -14.469  44.476  0.00  0.00     0.019 A 
ATOM     15  C   UNL d   1      45.634 -14.033  44.182  0.00  0.00     0.003 A 
ATOM     16  C   UNL d   1      46.308 -14.418  43.914  0.00  0.00     0.019 A 
ATOM     17  C   UNL d   1      45.593 -13.213  44.158  0.00  0.00     0.000 C 
ATOM     18  C   UNL d   1      46.354 -15.244  43.936  0.00  0.00     0.082 A 
ENDBRANCH   1  12
TORSDOF 3
ENDMDL
