MODEL 1
REMARK VINA RESULT:      80.9      0.000      0.000
REMARK  7 active torsions:
REMARK  status: ('A' for Active; 'I' for Inactive)
REMARK    1  A    between atoms: C_4  and  C_1 
REMARK    2  A    between atoms: N_5  and  C_3 
REMARK    3  A    between atoms: C_9  and  C_4 
REMARK       I    between atoms: C_7  and  N_5 
REMARK    4  A    between atoms: C_10  and  C_7 
REMARK       I    between atoms: N_19  and  C_9 
REMARK    5  A    between atoms: C_21  and  N_19 
REMARK    6  A    between atoms: C_24  and  C_21 
REMARK    7  A    between atoms: C_23  and  C_24 
ROOT
ATOM      1  C   UNL d   1     -56.039 -99.592 -44.305  0.00  0.00     0.144 C 
ATOM      2  C   UNL d   1     -56.692 -99.174 -44.028  0.00  0.00     0.107 C 
ATOM      3  N   UNL d   1     -57.341 -98.763 -43.747  0.00  0.00    -0.191 NA
ENDROOT
BRANCH   1   4
ATOM      4  C   UNL d   1     -55.764-100.264 -43.899  0.00  0.00     0.097 A 
ATOM      5  N   UNL d   1     -55.755-100.429 -43.090  0.00  0.00    -0.226 NA
ATOM      6  C   UNL d   1     -55.420-101.176 -42.984  0.00  0.00     0.166 A 
ATOM      7  C   UNL d   1     -55.222-101.475 -43.726  0.00  0.00     0.037 A 
ATOM      8  C   UNL d   1     -55.431-100.915 -44.299  0.00  0.00     0.021 A 
ATOM      9  C   UNL d   1     -54.875-102.186 -43.961  0.00  0.00     0.003 A 
ATOM     10  C   UNL d   1     -55.296-101.066 -45.094  0.00  0.00     0.002 A 
ATOM     11  C   UNL d   1     -54.951-101.775 -45.329  0.00  0.00     0.000 A 
ATOM     12  C   UNL d   1     -54.741-102.335 -44.756  0.00  0.00     0.000 A 
BRANCH   6  13
ATOM     13  N   UNL d   1     -55.290-101.585 -42.291  0.00  0.00    -0.189 NA
ATOM     14  C   UNL d   1     -55.278-101.297 -41.509  0.00  0.00     0.286 C 
ATOM     15  O   UNL d   1     -55.413-100.494 -41.385  0.00  0.00    -0.265 OA
BRANCH  14  16
ATOM     16  C   UNL d   1     -55.137-101.792 -40.866  0.00  0.00     0.087 A 
ATOM     17  S   UNL d   1     -55.107-101.480 -40.102  0.00  0.00    -0.082 SA
ATOM     18  C   UNL d   1     -54.958-102.105 -39.583  0.00  0.00     0.036 A 
ATOM     19  C   UNL d   1     -54.896-102.800 -40.026  0.00  0.00     0.008 A 
ATOM     20  C   UNL d   1     -55.006-102.606 -40.818  0.00  0.00     0.012 A 
ENDBRANCH  14  16
ENDBRANCH   6  13
ENDBRANCH   1   4
BRANCH   1  21
ATOM     21  C   UNL d   1     -55.652 -99.342 -44.993  0.00  0.00     0.290 C 
ATOM     22  O   UNL d   1     -54.833 -99.265 -45.001  0.00  0.00    -0.264 OA
ATOM     23  N   UNL d   1     -56.083 -99.172 -45.669  0.00  0.00    -0.206 NA
BRANCH  23  24
ATOM     24  C   UNL d   1     -56.902 -99.249 -45.661  0.00  0.00     0.102 C 
BRANCH  24  25
ATOM     25  C   UNL d   1     -57.516 -98.888 -45.248  0.00  0.00     0.021 C 
BRANCH  25  26
ATOM     26  C   UNL d   1     -58.299 -99.035 -45.457  0.00  0.00     0.002 A 
ATOM     27  C   UNL d   1     -58.849 -99.249 -44.878  0.00  0.00     0.000 A 
ATOM     28  C   UNL d   1     -59.633 -99.395 -45.093  0.00  0.00     0.000 A 
ATOM     29  C   UNL d   1     -59.875 -99.330 -45.882  0.00  0.00     0.000 A 
ATOM     30  C   UNL d   1     -59.311 -99.113 -46.460  0.00  0.00     0.000 A 
ATOM     31  C   UNL d   1     -58.534 -98.967 -46.250  0.00  0.00     0.000 A 
ENDBRANCH  25  26
ENDBRANCH  24  25
ENDBRANCH  23  24
ENDBRANCH   1  21
TORSDOF 7
ENDMDL
