MODEL 1
REMARK VINA RESULT:      -7.1      0.000      0.000
REMARK  6 active torsions:
REMARK  status: ('A' for Active; 'I' for Inactive)
REMARK    1  A    between atoms: C_3  and  N_1 
REMARK       I    between atoms: C_4  and  N_1 
REMARK    2  A    between atoms: C_6  and  N_1 
REMARK    3  A    between atoms: N_2  and  C_3 
REMARK    4  A    between atoms: C_7  and  C_4 
REMARK    5  A    between atoms: O_14  and  C_16 
REMARK    6  A    between atoms: C_24  and  O_14 
ROOT
ATOM      1  N   UNL d   1     -48.427  13.782  22.993  0.00  0.00    -0.258 N 
ATOM      2  C   UNL d   1     -47.646  14.061  22.980  0.00  0.00     0.266 C 
ATOM      3  O   UNL d   1     -47.483  14.817  22.985  0.00  0.00    -0.267 OA
ENDROOT
BRANCH   1   4
ATOM      4  C   UNL d   1     -48.584  12.970  22.987  0.00  0.00     0.171 C 
BRANCH   4   5
ATOM      5  N   UNL d   1     -49.053  12.519  22.480  0.00  0.00    -0.257 N 
ATOM      6  C   UNL d   1     -49.487  11.845  22.670  0.00  0.00     0.266 A 
ATOM      7  O   UNL d   1     -49.531  11.491  23.421  0.00  0.00    -0.267 OA
ATOM      8  C   UNL d   1     -49.876  11.576  21.983  0.00  0.00     0.063 A 
ATOM      9  C   UNL d   1     -49.680  12.089  21.364  0.00  0.00     0.024 A 
ATOM     10  C   UNL d   1     -49.174  12.673  21.660  0.00  0.00     0.085 A 
ENDBRANCH   4   5
ENDBRANCH   1   4
BRANCH   1  11
ATOM     11  C   UNL d   1     -49.059  14.319  23.011  0.00  0.00     0.068 A 
ATOM     12  C   UNL d   1     -49.523  14.393  23.696  0.00  0.00     0.018 A 
ATOM     13  C   UNL d   1     -50.143  14.928  23.698  0.00  0.00     0.002 A 
ATOM     14  C   UNL d   1     -50.308  15.384  23.044  0.00  0.00     0.000 A 
ATOM     15  C   UNL d   1     -49.851  15.311  22.368  0.00  0.00     0.002 A 
ATOM     16  C   UNL d   1     -50.935  15.920  23.055  0.00  0.00     0.000 C 
ATOM     17  C   UNL d   1     -49.227  14.783  22.344  0.00  0.00     0.018 A 
ENDBRANCH   1  11
BRANCH   2  18
ATOM     18  C   UNL d   1     -47.029  13.517  22.963  0.00  0.00     0.057 A 
ATOM     19  C   UNL d   1     -46.810  13.117  23.648  0.00  0.00     0.007 A 
ATOM     20  C   UNL d   1     -46.198  12.575  23.638  0.00  0.00     0.025 A 
ATOM     21  C   UNL d   1     -45.792  12.426  22.933  0.00  0.00     0.100 A 
ATOM     22  C   UNL d   1     -46.015  12.834  22.235  0.00  0.00     0.025 A 
ATOM     23  C   UNL d   1     -46.627  13.372  22.257  0.00  0.00     0.007 A 
BRANCH  21  24
ATOM     24  O   UNL d   1     -45.188  11.892  22.921  0.00  0.00    -0.307 OA
BRANCH  24  25
ATOM     25  C   UNL d   1     -45.266  11.160  23.299  0.00  0.00     0.100 C 
ATOM     26  C   UNL d   1     -46.011  10.818  23.371  0.00  0.00     0.027 C 
ATOM     27  C   UNL d   1     -44.603  10.774  23.602  0.00  0.00     0.027 C 
ENDBRANCH  24  25
ENDBRANCH  21  24
ENDBRANCH   2  18
TORSDOF 6
ENDMDL
MODEL 2
REMARK VINA RESULT:      -6.7      0.937      4.121
REMARK  6 active torsions:
REMARK  status: ('A' for Active; 'I' for Inactive)
REMARK    1  A    between atoms: C_3  and  N_1 
REMARK       I    between atoms: C_4  and  N_1 
REMARK    2  A    between atoms: C_6  and  N_1 
REMARK    3  A    between atoms: N_2  and  C_3 
REMARK    4  A    between atoms: C_7  and  C_4 
REMARK    5  A    between atoms: O_14  and  C_16 
REMARK    6  A    between atoms: C_24  and  O_14 
ROOT
ATOM      1  N   UNL d   1     -47.282  13.267  22.954  0.00  0.00    -0.258 N 
ATOM      2  C   UNL d   1     -47.214  14.094  22.936  0.00  0.00     0.266 C 
ATOM      3  O   UNL d   1     -46.526  14.447  22.931  0.00  0.00    -0.267 OA
ENDROOT
BRANCH   1   4
ATOM      4  C   UNL d   1     -48.027  12.907  22.959  0.00  0.00     0.171 C 
BRANCH   4   5
ATOM      5  N   UNL d   1     -48.382  12.405  22.408  0.00  0.00    -0.257 N 
ATOM      6  C   UNL d   1     -48.920  11.800  22.560  0.00  0.00     0.266 A 
ATOM      7  O   UNL d   1     -49.207  11.582  23.310  0.00  0.00    -0.267 OA
ATOM      8  C   UNL d   1     -49.129  11.442  21.836  0.00  0.00     0.063 A 
ATOM      9  C   UNL d   1     -48.716  11.830  21.234  0.00  0.00     0.024 A 
ATOM     10  C   UNL d   1     -48.253  12.424  21.576  0.00  0.00     0.085 A 
ENDBRANCH   4   5
ENDBRANCH   1   4
BRANCH   1  11
ATOM     11  C   UNL d   1     -46.600  12.796  22.966  0.00  0.00     0.068 A 
ATOM     12  C   UNL d   1     -46.504  12.219  23.557  0.00  0.00     0.018 A 
ATOM     13  C   UNL d   1     -45.824  11.762  23.556  0.00  0.00     0.002 A 
ATOM     14  C   UNL d   1     -45.249  11.863  22.989  0.00  0.00     0.000 A 
ATOM     15  C   UNL d   1     -45.344  12.431  22.407  0.00  0.00     0.002 A 
ATOM     16  C   UNL d   1     -44.568  11.397  22.996  0.00  0.00     0.000 C 
ATOM     17  C   UNL d   1     -46.014  12.900  22.389  0.00  0.00     0.018 A 
ENDBRANCH   1  11
BRANCH   2  18
ATOM     18  C   UNL d   1     -47.898  14.550  22.924  0.00  0.00     0.057 A 
ATOM     19  C   UNL d   1     -48.401  14.559  23.576  0.00  0.00     0.007 A 
ATOM     20  C   UNL d   1     -49.083  15.010  23.571  0.00  0.00     0.025 A 
ATOM     21  C   UNL d   1     -49.273  15.463  22.905  0.00  0.00     0.100 A 
ATOM     22  C   UNL d   1     -48.760  15.453  22.241  0.00  0.00     0.025 A 
ATOM     23  C   UNL d   1     -48.083  15.000  22.258  0.00  0.00     0.007 A 
BRANCH  21  24
ATOM     24  O   UNL d   1     -49.945  15.908  22.898  0.00  0.00    -0.307 OA
BRANCH  24  25
ATOM     25  C   UNL d   1     -50.688  15.550  22.963  0.00  0.00     0.100 C 
ATOM     26  C   UNL d   1     -51.060  15.518  23.696  0.00  0.00     0.027 C 
ATOM     27  C   UNL d   1     -51.055  15.227  22.299  0.00  0.00     0.027 C 
ENDBRANCH  24  25
ENDBRANCH  21  24
ENDBRANCH   2  18
TORSDOF 6
ENDMDL
MODEL 3
REMARK VINA RESULT:      -5.0      8.814      9.839
REMARK  6 active torsions:
REMARK  status: ('A' for Active; 'I' for Inactive)
REMARK    1  A    between atoms: C_3  and  N_1 
REMARK       I    between atoms: C_4  and  N_1 
REMARK    2  A    between atoms: C_6  and  N_1 
REMARK    3  A    between atoms: N_2  and  C_3 
REMARK    4  A    between atoms: C_7  and  C_4 
REMARK    5  A    between atoms: O_14  and  C_16 
REMARK    6  A    between atoms: C_24  and  O_14 
ROOT
ATOM      1  N   UNL d   1     -39.919  15.106  18.705  0.00  0.00    -0.258 N 
ATOM      2  C   UNL d   1     -40.186  15.255  19.476  0.00  0.00     0.266 C 
ATOM      3  O   UNL d   1     -40.904  15.507  19.618  0.00  0.00    -0.267 OA
ENDROOT
BRANCH   1   4
ATOM      4  C   UNL d   1     -39.148  14.838  18.572  0.00  0.00     0.171 C 
BRANCH   4   5
ATOM      5  N   UNL d   1     -38.875  14.189  18.141  0.00  0.00    -0.257 N 
ATOM      6  C   UNL d   1     -38.326  14.194  17.526  0.00  0.00     0.266 A 
ATOM      7  O   UNL d   1     -37.942  14.868  17.224  0.00  0.00    -0.267 OA
ATOM      8  C   UNL d   1     -38.220  13.413  17.258  0.00  0.00     0.063 A 
ATOM      9  C   UNL d   1     -38.707  12.921  17.710  0.00  0.00     0.024 A 
ATOM     10  C   UNL d   1     -39.114  13.389  18.257  0.00  0.00     0.085 A 
ENDBRANCH   4   5
ENDBRANCH   1   4
BRANCH   1  11
ATOM     11  C   UNL d   1     -40.427  15.227  18.061  0.00  0.00     0.068 A 
ATOM     12  C   UNL d   1     -40.239  15.794  17.483  0.00  0.00     0.018 A 
ATOM     13  C   UNL d   1     -40.751  15.901  16.853  0.00  0.00     0.002 A 
ATOM     14  C   UNL d   1     -41.434  15.463  16.786  0.00  0.00     0.000 A 
ATOM     15  C   UNL d   1     -41.619  14.904  17.355  0.00  0.00     0.002 A 
ATOM     16  C   UNL d   1     -41.943  15.577  16.146  0.00  0.00     0.000 C 
ATOM     17  C   UNL d   1     -41.122  14.780  17.993  0.00  0.00     0.018 A 
ENDBRANCH   1  11
BRANCH   2  18
ATOM     18  C   UNL d   1     -39.672  15.132  20.107  0.00  0.00     0.057 A 
ATOM     19  C   UNL d   1     -39.054  15.657  20.245  0.00  0.00     0.007 A 
ATOM     20  C   UNL d   1     -38.539  15.540  20.870  0.00  0.00     0.025 A 
ATOM     21  C   UNL d   1     -38.638  14.890  21.370  0.00  0.00     0.100 A 
ATOM     22  C   UNL d   1     -39.269  14.355  21.228  0.00  0.00     0.025 A 
ATOM     23  C   UNL d   1     -39.776  14.481  20.603  0.00  0.00     0.007 A 
BRANCH  21  24
ATOM     24  O   UNL d   1     -38.132  14.773  21.986  0.00  0.00    -0.307 OA
BRANCH  24  25
ATOM     25  C   UNL d   1     -38.405  14.804  22.766  0.00  0.00     0.100 C 
ATOM     26  C   UNL d   1     -38.725  14.128  23.110  0.00  0.00     0.027 C 
ATOM     27  C   UNL d   1     -38.358  15.505  23.198  0.00  0.00     0.027 C 
ENDBRANCH  24  25
ENDBRANCH  21  24
ENDBRANCH   2  18
TORSDOF 6
ENDMDL
MODEL 4
REMARK VINA RESULT:      -4.7      7.126      8.999
REMARK  6 active torsions:
REMARK  status: ('A' for Active; 'I' for Inactive)
REMARK    1  A    between atoms: C_3  and  N_1 
REMARK       I    between atoms: C_4  and  N_1 
REMARK    2  A    between atoms: C_6  and  N_1 
REMARK    3  A    between atoms: N_2  and  C_3 
REMARK    4  A    between atoms: C_7  and  C_4 
REMARK    5  A    between atoms: O_14  and  C_16 
REMARK    6  A    between atoms: C_24  and  O_14 
ROOT
ATOM      1  N   UNL d   1     -40.092  15.070  19.320  0.00  0.00    -0.258 N 
ATOM      2  C   UNL d   1     -39.276  14.933  19.381  0.00  0.00     0.266 C 
ATOM      3  O   UNL d   1     -38.823  14.882  18.757  0.00  0.00    -0.267 OA
ENDROOT
BRANCH   1   4
ATOM      4  C   UNL d   1     -40.562  15.122  19.998  0.00  0.00     0.171 C 
BRANCH   4   5
ATOM      5  N   UNL d   1     -41.153  14.619  20.280  0.00  0.00    -0.257 N 
ATOM      6  C   UNL d   1     -41.816  14.828  20.722  0.00  0.00     0.266 A 
ATOM      7  O   UNL d   1     -42.012  15.597  20.970  0.00  0.00    -0.267 OA
ATOM      8  C   UNL d   1     -42.257  14.139  20.881  0.00  0.00     0.063 A 
ATOM      9  C   UNL d   1     -41.863  13.500  20.533  0.00  0.00     0.024 A 
ATOM     10  C   UNL d   1     -41.182  13.785  20.161  0.00  0.00     0.085 A 
ENDBRANCH   4   5
ENDBRANCH   1   4
BRANCH   1  11
ATOM     11  C   UNL d   1     -40.442  15.157  18.573  0.00  0.00     0.068 A 
ATOM     12  C   UNL d   1     -40.857  15.852  18.387  0.00  0.00     0.018 A 
ATOM     13  C   UNL d   1     -41.197  15.922  17.644  0.00  0.00     0.002 A 
ATOM     14  C   UNL d   1     -41.135  15.325  17.094  0.00  0.00     0.000 A 
ATOM     15  C   UNL d   1     -40.726  14.640  17.278  0.00  0.00     0.002 A 
ATOM     16  C   UNL d   1     -41.481  15.405  16.349  0.00  0.00     0.000 C 
ATOM     17  C   UNL d   1     -40.378  14.549  18.013  0.00  0.00     0.018 A 
ENDBRANCH   1  11
BRANCH   2  18
ATOM     18  C   UNL d   1     -38.941  14.849  20.128  0.00  0.00     0.057 A 
ATOM     19  C   UNL d   1     -38.662  14.116  20.376  0.00  0.00     0.007 A 
ATOM     20  C   UNL d   1     -38.328  14.025  21.117  0.00  0.00     0.025 A 
ATOM     21  C   UNL d   1     -38.269  14.675  21.625  0.00  0.00     0.100 A 
ATOM     22  C   UNL d   1     -38.554  15.422  21.371  0.00  0.00     0.025 A 
ATOM     23  C   UNL d   1     -38.885  15.501  20.631  0.00  0.00     0.007 A 
BRANCH  21  24
ATOM     24  O   UNL d   1     -37.940  14.588  22.355  0.00  0.00    -0.307 OA
BRANCH  24  25
ATOM     25  C   UNL d   1     -38.377  14.263  22.978  0.00  0.00     0.100 C 
ATOM     26  C   UNL d   1     -38.459  13.446  23.033  0.00  0.00     0.027 C 
ATOM     27  C   UNL d   1     -38.731  14.753  23.540  0.00  0.00     0.027 C 
ENDBRANCH  24  25
ENDBRANCH  21  24
ENDBRANCH   2  18
TORSDOF 6
ENDMDL
