MODEL 1
REMARK VINA RESULT:      -7.0      0.000      0.000
REMARK  5 active torsions:
REMARK  status: ('A' for Active; 'I' for Inactive)
REMARK    1  A    between atoms: N_2  and  S_1 
REMARK    2  A    between atoms: C_3  and  S_1 
REMARK    3  A    between atoms: C_6  and  C_4 
REMARK    4  A    between atoms: O_15  and  C_6 
REMARK    5  A    between atoms: C_18  and  O_15 
ROOT
ATOM      1  N   UNL d   1     -48.362  12.612  22.945  0.00  0.00    -0.229 N 
ATOM      2  C   UNL d   1     -46.959  12.676  23.158  0.00  0.00     0.082 A 
ATOM      3  C   UNL d   1     -47.649  12.995  22.839  0.00  0.00     0.097 A 
ATOM      4  C   UNL d   1     -48.397  11.907  23.372  0.00  0.00     0.092 A 
ATOM      5  C   UNL d   1     -46.982  11.976  23.584  0.00  0.00     0.008 A 
ATOM      6  C   UNL d   1     -47.703  11.590  23.691  0.00  0.00     0.020 A 
ENDROOT
BRANCH   1   7
ATOM      7  S   UNL d   1     -49.052  12.930  22.626  0.00  0.00     0.277 S 
ATOM      8  O   UNL d   1     -49.234  13.268  23.355  0.00  0.00    -0.199 OA
ATOM      9  O   UNL d   1     -48.870  12.591  21.895  0.00  0.00    -0.199 OA
BRANCH   7  10
ATOM     10  C   UNL d   1     -49.743  13.249  22.306  0.00  0.00     0.133 A 
ATOM     11  S   UNL d   1     -50.240  13.897  22.321  0.00  0.00    -0.074 SA
ATOM     12  C   UNL d   1     -50.859  13.764  21.789  0.00  0.00     0.036 A 
ATOM     13  C   UNL d   1     -50.731  13.019  21.448  0.00  0.00     0.008 A 
ATOM     14  C   UNL d   1     -50.042  12.701  21.767  0.00  0.00     0.020 A 
ENDBRANCH   7  10
ENDBRANCH   1   7
BRANCH   2  15
ATOM     15  C   UNL d   1     -46.238  13.069  23.047  0.00  0.00     0.302 C 
ATOM     16  O   UNL d   1     -46.043  13.725  23.504  0.00  0.00    -0.259 OA
BRANCH  15  17
ATOM     17  O   UNL d   1     -45.711  12.799  22.472  0.00  0.00    -0.271 OA
BRANCH  17  18
ATOM     18  C   UNL d   1     -45.095  13.278  22.220  0.00  0.00     0.126 C 
ATOM     19  C   UNL d   1     -44.516  12.976  21.714  0.00  0.00     0.029 C 
ENDBRANCH  17  18
ENDBRANCH  15  17
ENDBRANCH   2  15
TORSDOF 5
ENDMDL
MODEL 2
REMARK VINA RESULT:      -6.6      1.086      1.668
REMARK  5 active torsions:
REMARK  status: ('A' for Active; 'I' for Inactive)
REMARK    1  A    between atoms: N_2  and  S_1 
REMARK    2  A    between atoms: C_3  and  S_1 
REMARK    3  A    between atoms: C_6  and  C_4 
REMARK    4  A    between atoms: O_15  and  C_6 
REMARK    5  A    between atoms: C_18  and  O_15 
ROOT
ATOM      1  N   UNL d   1     -47.997  13.821  22.536  0.00  0.00    -0.229 N 
ATOM      2  C   UNL d   1     -46.682  13.383  22.846  0.00  0.00     0.082 A 
ATOM      3  C   UNL d   1     -47.462  13.214  22.640  0.00  0.00     0.097 A 
ATOM      4  C   UNL d   1     -47.763  14.606  22.637  0.00  0.00     0.092 A 
ATOM      5  C   UNL d   1     -46.438  14.159  22.950  0.00  0.00     0.008 A 
ATOM      6  C   UNL d   1     -46.980  14.772  22.844  0.00  0.00     0.020 A 
ENDROOT
BRANCH   1   7
ATOM      7  S   UNL d   1     -48.777  13.652  22.329  0.00  0.00     0.277 S 
ATOM      8  O   UNL d   1     -49.034  13.951  23.053  0.00  0.00    -0.199 OA
ATOM      9  O   UNL d   1     -48.519  13.353  21.603  0.00  0.00    -0.199 OA
BRANCH   7  10
ATOM     10  C   UNL d   1     -49.558  13.483  22.121  0.00  0.00     0.133 A 
ATOM     11  S   UNL d   1     -50.216  13.773  21.734  0.00  0.00    -0.074 SA
ATOM     12  C   UNL d   1     -50.819  13.209  21.787  0.00  0.00     0.036 A 
ATOM     13  C   UNL d   1     -50.516  12.567  22.215  0.00  0.00     0.008 A 
ATOM     14  C   UNL d   1     -49.737  12.736  22.422  0.00  0.00     0.020 A 
ENDBRANCH   7  10
ENDBRANCH   1   7
BRANCH   2  15
ATOM     15  C   UNL d   1     -46.143  12.762  22.950  0.00  0.00     0.302 C 
ATOM     16  O   UNL d   1     -45.410  12.776  22.576  0.00  0.00    -0.259 OA
BRANCH  15  17
ATOM     17  O   UNL d   1     -46.344  12.124  23.435  0.00  0.00    -0.271 OA
BRANCH  17  18
ATOM     18  C   UNL d   1     -45.831  11.490  23.514  0.00  0.00     0.126 C 
ATOM     19  C   UNL d   1     -46.125  10.740  23.698  0.00  0.00     0.029 C 
ENDBRANCH  17  18
ENDBRANCH  15  17
ENDBRANCH   2  15
TORSDOF 5
ENDMDL
MODEL 3
REMARK VINA RESULT:      -6.4      1.459      3.896
REMARK  5 active torsions:
REMARK  status: ('A' for Active; 'I' for Inactive)
REMARK    1  A    between atoms: N_2  and  S_1 
REMARK    2  A    between atoms: C_3  and  S_1 
REMARK    3  A    between atoms: C_6  and  C_4 
REMARK    4  A    between atoms: O_15  and  C_6 
REMARK    5  A    between atoms: C_18  and  O_15 
ROOT
ATOM      1  N   UNL d   1     -48.631  12.794  22.736  0.00  0.00    -0.229 N 
ATOM      2  C   UNL d   1     -49.983  13.230  22.726  0.00  0.00     0.082 A 
ATOM      3  C   UNL d   1     -49.178  13.397  22.673  0.00  0.00     0.097 A 
ATOM      4  C   UNL d   1     -48.880  12.016  22.853  0.00  0.00     0.092 A 
ATOM      5  C   UNL d   1     -50.242  12.460  22.842  0.00  0.00     0.008 A 
ATOM      6  C   UNL d   1     -49.689  11.851  22.906  0.00  0.00     0.020 A 
ENDROOT
BRANCH   1   7
ATOM      7  S   UNL d   1     -47.826  12.961  22.684  0.00  0.00     0.277 S 
ATOM      8  O   UNL d   1     -47.793  13.060  23.501  0.00  0.00    -0.199 OA
ATOM      9  O   UNL d   1     -47.859  12.861  21.864  0.00  0.00    -0.199 OA
BRANCH   7  10
ATOM     10  C   UNL d   1     -47.019  13.128  22.631  0.00  0.00     0.133 A 
ATOM     11  S   UNL d   1     -46.297  12.829  22.394  0.00  0.00    -0.074 SA
ATOM     12  C   UNL d   1     -45.716  13.398  22.546  0.00  0.00     0.036 A 
ATOM     13  C   UNL d   1     -46.099  14.054  22.881  0.00  0.00     0.008 A 
ATOM     14  C   UNL d   1     -46.904  13.887  22.934  0.00  0.00     0.020 A 
ENDBRANCH   7  10
ENDBRANCH   1   7
BRANCH   2  15
ATOM     15  C   UNL d   1     -50.534  13.846  22.661  0.00  0.00     0.302 C 
ATOM     16  O   UNL d   1     -50.999  13.922  21.987  0.00  0.00    -0.259 OA
BRANCH  15  17
ATOM     17  O   UNL d   1     -50.615  14.387  23.279  0.00  0.00    -0.271 OA
BRANCH  17  18
ATOM     18  C   UNL d   1     -51.064  15.064  23.177  0.00  0.00     0.126 C 
ATOM     19  C   UNL d   1     -50.981  15.700  23.698  0.00  0.00     0.029 C 
ENDBRANCH  17  18
ENDBRANCH  15  17
ENDBRANCH   2  15
TORSDOF 5
ENDMDL
MODEL 4
REMARK VINA RESULT:      -6.1      1.594      3.825
REMARK  5 active torsions:
REMARK  status: ('A' for Active; 'I' for Inactive)
REMARK    1  A    between atoms: N_2  and  S_1 
REMARK    2  A    between atoms: C_3  and  S_1 
REMARK    3  A    between atoms: C_6  and  C_4 
REMARK    4  A    between atoms: O_15  and  C_6 
REMARK    5  A    between atoms: C_18  and  O_15 
ROOT
ATOM      1  N   UNL d   1     -47.307  13.662  22.878  0.00  0.00    -0.229 N 
ATOM      2  C   UNL d   1     -48.411  14.543  22.726  0.00  0.00     0.082 A 
ATOM      3  C   UNL d   1     -48.110  13.803  22.926  0.00  0.00     0.097 A 
ATOM      4  C   UNL d   1     -46.794  14.257  22.628  0.00  0.00     0.092 A 
ATOM      5  C   UNL d   1     -47.910  15.142  22.476  0.00  0.00     0.008 A 
ATOM      6  C   UNL d   1     -47.099  14.999  22.428  0.00  0.00     0.020 A 
ENDROOT
BRANCH   1   7
ATOM      7  S   UNL d   1     -47.006  12.922  23.078  0.00  0.00     0.277 S 
ATOM      8  O   UNL d   1     -46.583  13.262  23.698  0.00  0.00    -0.199 OA
ATOM      9  O   UNL d   1     -47.430  12.581  22.457  0.00  0.00    -0.199 OA
BRANCH   7  10
ATOM     10  C   UNL d   1     -46.704  12.180  23.279  0.00  0.00     0.133 A 
ATOM     11  S   UNL d   1     -46.018  11.741  23.343  0.00  0.00    -0.074 SA
ATOM     12  C   UNL d   1     -46.217  10.982  23.604  0.00  0.00     0.036 A 
ATOM     13  C   UNL d   1     -47.041  10.964  23.698  0.00  0.00     0.008 A 
ATOM     14  C   UNL d   1     -47.342  11.704  23.497  0.00  0.00     0.020 A 
ENDBRANCH   7  10
ENDBRANCH   1   7
BRANCH   2  15
ATOM     15  C   UNL d   1     -49.227  14.680  22.777  0.00  0.00     0.302 C 
ATOM     16  O   UNL d   1     -49.523  15.264  23.276  0.00  0.00    -0.259 OA
BRANCH  15  17
ATOM     17  O   UNL d   1     -49.746  14.226  22.322  0.00  0.00    -0.271 OA
BRANCH  17  18
ATOM     18  C   UNL d   1     -50.544  14.410  22.303  0.00  0.00     0.126 C 
ATOM     19  C   UNL d   1     -51.059  13.974  21.826  0.00  0.00     0.029 C 
ENDBRANCH  17  18
ENDBRANCH  15  17
ENDBRANCH   2  15
TORSDOF 5
ENDMDL
MODEL 5
REMARK VINA RESULT:      -5.2      8.599      9.581
REMARK  5 active torsions:
REMARK  status: ('A' for Active; 'I' for Inactive)
REMARK    1  A    between atoms: N_2  and  S_1 
REMARK    2  A    between atoms: C_3  and  S_1 
REMARK    3  A    between atoms: C_6  and  C_4 
REMARK    4  A    between atoms: O_15  and  C_6 
REMARK    5  A    between atoms: C_18  and  O_15 
ROOT
ATOM      1  N   UNL d   1     -39.912  14.737  19.016  0.00  0.00    -0.229 N 
ATOM      2  C   UNL d   1     -40.136  14.869  17.619  0.00  0.00     0.082 A 
ATOM      3  C   UNL d   1     -40.181  15.176  18.383  0.00  0.00     0.097 A 
ATOM      4  C   UNL d   1     -39.595  13.985  18.897  0.00  0.00     0.092 A 
ATOM      5  C   UNL d   1     -39.823  14.122  17.489  0.00  0.00     0.008 A 
ATOM      6  C   UNL d   1     -39.551  13.679  18.130  0.00  0.00     0.020 A 
ENDROOT
BRANCH   1   7
ATOM      7  S   UNL d   1     -39.957  15.045  19.779  0.00  0.00     0.277 S 
ATOM      8  O   UNL d   1     -39.248  15.448  19.658  0.00  0.00    -0.199 OA
ATOM      9  O   UNL d   1     -40.667  14.640  19.900  0.00  0.00    -0.199 OA
BRANCH   7  10
ATOM     10  C   UNL d   1     -40.001  15.353  20.544  0.00  0.00     0.133 A 
ATOM     11  S   UNL d   1     -40.452  15.816  21.044  0.00  0.00    -0.074 SA
ATOM     12  C   UNL d   1     -40.074  15.850  21.779  0.00  0.00     0.036 A 
ATOM     13  C   UNL d   1     -39.381  15.397  21.719  0.00  0.00     0.008 A 
ATOM     14  C   UNL d   1     -39.337  15.090  20.955  0.00  0.00     0.020 A 
ENDBRANCH   7  10
ENDBRANCH   1   7
BRANCH   2  15
ATOM     15  C   UNL d   1     -40.411  15.319  16.980  0.00  0.00     0.302 C 
ATOM     16  O   UNL d   1     -39.884  15.722  16.494  0.00  0.00    -0.259 OA
BRANCH  15  17
ATOM     17  O   UNL d   1     -41.223  15.364  16.832  0.00  0.00    -0.271 OA
BRANCH  17  18
ATOM     18  C   UNL d   1     -41.515  15.922  16.308  0.00  0.00     0.126 C 
ATOM     19  C   UNL d   1     -42.314  15.916  16.099  0.00  0.00     0.029 C 
ENDBRANCH  17  18
ENDBRANCH  15  17
ENDBRANCH   2  15
TORSDOF 5
ENDMDL
MODEL 6
REMARK VINA RESULT:      -5.1      8.310      9.862
REMARK  5 active torsions:
REMARK  status: ('A' for Active; 'I' for Inactive)
REMARK    1  A    between atoms: N_2  and  S_1 
REMARK    2  A    between atoms: C_3  and  S_1 
REMARK    3  A    between atoms: C_6  and  C_4 
REMARK    4  A    between atoms: O_15  and  C_6 
REMARK    5  A    between atoms: C_18  and  O_15 
ROOT
ATOM      1  N   UNL d   1     -40.458  15.241  18.155  0.00  0.00    -0.229 N 
ATOM      2  C   UNL d   1     -39.696  15.279  16.957  0.00  0.00     0.082 A 
ATOM      3  C   UNL d   1     -39.745  15.151  17.770  0.00  0.00     0.097 A 
ATOM      4  C   UNL d   1     -41.134  15.460  17.736  0.00  0.00     0.092 A 
ATOM      5  C   UNL d   1     -40.362  15.497  16.530  0.00  0.00     0.008 A 
ATOM      6  C   UNL d   1     -41.083  15.588  16.921  0.00  0.00     0.020 A 
ENDROOT
BRANCH   1   7
ATOM      7  S   UNL d   1     -40.507  15.112  18.968  0.00  0.00     0.277 S 
ATOM      8  O   UNL d   1     -40.430  15.922  19.100  0.00  0.00    -0.199 OA
ATOM      9  O   UNL d   1     -40.583  14.301  18.835  0.00  0.00    -0.199 OA
BRANCH   7  10
ATOM     10  C   UNL d   1     -40.555  14.984  19.782  0.00  0.00     0.133 A 
ATOM     11  S   UNL d   1     -40.530  14.409  20.362  0.00  0.00    -0.074 SA
ATOM     12  C   UNL d   1     -40.633  14.776  21.097  0.00  0.00     0.036 A 
ATOM     13  C   UNL d   1     -40.722  15.588  20.954  0.00  0.00     0.008 A 
ATOM     14  C   UNL d   1     -40.674  15.717  20.142  0.00  0.00     0.020 A 
ENDBRANCH   7  10
ENDBRANCH   1   7
BRANCH   2  15
ATOM     15  C   UNL d   1     -38.969  15.187  16.571  0.00  0.00     0.302 C 
ATOM     16  O   UNL d   1     -38.398  15.778  16.606  0.00  0.00    -0.259 OA
BRANCH  15  17
ATOM     17  O   UNL d   1     -38.817  14.494  16.148  0.00  0.00    -0.271 OA
BRANCH  17  18
ATOM     18  C   UNL d   1     -38.122  14.417  15.720  0.00  0.00     0.126 C 
ATOM     19  C   UNL d   1     -37.940  13.700  15.352  0.00  0.00     0.029 C 
ENDBRANCH  17  18
ENDBRANCH  15  17
ENDBRANCH   2  15
TORSDOF 5
ENDMDL
MODEL 7
REMARK VINA RESULT:      -5.0      8.658      9.587
REMARK  5 active torsions:
REMARK  status: ('A' for Active; 'I' for Inactive)
REMARK    1  A    between atoms: N_2  and  S_1 
REMARK    2  A    between atoms: C_3  and  S_1 
REMARK    3  A    between atoms: C_6  and  C_4 
REMARK    4  A    between atoms: O_15  and  C_6 
REMARK    5  A    between atoms: C_18  and  O_15 
ROOT
ATOM      1  N   UNL d   1     -39.830  14.706  20.472  0.00  0.00    -0.229 N 
ATOM      2  C   UNL d   1     -40.265  14.791  19.122  0.00  0.00     0.082 A 
ATOM      3  C   UNL d   1     -39.861  14.392  19.719  0.00  0.00     0.097 A 
ATOM      4  C   UNL d   1     -40.201  15.424  20.639  0.00  0.00     0.092 A 
ATOM      5  C   UNL d   1     -40.637  15.506  19.278  0.00  0.00     0.008 A 
ATOM      6  C   UNL d   1     -40.605  15.823  20.038  0.00  0.00     0.020 A 
ENDROOT
BRANCH   1   7
ATOM      7  S   UNL d   1     -39.426  14.307  21.068  0.00  0.00     0.277 S 
ATOM      8  O   UNL d   1     -38.725  14.674  20.840  0.00  0.00    -0.199 OA
ATOM      9  O   UNL d   1     -40.129  13.939  21.297  0.00  0.00    -0.199 OA
BRANCH   7  10
ATOM     10  C   UNL d   1     -39.022  13.906  21.667  0.00  0.00     0.133 A 
ATOM     11  S   UNL d   1     -39.039  13.713  22.460  0.00  0.00    -0.074 SA
ATOM     12  C   UNL d   1     -38.368  13.260  22.633  0.00  0.00     0.036 A 
ATOM     13  C   UNL d   1     -37.940  13.179  21.927  0.00  0.00     0.008 A 
ATOM     14  C   UNL d   1     -38.344  13.579  21.330  0.00  0.00     0.020 A 
ENDBRANCH   7  10
ENDBRANCH   1   7
BRANCH   2  15
ATOM     15  C   UNL d   1     -40.294  14.467  18.360  0.00  0.00     0.302 C 
ATOM     16  O   UNL d   1     -40.911  13.970  18.138  0.00  0.00    -0.259 OA
BRANCH  15  17
ATOM     17  O   UNL d   1     -39.696  14.645  17.818  0.00  0.00    -0.271 OA
BRANCH  17  18
ATOM     18  C   UNL d   1     -39.691  14.290  17.080  0.00  0.00     0.126 C 
ATOM     19  C   UNL d   1     -39.089  14.463  16.541  0.00  0.00     0.029 C 
ENDBRANCH  17  18
ENDBRANCH  15  17
ENDBRANCH   2  15
TORSDOF 5
ENDMDL
MODEL 8
REMARK VINA RESULT:      -5.0      8.323      9.190
REMARK  5 active torsions:
REMARK  status: ('A' for Active; 'I' for Inactive)
REMARK    1  A    between atoms: N_2  and  S_1 
REMARK    2  A    between atoms: C_3  and  S_1 
REMARK    3  A    between atoms: C_6  and  C_4 
REMARK    4  A    between atoms: O_15  and  C_6 
REMARK    5  A    between atoms: C_18  and  O_15 
ROOT
ATOM      1  N   UNL d   1     -40.330  15.346  19.749  0.00  0.00    -0.229 N 
ATOM      2  C   UNL d   1     -39.964  15.375  21.121  0.00  0.00     0.082 A 
ATOM      3  C   UNL d   1     -39.794  15.174  20.340  0.00  0.00     0.097 A 
ATOM      4  C   UNL d   1     -41.043  15.720  19.927  0.00  0.00     0.092 A 
ATOM      5  C   UNL d   1     -40.670  15.747  21.310  0.00  0.00     0.008 A 
ATOM      6  C   UNL d   1     -41.211  15.921  20.712  0.00  0.00     0.020 A 
ENDROOT
BRANCH   1   7
ATOM      7  S   UNL d   1     -40.159  15.145  18.968  0.00  0.00     0.277 S 
ATOM      8  O   UNL d   1     -40.611  14.461  19.045  0.00  0.00    -0.199 OA
ATOM      9  O   UNL d   1     -39.706  15.832  18.890  0.00  0.00    -0.199 OA
BRANCH   7  10
ATOM     10  C   UNL d   1     -39.989  14.944  18.185  0.00  0.00     0.133 A 
ATOM     11  S   UNL d   1     -39.946  15.235  17.423  0.00  0.00    -0.074 SA
ATOM     12  C   UNL d   1     -39.713  14.620  16.922  0.00  0.00     0.036 A 
ATOM     13  C   UNL d   1     -39.614  13.945  17.393  0.00  0.00     0.008 A 
ATOM     14  C   UNL d   1     -39.784  14.145  18.174  0.00  0.00     0.020 A 
ENDBRANCH   7  10
ENDBRANCH   1   7
BRANCH   2  15
ATOM     15  C   UNL d   1     -39.417  15.198  21.718  0.00  0.00     0.302 C 
ATOM     16  O   UNL d   1     -38.928  15.784  22.026  0.00  0.00    -0.259 OA
BRANCH  15  17
ATOM     17  O   UNL d   1     -39.362  14.425  22.004  0.00  0.00    -0.271 OA
BRANCH  17  18
ATOM     18  C   UNL d   1     -38.820  14.241  22.591  0.00  0.00     0.126 C 
ATOM     19  C   UNL d   1     -38.766  13.469  22.878  0.00  0.00     0.029 C 
ENDBRANCH  17  18
ENDBRANCH  15  17
ENDBRANCH   2  15
TORSDOF 5
ENDMDL
MODEL 9
REMARK VINA RESULT:      -4.7      9.039      9.743
REMARK  5 active torsions:
REMARK  status: ('A' for Active; 'I' for Inactive)
REMARK    1  A    between atoms: N_2  and  S_1 
REMARK    2  A    between atoms: C_3  and  S_1 
REMARK    3  A    between atoms: C_6  and  C_4 
REMARK    4  A    between atoms: O_15  and  C_6 
REMARK    5  A    between atoms: C_18  and  O_15 
ROOT
ATOM      1  N   UNL d   1     -39.325  14.209  18.201  0.00  0.00    -0.229 N 
ATOM      2  C   UNL d   1     -38.648  13.935  19.419  0.00  0.00     0.082 A 
ATOM      3  C   UNL d   1     -39.168  14.399  18.979  0.00  0.00     0.097 A 
ATOM      4  C   UNL d   1     -38.966  13.554  17.851  0.00  0.00     0.092 A 
ATOM      5  C   UNL d   1     -38.285  13.282  19.081  0.00  0.00     0.008 A 
ATOM      6  C   UNL d   1     -38.444  13.091  18.295  0.00  0.00     0.020 A 
ENDROOT
BRANCH   1   7
ATOM      7  S   UNL d   1     -39.846  14.672  17.761  0.00  0.00     0.277 S 
ATOM      8  O   UNL d   1     -40.449  14.129  17.903  0.00  0.00    -0.199 OA
ATOM      9  O   UNL d   1     -39.241  15.216  17.619  0.00  0.00    -0.199 OA
BRANCH   7  10
ATOM     10  C   UNL d   1     -40.367  15.137  17.320  0.00  0.00     0.133 A 
ATOM     11  S   UNL d   1     -40.494  15.471  16.586  0.00  0.00    -0.074 SA
ATOM     12  C   UNL d   1     -41.209  15.886  16.608  0.00  0.00     0.036 A 
ATOM     13  C   UNL d   1     -41.518  15.800  17.373  0.00  0.00     0.008 A 
ATOM     14  C   UNL d   1     -40.997  15.337  17.813  0.00  0.00     0.020 A 
ENDBRANCH   7  10
ENDBRANCH   1   7
BRANCH   2  15
ATOM     15  C   UNL d   1     -38.492  14.133  20.209  0.00  0.00     0.302 C 
ATOM     16  O   UNL d   1     -37.940  14.714  20.395  0.00  0.00    -0.259 OA
BRANCH  15  17
ATOM     17  O   UNL d   1     -38.896  13.742  20.814  0.00  0.00    -0.271 OA
BRANCH  17  18
ATOM     18  C   UNL d   1     -38.794  13.974  21.594  0.00  0.00     0.126 C 
ATOM     19  C   UNL d   1     -39.214  13.597  22.197  0.00  0.00     0.029 C 
ENDBRANCH  17  18
ENDBRANCH  15  17
ENDBRANCH   2  15
TORSDOF 5
ENDMDL
