MODEL 1
REMARK VINA RESULT:      70.2      0.000      0.000
REMARK  5 active torsions:
REMARK  status: ('A' for Active; 'I' for Inactive)
REMARK    1  A    between atoms: C_10  and  N_3 
REMARK    2  A    between atoms: C_14  and  N_6 
REMARK    3  A    between atoms: C_9  and  C_7 
REMARK    4  A    between atoms: O_23  and  C_20 
REMARK    5  A    between atoms: C_26  and  O_23 
ROOT
ATOM      1  C   UNL d   1      45.857 -18.001  41.722  0.00  0.00     0.105 A 
ATOM      2  C   UNL d   1      45.925 -18.755  41.358  0.00  0.00     0.186 A 
ATOM      3  N   UNL d   1      45.644 -17.871  40.408  0.00  0.00    -0.240 N 
ATOM      4  C   UNL d   1      45.794 -18.653  40.572  0.00  0.00     0.292 A 
ATOM      5  C   UNL d   1      45.684 -17.457  41.137  0.00  0.00     0.271 A 
ATOM      6  N   UNL d   1      46.142 -18.897  42.689  0.00  0.00    -0.212 N 
ATOM      7  C   UNL d   1      45.992 -18.121  42.521  0.00  0.00     0.100 A 
ATOM      8  O   UNL d   1      46.100 -19.315  41.945  0.00  0.00    -0.223 OA
ATOM      9  O   UNL d   1      45.573 -16.647  41.269  0.00  0.00    -0.266 OA
ATOM     10  O   UNL d   1      45.809 -19.258  40.009  0.00  0.00    -0.264 OA
ENDROOT
BRANCH   3  11
ATOM     11  C   UNL d   1      45.485 -17.559  39.660  0.00  0.00     0.070 A 
ATOM     12  C   UNL d   1      46.073 -17.147  39.264  0.00  0.00     0.020 A 
ATOM     13  C   UNL d   1      45.929 -16.827  38.511  0.00  0.00     0.026 A 
ATOM     14  C   UNL d   1      45.178 -16.932  38.166  0.00  0.00     0.100 A 
ATOM     15  C   UNL d   1      44.596 -17.340  38.560  0.00  0.00     0.026 A 
ATOM     16  C   UNL d   1      44.761 -17.647  39.302  0.00  0.00     0.020 A 
BRANCH  14  17
ATOM     17  O   UNL d   1      45.012 -16.623  37.420  0.00  0.00    -0.305 OA
BRANCH  17  18
ATOM     18  C   UNL d   1      44.590 -15.916  37.363  0.00  0.00     0.123 C 
ATOM     19  C   UNL d   1      44.346 -15.633  36.636  0.00  0.00     0.029 C 
ENDBRANCH  17  18
ENDBRANCH  14  17
ENDBRANCH   3  11
BRANCH   7  20
ATOM     20  C   UNL d   1      45.977 -17.516  43.084  0.00  0.00     0.048 A 
ATOM     21  S   UNL d   1      46.463 -16.815  43.109  0.00  0.00    -0.085 SA
ATOM     22  C   UNL d   1      46.234 -16.397  43.770  0.00  0.00     0.035 A 
ATOM     23  C   UNL d   1      45.645 -16.775  44.164  0.00  0.00     0.007 A 
ATOM     24  C   UNL d   1      45.472 -17.492  43.736  0.00  0.00     0.009 A 
ENDBRANCH   7  20
BRANCH   6  25
ATOM     25  C   UNL d   1      46.301 -19.207  43.442  0.00  0.00     0.088 A 
ATOM     26  C   UNL d   1      46.480 -20.003  43.538  0.00  0.00     0.020 A 
ATOM     27  C   UNL d   1      46.641 -20.319  44.296  0.00  0.00     0.002 A 
ATOM     28  C   UNL d   1      46.618 -19.815  44.953  0.00  0.00     0.000 A 
ATOM     29  C   UNL d   1      46.437 -19.011  44.853  0.00  0.00     0.002 A 
ATOM     30  C   UNL d   1      46.280 -18.716  44.092  0.00  0.00     0.020 A 
ENDBRANCH   6  25
TORSDOF 5
ENDMDL
