MODEL 1
REMARK VINA RESULT:      -6.2      0.000      0.000
REMARK  3 active torsions:
REMARK  status: ('A' for Active; 'I' for Inactive)
REMARK    1  A    between atoms: C_2  and  C_1 
REMARK       I    between atoms: N_5  and  C_2 
REMARK    2  A    between atoms: C_10  and  N_5 
REMARK    3  A    between atoms: O_16  and  C_11 
ROOT
ATOM      1  C   UNL d   1     -41.510-122.655 -51.700  0.00  0.00     0.281 C 
ATOM      2  N   UNL d   1     -41.806-123.274 -51.247  0.00  0.00    -0.208 NA
ATOM      3  O   UNL d   1     -41.212-121.979 -51.331  0.00  0.00    -0.265 OA
ENDROOT
BRANCH   1   4
ATOM      4  C   UNL d   1     -41.506-122.700 -52.524  0.00  0.00     0.083 A 
ATOM      5  C   UNL d   1     -41.871-122.112 -52.979  0.00  0.00     0.009 A 
ATOM      6  C   UNL d   1     -41.861-122.166 -53.810  0.00  0.00     0.023 A 
ATOM      7  C   UNL d   1     -42.224-121.583 -54.263  0.00  0.00     0.002 A 
ATOM      8  C   UNL d   1     -41.484-122.814 -54.183  0.00  0.00     0.100 A 
ATOM      9  C   UNL d   1     -42.210-121.644 -55.088  0.00  0.00     0.000 A 
ATOM     10  C   UNL d   1     -41.839-122.282 -55.456  0.00  0.00     0.002 A 
ATOM     11  C   UNL d   1     -41.477-122.865 -55.002  0.00  0.00     0.025 A 
ATOM     12  O   UNL d   1     -41.123-123.397 -53.730  0.00  0.00    -0.305 OA
ATOM     13  C   UNL d   1     -41.129-123.347 -52.897  0.00  0.00     0.127 A 
ENDBRANCH   1   4
BRANCH   2  14
ATOM     14  C   UNL d   1     -41.806-123.221 -50.422  0.00  0.00     0.085 A 
ATOM     15  C   UNL d   1     -42.445-122.873 -50.034  0.00  0.00     0.021 A 
ATOM     16  C   UNL d   1     -42.443-122.821 -49.213  0.00  0.00     0.026 A 
ATOM     17  C   UNL d   1     -41.812-123.114 -48.786  0.00  0.00     0.094 A 
ATOM     18  C   UNL d   1     -41.169-123.464 -49.172  0.00  0.00     0.026 A 
ATOM     19  C   UNL d   1     -41.178-123.512 -49.998  0.00  0.00     0.021 A 
BRANCH  17  20
ATOM     20  O   UNL d   1     -41.803-123.065 -47.961  0.00  0.00    -0.328 OA
ATOM     21  C   UNL d   1     -42.199-123.617 -47.508  0.00  0.00     0.181 C 
ENDBRANCH  17  20
ENDBRANCH   2  14
TORSDOF 3
ENDMDL
MODEL 2
REMARK VINA RESULT:      -5.4      0.788      4.913
REMARK  3 active torsions:
REMARK  status: ('A' for Active; 'I' for Inactive)
REMARK    1  A    between atoms: C_2  and  C_1 
REMARK       I    between atoms: N_5  and  C_2 
REMARK    2  A    between atoms: C_10  and  N_5 
REMARK    3  A    between atoms: O_16  and  C_11 
ROOT
ATOM      1  C   UNL d   1     -41.776-122.931 -51.359  0.00  0.00     0.281 C 
ATOM      2  N   UNL d   1     -41.268-123.306 -51.886  0.00  0.00    -0.208 NA
ATOM      3  O   UNL d   1     -42.303-122.357 -51.631  0.00  0.00    -0.265 OA
ENDROOT
BRANCH   1   4
ATOM      4  C   UNL d   1     -41.767-123.123 -50.556  0.00  0.00     0.083 A 
ATOM      5  C   UNL d   1     -42.374-122.864 -50.055  0.00  0.00     0.009 A 
ATOM      6  C   UNL d   1     -42.355-123.063 -49.247  0.00  0.00     0.023 A 
ATOM      7  C   UNL d   1     -42.957-122.807 -48.748  0.00  0.00     0.002 A 
ATOM      8  C   UNL d   1     -41.724-123.522 -48.943  0.00  0.00     0.100 A 
ATOM      9  C   UNL d   1     -42.932-123.008 -47.946  0.00  0.00     0.000 A 
ATOM     10  C   UNL d   1     -42.310-123.461 -47.646  0.00  0.00     0.002 A 
ATOM     11  C   UNL d   1     -41.708-123.716 -48.146  0.00  0.00     0.025 A 
ATOM     12  O   UNL d   1     -41.123-123.778 -49.442  0.00  0.00    -0.305 OA
ATOM     13  C   UNL d   1     -41.136-123.582 -50.252  0.00  0.00     0.127 A 
ENDBRANCH   1   4
BRANCH   2  14
ATOM     14  C   UNL d   1     -41.283-123.109 -52.689  0.00  0.00     0.085 A 
ATOM     15  C   UNL d   1     -41.123-122.335 -52.924  0.00  0.00     0.021 A 
ATOM     16  C   UNL d   1     -41.139-122.141 -53.723  0.00  0.00     0.026 A 
ATOM     17  C   UNL d   1     -41.313-122.712 -54.279  0.00  0.00     0.094 A 
ATOM     18  C   UNL d   1     -41.475-123.489 -54.048  0.00  0.00     0.026 A 
ATOM     19  C   UNL d   1     -41.457-123.677 -53.242  0.00  0.00     0.021 A 
BRANCH  17  20
ATOM     20  O   UNL d   1     -41.331-122.524 -55.085  0.00  0.00    -0.328 OA
ATOM     21  C   UNL d   1     -41.870-121.983 -55.373  0.00  0.00     0.181 C 
ENDBRANCH  17  20
ENDBRANCH   2  14
TORSDOF 3
ENDMDL
MODEL 3
REMARK VINA RESULT:      -3.4      0.874      1.206
REMARK  3 active torsions:
REMARK  status: ('A' for Active; 'I' for Inactive)
REMARK    1  A    between atoms: C_2  and  C_1 
REMARK       I    between atoms: N_5  and  C_2 
REMARK    2  A    between atoms: C_10  and  N_5 
REMARK    3  A    between atoms: O_16  and  C_11 
ROOT
ATOM      1  C   UNL d   1     -41.733-122.709 -52.189  0.00  0.00     0.281 C 
ATOM      2  N   UNL d   1     -41.999-122.270 -51.546  0.00  0.00    -0.208 NA
ATOM      3  O   UNL d   1     -41.379-123.444 -52.069  0.00  0.00    -0.265 OA
ENDROOT
BRANCH   1   4
ATOM      4  C   UNL d   1     -41.815-122.421 -52.958  0.00  0.00     0.083 A 
ATOM      5  C   UNL d   1     -41.480-122.828 -53.598  0.00  0.00     0.009 A 
ATOM      6  C   UNL d   1     -41.569-122.529 -54.370  0.00  0.00     0.023 A 
ATOM      7  C   UNL d   1     -41.237-122.932 -55.006  0.00  0.00     0.002 A 
ATOM      8  C   UNL d   1     -41.996-121.821 -54.499  0.00  0.00     0.100 A 
ATOM      9  C   UNL d   1     -41.330-122.630 -55.770  0.00  0.00     0.000 A 
ATOM     10  C   UNL d   1     -41.750-121.931 -55.897  0.00  0.00     0.002 A 
ATOM     11  C   UNL d   1     -42.082-121.529 -55.261  0.00  0.00     0.025 A 
ATOM     12  O   UNL d   1     -42.328-121.418 -53.862  0.00  0.00    -0.305 OA
ATOM     13  C   UNL d   1     -42.242-121.712 -53.087  0.00  0.00     0.127 A 
ENDBRANCH   1   4
BRANCH   2  14
ATOM     14  C   UNL d   1     -41.912-122.565 -50.778  0.00  0.00     0.085 A 
ATOM     15  C   UNL d   1     -42.354-123.218 -50.538  0.00  0.00     0.021 A 
ATOM     16  C   UNL d   1     -42.266-123.510 -49.774  0.00  0.00     0.026 A 
ATOM     17  C   UNL d   1     -41.744-123.154 -49.258  0.00  0.00     0.094 A 
ATOM     18  C   UNL d   1     -41.299-122.498 -49.495  0.00  0.00     0.026 A 
ATOM     19  C   UNL d   1     -41.393-122.210 -50.265  0.00  0.00     0.021 A 
BRANCH  17  20
ATOM     20  O   UNL d   1     -41.651-123.442 -48.488  0.00  0.00    -0.328 OA
ATOM     21  C   UNL d   1     -42.291-123.728 -48.071  0.00  0.00     0.181 C 
ENDBRANCH  17  20
ENDBRANCH   2  14
TORSDOF 3
ENDMDL
