MODEL 1
REMARK VINA RESULT:      39.4      0.000      0.000
REMARK  5 active torsions:
REMARK  status: ('A' for Active; 'I' for Inactive)
REMARK    1  A    between atoms: C_6  and  C_1 
REMARK    2  A    between atoms: C_9  and  C_5 
REMARK       I    between atoms: N_13  and  C_6 
REMARK    3  A    between atoms: C_7  and  C_15 
REMARK    4  A    between atoms: N_10  and  N_13 
REMARK    5  A    between atoms: C_15  and  N_10 
ROOT
ATOM      1  C   UNL d   1      45.153 -17.249  39.277  0.00  0.00     0.316 C 
ATOM      2  N   UNL d   1      44.817 -17.642  38.457  0.00  0.00    -0.104 NA
ATOM      3  O   UNL d   1      45.092 -16.432  39.339  0.00  0.00    -0.262 OA
ENDROOT
BRANCH   1   4
ATOM      4  C   UNL d   1      45.484 -17.675  39.893  0.00  0.00     0.164 A 
ATOM      5  C   UNL d   1      44.996 -18.012  40.461  0.00  0.00     0.047 A 
ATOM      6  C   UNL d   1      46.127 -18.528  41.132  0.00  0.00     0.105 A 
ATOM      7  N   UNL d   1      46.614 -18.191  40.564  0.00  0.00    -0.148 NA
ATOM      8  N   UNL d   1      46.292 -17.763  39.942  0.00  0.00    -0.143 NA
BRANCH   6   9
ATOM      9  C   UNL d   1      46.244 -18.977  41.806  0.00  0.00     0.019 A 
ATOM     10  C   UNL d   1      46.281 -18.606  42.534  0.00  0.00     0.002 A 
ATOM     11  C   UNL d   1      46.399 -19.054  43.214  0.00  0.00     0.000 A 
ATOM     12  C   UNL d   1      46.436 -18.688  43.943  0.00  0.00     0.000 A 
ATOM     13  C   UNL d   1      46.478 -19.873  43.156  0.00  0.00     0.000 A 
ATOM     14  C   UNL d   1      46.552 -19.131  44.616  0.00  0.00     0.000 A 
ATOM     15  C   UNL d   1      46.633 -19.949  44.568  0.00  0.00     0.000 A 
ATOM     16  C   UNL d   1      46.596 -20.318  43.840  0.00  0.00     0.000 A 
ATOM     17  C   UNL d   1      46.440 -20.227  42.430  0.00  0.00     0.000 A 
ATOM     18  C   UNL d   1      46.323 -19.779  41.755  0.00  0.00     0.002 A 
ENDBRANCH   6   9
ENDBRANCH   1   4
BRANCH   2  19
ATOM     19  N   UNL d   1      44.397 -17.236  37.642  0.00  0.00    -0.143 NA
BRANCH  19  20
ATOM     20  C   UNL d   1      44.865 -16.764  37.100  0.00  0.00     0.126 C 
BRANCH  20  21
ATOM     21  C   UNL d   1      44.646 -15.943  36.940  0.00  0.00     0.060 A 
ATOM     22  C   UNL d   1      45.224 -15.313  37.030  0.00  0.00     0.005 A 
ATOM     23  C   UNL d   1      45.005 -14.493  36.870  0.00  0.00     0.000 A 
ATOM     24  C   UNL d   1      46.033 -15.500  37.284  0.00  0.00     0.000 A 
ATOM     25  C   UNL d   1      45.590 -13.856  36.962  0.00  0.00     0.000 A 
ATOM     26  C   UNL d   1      44.200 -14.295  36.617  0.00  0.00     0.003 A 
ATOM     27  C   UNL d   1      46.396 -14.047  37.215  0.00  0.00     0.000 A 
ATOM     28  C   UNL d   1      46.619 -14.864  37.376  0.00  0.00     0.000 A 
ATOM     29  C   UNL d   1      43.624 -14.935  36.528  0.00  0.00     0.042 A 
ATOM     30  C   UNL d   1      43.844 -15.757  36.688  0.00  0.00     0.197 A 
ATOM     31  O   UNL d   1      43.268 -16.383  36.597  0.00  0.00    -0.286 OA
ENDBRANCH  20  21
ENDBRANCH  19  20
ENDBRANCH   2  19
TORSDOF 5
ENDMDL
