MODEL 1
REMARK VINA RESULT:      -3.3      0.000      0.000
REMARK  1 active torsions:
REMARK  status: ('A' for Active; 'I' for Inactive)
REMARK    1  A    between atoms: C_10  and  N_2 
ROOT
ATOM      1  C   UNL d   1      30.264  17.180 -24.343  0.00  0.00     0.759 A 
ATOM      2  N   UNL d   1      30.700  16.596 -23.914  0.00  0.00    -0.103 N 
ATOM      3  N   UNL d   1      29.443  17.174 -24.316  0.00  0.00    -0.038 N 
ATOM      4  C   UNL d   1      30.294  16.034 -23.477  0.00  0.00     0.280 A 
ATOM      5  N   UNL d   1      30.512  17.807 -24.825  0.00  0.00     0.066 NA
ATOM      6  C   UNL d   1      29.472  16.025 -23.446  0.00  0.00     0.075 A 
ATOM      7  N   UNL d   1      29.175  17.818 -24.795  0.00  0.00    -0.025 NA
ATOM      8  N   UNL d   1      29.827  18.192 -25.097  0.00  0.00    -0.007 NA
ATOM      9  C   UNL d   1      29.037  16.608 -23.875  0.00  0.00     0.107 A 
ATOM     10  O   UNL d   1      30.727  15.453 -23.050  0.00  0.00    -0.266 OA
ATOM     11  C   UNL d   1      29.066  15.462 -23.009  0.00  0.00     0.006 A 
ATOM     12  C   UNL d   1      28.215  16.603 -23.848  0.00  0.00     0.020 A 
ATOM     13  C   UNL d   1      28.243  15.453 -22.978  0.00  0.00     0.000 A 
ATOM     14  C   UNL d   1      27.808  16.036 -23.407  0.00  0.00     0.002 A 
ENDROOT
BRANCH   2  15
ATOM     15  C   UNL d   1      31.515  16.603 -23.943  0.00  0.00     0.084 A 
ATOM     16  C   UNL d   1      31.928  16.181 -24.517  0.00  0.00     0.017 A 
ATOM     17  C   UNL d   1      31.557  15.782 -25.025  0.00  0.00     0.002 C 
ATOM     18  C   UNL d   1      32.747  16.186 -24.547  0.00  0.00     0.002 A 
ATOM     19  C   UNL d   1      33.177  16.633 -23.979  0.00  0.00     0.000 A 
ATOM     20  C   UNL d   1      32.780  17.067 -23.391  0.00  0.00     0.002 A 
ATOM     21  C   UNL d   1      31.945  17.050 -23.375  0.00  0.00     0.018 A 
ENDBRANCH   2  15
TORSDOF 1
ENDMDL
MODEL 2
REMARK VINA RESULT:      -3.2      1.315      3.528
REMARK  1 active torsions:
REMARK  status: ('A' for Active; 'I' for Inactive)
REMARK    1  A    between atoms: C_10  and  N_2 
ROOT
ATOM      1  C   UNL d   1      30.700  16.210 -23.577  0.00  0.00     0.759 A 
ATOM      2  N   UNL d   1      30.077  16.584 -24.008  0.00  0.00    -0.103 N 
ATOM      3  N   UNL d   1      31.467  16.499 -23.640  0.00  0.00    -0.038 N 
ATOM      4  C   UNL d   1      30.249  17.230 -24.484  0.00  0.00     0.280 A 
ATOM      5  N   UNL d   1      30.700  15.561 -23.062  0.00  0.00     0.066 NA
ATOM      6  C   UNL d   1      31.015  17.522 -24.550  0.00  0.00     0.075 A 
ATOM      7  N   UNL d   1      31.955  16.014 -23.149  0.00  0.00    -0.025 NA
ATOM      8  N   UNL d   1      31.484  15.453 -22.805  0.00  0.00    -0.007 NA
ATOM      9  C   UNL d   1      31.638  17.149 -24.119  0.00  0.00     0.107 A 
ATOM     10  O   UNL d   1      29.629  17.601 -24.913  0.00  0.00    -0.266 OA
ATOM     11  C   UNL d   1      31.187  18.168 -25.025  0.00  0.00     0.006 A 
ATOM     12  C   UNL d   1      32.405  17.438 -24.182  0.00  0.00     0.020 A 
ATOM     13  C   UNL d   1      31.954  18.461 -25.093  0.00  0.00     0.000 A 
ATOM     14  C   UNL d   1      32.577  18.087 -24.661  0.00  0.00     0.002 A 
ENDROOT
BRANCH   2  15
ATOM     15  C   UNL d   1      29.316  16.296 -23.944  0.00  0.00     0.084 A 
ATOM     16  C   UNL d   1      29.020  15.743 -24.478  0.00  0.00     0.017 A 
ATOM     17  C   UNL d   1      29.449  15.495 -25.034  0.00  0.00     0.002 C 
ATOM     18  C   UNL d   1      28.256  15.453 -24.415  0.00  0.00     0.002 A 
ATOM     19  C   UNL d   1      27.762  15.725 -23.791  0.00  0.00     0.000 A 
ATOM     20  C   UNL d   1      28.041  16.283 -23.241  0.00  0.00     0.002 A 
ATOM     21  C   UNL d   1      28.822  16.569 -23.321  0.00  0.00     0.018 A 
ENDBRANCH   2  15
TORSDOF 1
ENDMDL
MODEL 3
REMARK VINA RESULT:      -3.0      0.767      3.083
REMARK  1 active torsions:
REMARK  status: ('A' for Active; 'I' for Inactive)
REMARK    1  A    between atoms: C_10  and  N_2 
ROOT
ATOM      1  C   UNL d   1      30.406  17.286 -24.375  0.00  0.00     0.759 A 
ATOM      2  N   UNL d   1      30.242  16.573 -23.951  0.00  0.00    -0.103 N 
ATOM      3  N   UNL d   1      31.176  17.571 -24.405  0.00  0.00    -0.038 N 
ATOM      4  C   UNL d   1      30.856  16.179 -23.577  0.00  0.00     0.280 A 
ATOM      5  N   UNL d   1      29.914  17.798 -24.801  0.00  0.00     0.066 NA
ATOM      6  C   UNL d   1      31.628  16.461 -23.604  0.00  0.00     0.075 A 
ATOM      7  N   UNL d   1      31.159  18.282 -24.863  0.00  0.00    -0.025 NA
ATOM      8  N   UNL d   1      30.394  18.409 -25.097  0.00  0.00    -0.007 NA
ATOM      9  C   UNL d   1      31.792  17.173 -24.027  0.00  0.00     0.107 A 
ATOM     10  O   UNL d   1      30.692  15.470 -23.155  0.00  0.00    -0.266 OA
ATOM     11  C   UNL d   1      32.241  16.066 -23.229  0.00  0.00     0.006 A 
ATOM     12  C   UNL d   1      32.562  17.458 -24.057  0.00  0.00     0.020 A 
ATOM     13  C   UNL d   1      33.014  16.348 -23.256  0.00  0.00     0.000 A 
ATOM     14  C   UNL d   1      33.179  17.060 -23.679  0.00  0.00     0.002 A 
ENDROOT
BRANCH   2  15
ATOM     15  C   UNL d   1      29.477  16.291 -23.923  0.00  0.00     0.084 A 
ATOM     16  C   UNL d   1      29.202  15.738 -24.468  0.00  0.00     0.017 A 
ATOM     17  C   UNL d   1      29.656  15.485 -25.002  0.00  0.00     0.002 C 
ATOM     18  C   UNL d   1      28.434  15.454 -24.441  0.00  0.00     0.002 A 
ATOM     19  C   UNL d   1      27.913  15.732 -23.842  0.00  0.00     0.000 A 
ATOM     20  C   UNL d   1      28.170  16.290 -23.281  0.00  0.00     0.002 A 
ATOM     21  C   UNL d   1      28.956  16.569 -23.324  0.00  0.00     0.018 A 
ENDBRANCH   2  15
TORSDOF 1
ENDMDL
MODEL 4
REMARK VINA RESULT:      -2.2      1.707      2.554
REMARK  1 active torsions:
REMARK  status: ('A' for Active; 'I' for Inactive)
REMARK    1  A    between atoms: C_10  and  N_2 
ROOT
ATOM      1  C   UNL d   1      31.929  16.794 -24.253  0.00  0.00     0.759 A 
ATOM      2  N   UNL d   1      31.645  17.579 -24.386  0.00  0.00    -0.103 N 
ATOM      3  N   UNL d   1      31.401  16.164 -24.268  0.00  0.00    -0.038 N 
ATOM      4  C   UNL d   1      30.846  17.698 -24.529  0.00  0.00     0.280 A 
ATOM      5  N   UNL d   1      32.689  16.503 -24.097  0.00  0.00     0.066 NA
ATOM      6  C   UNL d   1      30.314  17.070 -24.545  0.00  0.00     0.075 A 
ATOM      7  N   UNL d   1      31.849  15.463 -24.118  0.00  0.00    -0.025 NA
ATOM      8  N   UNL d   1      32.623  15.678 -24.016  0.00  0.00    -0.007 NA
ATOM      9  C   UNL d   1      30.598  16.286 -24.412  0.00  0.00     0.107 A 
ATOM     10  O   UNL d   1      30.564  18.478 -24.662  0.00  0.00    -0.266 OA
ATOM     11  C   UNL d   1      29.516  17.189 -24.688  0.00  0.00     0.006 A 
ATOM     12  C   UNL d   1      30.070  15.656 -24.427  0.00  0.00     0.020 A 
ATOM     13  C   UNL d   1      28.983  16.562 -24.704  0.00  0.00     0.000 A 
ATOM     14  C   UNL d   1      29.267  15.777 -24.571  0.00  0.00     0.002 A 
ENDROOT
BRANCH   2  15
ATOM     15  C   UNL d   1      32.170  18.203 -24.371  0.00  0.00     0.084 A 
ATOM     16  C   UNL d   1      32.420  18.537 -23.660  0.00  0.00     0.017 A 
ATOM     17  C   UNL d   1      32.166  18.268 -23.013  0.00  0.00     0.002 C 
ATOM     18  C   UNL d   1      32.947  19.164 -23.643  0.00  0.00     0.002 A 
ATOM     19  C   UNL d   1      33.241  19.475 -24.367  0.00  0.00     0.000 A 
ATOM     20  C   UNL d   1      33.002  19.153 -25.096  0.00  0.00     0.002 A 
ATOM     21  C   UNL d   1      32.464  18.514 -25.095  0.00  0.00     0.018 A 
ENDBRANCH   2  15
TORSDOF 1
ENDMDL
MODEL 5
REMARK VINA RESULT:      -1.6      2.502      4.022
REMARK  1 active torsions:
REMARK  status: ('A' for Active; 'I' for Inactive)
REMARK    1  A    between atoms: C_10  and  N_2 
ROOT
ATOM      1  C   UNL d   1      32.756  19.110 -24.167  0.00  0.00     0.759 A 
ATOM      2  N   UNL d   1      32.731  18.397 -23.714  0.00  0.00    -0.103 N 
ATOM      3  N   UNL d   1      32.889  19.827 -23.787  0.00  0.00    -0.038 N 
ATOM      4  C   UNL d   1      32.840  18.434 -22.902  0.00  0.00     0.280 A 
ATOM      5  N   UNL d   1      32.668  19.250 -24.979  0.00  0.00     0.066 NA
ATOM      6  C   UNL d   1      32.973  19.148 -22.518  0.00  0.00     0.075 A 
ATOM      7  N   UNL d   1      32.882  20.427 -24.383  0.00  0.00    -0.025 NA
ATOM      8  N   UNL d   1      32.748  20.069 -25.097  0.00  0.00    -0.007 NA
ATOM      9  C   UNL d   1      32.998  19.861 -22.971  0.00  0.00     0.107 A 
ATOM     10  O   UNL d   1      32.815  17.724 -22.452  0.00  0.00    -0.266 OA
ATOM     11  C   UNL d   1      33.082  19.185 -21.706  0.00  0.00     0.006 A 
ATOM     12  C   UNL d   1      33.131  20.578 -22.591  0.00  0.00     0.020 A 
ATOM     13  C   UNL d   1      33.216  19.900 -21.321  0.00  0.00     0.000 A 
ATOM     14  C   UNL d   1      33.241  20.613 -21.774  0.00  0.00     0.002 A 
ENDROOT
BRANCH   2  15
ATOM     15  C   UNL d   1      32.599  17.686 -24.093  0.00  0.00     0.084 A 
ATOM     16  C   UNL d   1      31.854  17.336 -24.100  0.00  0.00     0.017 A 
ATOM     17  C   UNL d   1      31.283  17.668 -23.757  0.00  0.00     0.002 C 
ATOM     18  C   UNL d   1      31.720  16.622 -24.480  0.00  0.00     0.002 A 
ATOM     19  C   UNL d   1      32.357  16.238 -24.871  0.00  0.00     0.000 A 
ATOM     20  C   UNL d   1      33.118  16.574 -24.876  0.00  0.00     0.002 A 
ATOM     21  C   UNL d   1      33.236  17.302 -24.484  0.00  0.00     0.018 A 
ENDBRANCH   2  15
TORSDOF 1
ENDMDL
MODEL 6
REMARK VINA RESULT:      -1.3      1.970      3.734
REMARK  1 active torsions:
REMARK  status: ('A' for Active; 'I' for Inactive)
REMARK    1  A    between atoms: C_10  and  N_2 
ROOT
ATOM      1  C   UNL d   1      32.058  17.329 -23.508  0.00  0.00     0.759 A 
ATOM      2  N   UNL d   1      31.421  17.420 -24.055  0.00  0.00    -0.103 N 
ATOM      3  N   UNL d   1      32.656  17.892 -23.484  0.00  0.00    -0.038 N 
ATOM      4  C   UNL d   1      31.410  18.071 -24.553  0.00  0.00     0.280 A 
ATOM      5  N   UNL d   1      32.220  16.742 -22.945  0.00  0.00     0.066 NA
ATOM      6  C   UNL d   1      32.006  18.638 -24.533  0.00  0.00     0.075 A 
ATOM      7  N   UNL d   1      33.204  17.647 -22.888  0.00  0.00    -0.025 NA
ATOM      8  N   UNL d   1      32.932  16.953 -22.570  0.00  0.00    -0.007 NA
ATOM      9  C   UNL d   1      32.643  18.546 -23.986  0.00  0.00     0.107 A 
ATOM     10  O   UNL d   1      30.775  18.162 -25.097  0.00  0.00    -0.266 OA
ATOM     11  C   UNL d   1      31.995  19.289 -25.031  0.00  0.00     0.006 A 
ATOM     12  C   UNL d   1      33.241  19.110 -23.962  0.00  0.00     0.020 A 
ATOM     13  C   UNL d   1      32.591  19.856 -25.011  0.00  0.00     0.000 A 
ATOM     14  C   UNL d   1      33.229  19.765 -24.465  0.00  0.00     0.002 A 
ENDROOT
BRANCH   2  15
ATOM     15  C   UNL d   1      30.828  16.860 -24.077  0.00  0.00     0.084 A 
ATOM     16  C   UNL d   1      30.871  16.209 -24.579  0.00  0.00     0.017 A 
ATOM     17  C   UNL d   1      31.461  16.122 -25.026  0.00  0.00     0.002 C 
ATOM     18  C   UNL d   1      30.277  15.645 -24.603  0.00  0.00     0.002 A 
ATOM     19  C   UNL d   1      29.606  15.732 -24.102  0.00  0.00     0.000 A 
ATOM     20  C   UNL d   1      29.542  16.382 -23.587  0.00  0.00     0.002 A 
ATOM     21  C   UNL d   1      30.157  16.947 -23.577  0.00  0.00     0.018 A 
ENDBRANCH   2  15
TORSDOF 1
ENDMDL
MODEL 7
REMARK VINA RESULT:      -0.9      6.115      7.345
REMARK  1 active torsions:
REMARK  status: ('A' for Active; 'I' for Inactive)
REMARK    1  A    between atoms: C_10  and  N_2 
ROOT
ATOM      1  C   UNL d   1      32.836  21.609 -21.293  0.00  0.00     0.759 A 
ATOM      2  N   UNL d   1      32.767  22.452 -21.288  0.00  0.00    -0.103 N 
ATOM      3  N   UNL d   1      32.970  21.219 -22.004  0.00  0.00    -0.038 N 
ATOM      4  C   UNL d   1      32.836  22.864 -21.993  0.00  0.00     0.280 A 
ATOM      5  N   UNL d   1      32.794  21.050 -20.683  0.00  0.00     0.066 NA
ATOM      6  C   UNL d   1      32.970  22.478 -22.706  0.00  0.00     0.075 A 
ATOM      7  N   UNL d   1      33.012  20.392 -21.827  0.00  0.00    -0.025 NA
ATOM      8  N   UNL d   1      32.904  20.302 -21.030  0.00  0.00    -0.007 NA
ATOM      9  C   UNL d   1      33.038  21.636 -22.712  0.00  0.00     0.107 A 
ATOM     10  O   UNL d   1      32.767  23.702 -21.987  0.00  0.00    -0.266 OA
ATOM     11  C   UNL d   1      33.038  22.890 -23.411  0.00  0.00     0.006 A 
ATOM     12  C   UNL d   1      33.172  21.245 -23.422  0.00  0.00     0.020 A 
ATOM     13  C   UNL d   1      33.172  22.504 -24.125  0.00  0.00     0.000 A 
ATOM     14  C   UNL d   1      33.241  21.662 -24.131  0.00  0.00     0.002 A 
ENDROOT
BRANCH   2  15
ATOM     15  C   UNL d   1      32.634  22.838 -20.581  0.00  0.00     0.084 A 
ATOM     16  C   UNL d   1      31.926  23.230 -20.433  0.00  0.00     0.017 A 
ATOM     17  C   UNL d   1      31.389  23.237 -20.950  0.00  0.00     0.002 C 
ATOM     18  C   UNL d   1      31.791  23.619 -19.724  0.00  0.00     0.002 A 
ATOM     19  C   UNL d   1      32.389  23.618 -19.134  0.00  0.00     0.000 A 
ATOM     20  C   UNL d   1      33.113  23.228 -19.262  0.00  0.00     0.002 A 
ATOM     21  C   UNL d   1      33.233  22.837 -19.990  0.00  0.00     0.018 A 
ENDBRANCH   2  15
TORSDOF 1
ENDMDL
