MODEL 1
REMARK VINA RESULT:      56.0      0.000      0.000
REMARK  6 active torsions:
REMARK  status: ('A' for Active; 'I' for Inactive)
REMARK    1  A    between atoms: N_8  and  C_2 
REMARK    2  A    between atoms: N_7  and  C_3 
REMARK    3  A    between atoms: N_10  and  C_6 
REMARK    4  A    between atoms: C_9  and  N_11 
REMARK    5  A    between atoms: N_13  and  C_9 
REMARK    6  A    between atoms: N_11  and  N_10 
ROOT
ATOM      1  N   UNL d   1     -49.943  26.004  33.516  0.00  0.00     0.133 NA
ATOM      2  C   UNL d   1     -50.173  25.247  33.525  0.00  0.00     0.766 A 
ATOM      3  C   UNL d   1     -50.477  26.614  33.445  0.00  0.00     0.766 A 
ATOM      4  N   UNL d   1     -51.280  26.432  33.382  0.00  0.00     0.135 NA
ATOM      5  N   UNL d   1     -51.012  25.057  33.458  0.00  0.00     0.135 NA
ATOM      6  C   UNL d   1     -51.556  25.652  33.387  0.00  0.00     0.798 A 
ENDROOT
BRANCH   2   7
ATOM      7  N   UNL d   1     -49.639  24.636  33.595  0.00  0.00    -0.132 N 
ATOM      8  C   UNL d   1     -48.835  24.816  33.622  0.00  0.00     0.125 A 
ATOM      9  C   UNL d   1     -48.279  24.210  33.693  0.00  0.00     0.142 A 
ATOM     10  O   UNL d   1     -48.527  23.424  33.738  0.00  0.00    -0.300 OA
ATOM     11  C   UNL d   1     -49.332  23.245  33.711  0.00  0.00     0.142 A 
ATOM     12  C   UNL d   1     -49.888  23.850  33.640  0.00  0.00     0.125 A 
ENDBRANCH   2   7
BRANCH   3  13
ATOM     13  N   UNL d   1     -50.253  27.397  33.435  0.00  0.00    -0.132 N 
ATOM     14  C   UNL d   1     -49.478  27.635  33.510  0.00  0.00     0.125 A 
ATOM     15  C   UNL d   1     -49.254  28.418  33.500  0.00  0.00     0.142 A 
ATOM     16  O   UNL d   1     -49.837  28.995  33.410  0.00  0.00    -0.300 OA
ATOM     17  C   UNL d   1     -50.644  28.788  33.330  0.00  0.00     0.142 A 
ATOM     18  C   UNL d   1     -50.836  27.974  33.345  0.00  0.00     0.125 A 
ENDBRANCH   3  13
BRANCH   6  19
ATOM     19  N   UNL d   1     -52.340  25.474  33.325  0.00  0.00     0.050 NA
BRANCH  19  20
ATOM     20  N   UNL d   1     -52.649  24.817  33.689  0.00  0.00    -0.101 NA
BRANCH  20  21
ATOM     21  C   UNL d   1     -53.377  24.506  33.456  0.00  0.00     0.241 C 
ATOM     22  S   UNL d   1     -54.012  24.987  33.310  0.00  0.00    -0.035 SA
BRANCH  21  23
ATOM     23  N   UNL d   1     -53.464  23.692  33.368  0.00  0.00    -0.213 NA
ATOM     24  C   UNL d   1     -53.559  23.206  34.028  0.00  0.00     0.122 C 
ENDBRANCH  21  23
ENDBRANCH  20  21
ENDBRANCH  19  20
ENDBRANCH   6  19
TORSDOF 6
ENDMDL
