MODEL 1
REMARK VINA RESULT:      37.7      0.000      0.000
REMARK  6 active torsions:
REMARK  status: ('A' for Active; 'I' for Inactive)
REMARK       I    between atoms: N_2  and  C_1 
REMARK       I    between atoms: N_7  and  C_1 
REMARK    1  A    between atoms: C_4  and  N_2 
REMARK       I    between atoms: C_3  and  N_8 
REMARK    2  A    between atoms: C_6  and  C_3 
REMARK    3  A    between atoms: N_5  and  C_12 
REMARK    4  A    between atoms: C_12  and  C_6 
REMARK    5  A    between atoms: N_8  and  N_7 
REMARK    6  A    between atoms: O_14  and  C_10 
ROOT
ATOM      1  C   UNL d   1     -55.039-101.694 -42.625  0.00  0.00     0.387 C 
ATOM      2  N   UNL d   1     -54.712-101.322 -43.288  0.00  0.00    -0.188 NA
ATOM      3  N   UNL d   1     -54.733-102.400 -42.363  0.00  0.00    -0.085 NA
ATOM      4  O   UNL d   1     -55.677-101.341 -42.233  0.00  0.00    -0.241 OA
ENDROOT
BRANCH   3   5
ATOM      5  N   UNL d   1     -55.060-102.771 -41.699  0.00  0.00    -0.101 NA
ATOM      6  C   UNL d   1     -55.054-102.391 -40.966  0.00  0.00     0.298 C 
ATOM      7  O   UNL d   1     -54.720-101.640 -40.899  0.00  0.00    -0.264 OA
BRANCH   6   8
ATOM      8  C   UNL d   1     -55.380-102.764 -40.311  0.00  0.00     0.083 C 
BRANCH   8   9
ATOM      9  C   UNL d   1     -54.922-102.880 -39.640  0.00  0.00     0.085 C 
BRANCH   9  10
ATOM     10  N   UNL d   1     -55.227-102.701 -38.893  0.00  0.00    -0.299 N 
ATOM     11  C   UNL d   1     -56.036-102.688 -38.777  0.00  0.00     0.107 A 
ATOM     12  C   UNL d   1     -56.340-102.510 -38.032  0.00  0.00     0.142 A 
ATOM     13  O   UNL d   1     -55.824-102.347 -37.406  0.00  0.00    -0.300 OA
ATOM     14  C   UNL d   1     -55.008-102.361 -37.524  0.00  0.00     0.142 A 
ATOM     15  C   UNL d   1     -54.711-102.538 -38.267  0.00  0.00     0.107 A 
ENDBRANCH   9  10
ENDBRANCH   8   9
ENDBRANCH   6   8
ENDBRANCH   3   5
BRANCH   2  16
ATOM     16  C   UNL d   1     -55.020-100.605 -43.556  0.00  0.00     0.108 A 
ATOM     17  C   UNL d   1     -55.561-100.593 -44.171  0.00  0.00     0.112 A 
ATOM     18  C   UNL d   1     -55.870 -99.888 -44.440  0.00  0.00     0.026 A 
ATOM     19  C   UNL d   1     -55.637 -99.175 -44.090  0.00  0.00     0.002 A 
ATOM     20  C   UNL d   1     -55.092 -99.183 -43.470  0.00  0.00     0.002 A 
ATOM     21  C   UNL d   1     -54.783 -99.899 -43.202  0.00  0.00     0.021 A 
BRANCH  17  22
ATOM     22  O   UNL d   1     -55.793-101.302 -44.519  0.00  0.00    -0.327 OA
ATOM     23  C   UNL d   1     -55.305-101.655 -45.087  0.00  0.00     0.181 C 
ENDBRANCH  17  22
ENDBRANCH   2  16
TORSDOF 6
ENDMDL
