MODEL 1
REMARK VINA RESULT:      -5.4      0.000      0.000
REMARK  4 active torsions:
REMARK  status: ('A' for Active; 'I' for Inactive)
REMARK    1  A    between atoms: C_6  and  N_1 
REMARK    2  A    between atoms: N_8  and  C_4 
REMARK    3  A    between atoms: N_7  and  C_10 
REMARK    4  A    between atoms: C_16  and  N_8 
ROOT
ATOM      1  N   UNL d   1     -41.647-122.408 -53.245  0.00  0.00    -0.238 N 
ATOM      2  C   UNL d   1     -41.388-121.911 -52.611  0.00  0.00     0.269 A 
ATOM      3  C   UNL d   1     -41.734-123.169 -52.960  0.00  0.00     0.285 A 
ATOM      4  C   UNL d   1     -41.530-123.165 -52.138  0.00  0.00     0.142 A 
ATOM      5  C   UNL d   1     -41.326-122.391 -51.958  0.00  0.00     0.085 A 
ATOM      6  O   UNL d   1     -41.225-121.112 -52.621  0.00  0.00    -0.267 OA
ATOM      7  O   UNL d   1     -41.979-123.817 -53.414  0.00  0.00    -0.265 OA
ENDROOT
BRANCH   4   8
ATOM      8  N   UNL d   1     -41.533-123.794 -51.619  0.00  0.00    -0.241 NA
BRANCH   8   9
ATOM      9  C   UNL d   1     -41.704-123.672 -50.828  0.00  0.00     0.082 A 
ATOM     10  C   UNL d   1     -41.123-123.815 -50.253  0.00  0.00     0.021 A 
ATOM     11  C   UNL d   1     -41.277-123.697 -49.449  0.00  0.00     0.019 A 
ATOM     12  C   UNL d   1     -42.038-123.427 -49.219  0.00  0.00     0.064 A 
ATOM     13  C   UNL d   1     -42.629-123.280 -49.787  0.00  0.00     0.019 A 
ATOM     14  C   UNL d   1     -42.453-123.405 -50.594  0.00  0.00     0.021 A 
BRANCH  12  15
ATOM     15  N   UNL d   1     -42.212-123.303 -48.426  0.00  0.00    -0.300 N 
ATOM     16  C   UNL d   1     -42.970-123.446 -48.154  0.00  0.00     0.107 A 
ATOM     17  C   UNL d   1     -43.154-123.327 -47.365  0.00  0.00     0.142 A 
ATOM     18  O   UNL d   1     -42.564-123.059 -46.847  0.00  0.00    -0.300 OA
ATOM     19  C   UNL d   1     -41.790-122.911 -47.116  0.00  0.00     0.142 A 
ATOM     20  C   UNL d   1     -41.625-123.037 -47.911  0.00  0.00     0.107 A 
ENDBRANCH  12  15
ENDBRANCH   8   9
ENDBRANCH   4   8
BRANCH   1  21
ATOM     21  C   UNL d   1     -41.789-122.183 -54.014  0.00  0.00     0.097 A 
ATOM     22  C   UNL d   1     -42.486-121.798 -54.204  0.00  0.00     0.156 A 
ATOM     23  F   UNL d   1     -43.049-121.633 -53.630  0.00  0.00    -0.203 F 
ATOM     24  C   UNL d   1     -42.632-121.569 -54.986  0.00  0.00     0.031 A 
ATOM     25  C   UNL d   1     -42.077-121.728 -55.568  0.00  0.00     0.002 A 
ATOM     26  C   UNL d   1     -41.380-122.115 -55.371  0.00  0.00     0.002 A 
ATOM     27  C   UNL d   1     -41.237-122.342 -54.591  0.00  0.00     0.020 A 
ENDBRANCH   1  21
TORSDOF 4
ENDMDL
