MODEL 1
REMARK VINA RESULT:       0.5      0.000      0.000
REMARK  5 active torsions:
REMARK  status: ('A' for Active; 'I' for Inactive)
REMARK    1  A    between atoms: C_5  and  C_1 
REMARK    2  A    between atoms: N_7  and  C_5 
REMARK    3  A    between atoms: C_10  and  C_5 
REMARK    4  A    between atoms: C_16  and  C_19 
REMARK    5  A    between atoms: C_20  and  C_16 
ROOT
ATOM      1  C   UNL d   1      31.809  17.611 -24.107  0.00  0.00     0.085 C 
ENDROOT
BRANCH   1   2
ATOM      2  C   UNL d   1      32.161  18.365 -23.953  0.00  0.00     0.059 A 
ATOM      3  C   UNL d   1      32.201  18.663 -23.171  0.00  0.00     0.214 A 
ATOM      4  C   UNL d   1      32.550  19.405 -23.037  0.00  0.00     0.121 A 
ATOM      5  O   UNL d   1      31.902  18.235 -22.543  0.00  0.00    -0.285 OA
ATOM      6  N   UNL d   1      32.593  19.703 -22.275  0.00  0.00    -0.241 NA
ATOM      7  C   UNL d   1      32.856  19.841 -23.677  0.00  0.00     0.032 A 
ATOM      8  C   UNL d   1      32.947  20.452 -22.154  0.00  0.00     0.099 A 
ATOM      9  C   UNL d   1      33.241  20.872 -22.770  0.00  0.00     0.021 A 
ATOM     10  C   UNL d   1      33.200  20.571 -23.549  0.00  0.00     0.004 A 
ATOM     11  C   UNL d   1      32.808  19.532 -24.444  0.00  0.00     0.059 A 
ATOM     12  C   UNL d   1      32.455  18.785 -24.568  0.00  0.00     0.016 A 
ATOM     13 CL   UNL d   1      33.109  19.962 -25.075  0.00  0.00    -0.082 Cl
ENDBRANCH   1   2
BRANCH   1  14
ATOM     14  N   UNL d   1      30.991  17.546 -24.196  0.00  0.00    -0.302 N 
ATOM     15  C   UNL d   1      30.618  17.798 -24.895  0.00  0.00     0.080 A 
ATOM     16  C   UNL d   1      29.801  17.734 -24.985  0.00  0.00     0.019 A 
ATOM     17  C   UNL d   1      29.347  17.418 -24.377  0.00  0.00     0.003 A 
ATOM     18  C   UNL d   1      29.712  17.166 -23.679  0.00  0.00     0.019 A 
ATOM     19  C   UNL d   1      30.522  17.229 -23.590  0.00  0.00     0.080 A 
BRANCH  17  20
ATOM     20  C   UNL d   1      28.537  17.355 -24.465  0.00  0.00     0.000 C 
BRANCH  20  21
ATOM     21  C   UNL d   1      28.116  16.840 -24.002  0.00  0.00     0.000 A 
ATOM     22  C   UNL d   1      28.056  16.049 -24.212  0.00  0.00     0.000 A 
ATOM     23  C   UNL d   1      27.631  15.527 -23.747  0.00  0.00     0.000 A 
ATOM     24  C   UNL d   1      27.261  15.799 -23.062  0.00  0.00     0.000 A 
ATOM     25  C   UNL d   1      27.318  16.588 -22.847  0.00  0.00     0.000 A 
ATOM     26  C   UNL d   1      27.751  17.118 -23.322  0.00  0.00     0.000 A 
ENDBRANCH  20  21
ENDBRANCH  17  20
ENDBRANCH   1  14
BRANCH   1  27
ATOM     27  C   UNL d   1      32.298  16.924 -24.169  0.00  0.00     0.098 A 
ATOM     28  N   UNL d   1      32.437  16.461 -23.490  0.00  0.00    -0.243 NA
ATOM     29  C   UNL d   1      32.910  15.796 -23.548  0.00  0.00     0.099 A 
ATOM     30  C   UNL d   1      33.241  15.593 -24.273  0.00  0.00     0.021 A 
ATOM     31  C   UNL d   1      33.106  16.049 -24.951  0.00  0.00     0.003 A 
ATOM     32  C   UNL d   1      32.633  16.714 -24.894  0.00  0.00     0.021 A 
ENDBRANCH   1  27
TORSDOF 5
ENDMDL
