MODEL 1
REMARK VINA RESULT:      83.7      0.000      0.000
REMARK  3 active torsions:
REMARK  status: ('A' for Active; 'I' for Inactive)
REMARK    1  A    between atoms: N_9  and  C_2 
REMARK    2  A    between atoms: C_15  and  C_7 
REMARK    3  A    between atoms: C_11  and  C_14 
ROOT
ATOM      1  C   UNL d   1      44.311 -15.596  37.386  0.00  0.00     0.152 A 
ATOM      2  C   UNL d   1      43.926 -16.239  37.744  0.00  0.00     0.174 A 
ATOM      3  C   UNL d   1      43.912 -15.133  36.822  0.00  0.00     0.111 A 
ATOM      4  N   UNL d   1      43.136 -16.414  37.531  0.00  0.00    -0.207 NA
ATOM      5  N   UNL d   1      43.136 -15.305  36.613  0.00  0.00    -0.225 NA
ATOM      6  O   UNL d   1      45.095 -15.421  37.597  0.00  0.00    -0.302 OA
ATOM      7  C   UNL d   1      42.742 -15.945  36.963  0.00  0.00     0.164 A 
ATOM      8  C   UNL d   1      45.089 -14.317  36.681  0.00  0.00     0.043 A 
ATOM      9  C   UNL d   1      45.487 -14.780  37.244  0.00  0.00     0.102 A 
ATOM     10  C   UNL d   1      45.479 -13.680  36.331  0.00  0.00     0.004 A 
ATOM     11  C   UNL d   1      46.259 -14.610  37.454  0.00  0.00     0.025 A 
ATOM     12  C   UNL d   1      46.255 -13.508  36.540  0.00  0.00     0.000 A 
ATOM     13  C   UNL d   1      46.647 -13.976  37.105  0.00  0.00     0.002 A 
ENDROOT
BRANCH   2  14
ATOM     14  N   UNL d   1      44.314 -16.702  38.303  0.00  0.00    -0.287 N 
ATOM     15  C   UNL d   1      44.837 -17.279  38.055  0.00  0.00     0.082 A 
ATOM     16  C   UNL d   1      45.223 -17.739  38.617  0.00  0.00     0.025 A 
ATOM     17  C   UNL d   1      45.082 -17.618  39.420  0.00  0.00     0.067 A 
ATOM     18  C   UNL d   1      44.556 -17.039  39.659  0.00  0.00     0.025 A 
ATOM     19  C   UNL d   1      44.169 -16.576  39.101  0.00  0.00     0.082 A 
BRANCH  17  20
ATOM     20  C   UNL d   1      45.482 -18.095  39.996  0.00  0.00     0.211 C 
ATOM     21  O   UNL d   1      46.327 -18.107  40.023  0.00  0.00    -0.644 OA
ATOM     22  O   UNL d   1      45.034 -18.557  40.543  0.00  0.00    -0.644 OA
ENDBRANCH  17  20
ENDBRANCH   2  14
BRANCH   7  23
ATOM     23  C   UNL d   1      41.970 -16.114  36.753  0.00  0.00     0.036 A 
ATOM     24  C   UNL d   1      41.432 -15.513  36.652  0.00  0.00     0.003 A 
ATOM     25  C   UNL d   1      40.648 -15.682  36.439  0.00  0.00     0.000 A 
ATOM     26  C   UNL d   1      40.417 -16.462  36.330  0.00  0.00     0.000 A 
ATOM     27  C   UNL d   1      40.967 -17.077  36.434  0.00  0.00     0.000 A 
ATOM     28  C   UNL d   1      41.734 -16.901  36.643  0.00  0.00     0.003 A 
ENDBRANCH   7  23
TORSDOF 3
ENDMDL
