MODEL 1
REMARK VINA RESULT:       2.9      0.000      0.000
REMARK  9 active torsions:
REMARK  status: ('A' for Active; 'I' for Inactive)
REMARK    1  A    between atoms: N_4  and  C_1 
REMARK       I    between atoms: C_8  and  N_4 
REMARK    2  A    between atoms: C_19  and  N_4 
REMARK    3  A    between atoms: S_6  and  C_11 
REMARK    4  A    between atoms: C_14  and  S_6 
REMARK    5  A    between atoms: C_10  and  C_8 
REMARK    6  A    between atoms: C_11  and  C_10 
REMARK    7  A    between atoms: C_20  and  C_19 
REMARK    8  A    between atoms: C_23  and  C_20 
REMARK    9  A    between atoms: N_21  and  C_23 
ROOT
ATOM      1  N   UNL d   1     -41.512-122.594 -51.218  0.00  0.00    -0.253 N 
ATOM      2  C   UNL d   1     -41.761-123.089 -51.833  0.00  0.00     0.267 C 
ATOM      3  O   UNL d   1     -42.141-123.794 -51.670  0.00  0.00    -0.267 OA
ENDROOT
BRANCH   1   4
ATOM      4  C   UNL d   1     -41.653-122.823 -50.429  0.00  0.00     0.182 A 
ATOM      5  N   UNL d   1     -42.349-122.692 -50.011  0.00  0.00    -0.222 NA
ATOM      6  C   UNL d   1     -42.260-123.006 -49.246  0.00  0.00     0.089 A 
ATOM      7  C   UNL d   1     -42.761-123.035 -48.608  0.00  0.00     0.018 A 
ATOM      8  C   UNL d   1     -41.504-123.330 -49.201  0.00  0.00     0.050 A 
ATOM      9  C   UNL d   1     -42.520-123.390 -47.903  0.00  0.00     0.002 A 
ATOM     10  C   UNL d   1     -43.521-122.710 -48.656  0.00  0.00     0.002 C 
ATOM     11  C   UNL d   1     -43.018-123.422 -47.256  0.00  0.00     0.000 C 
ATOM     12  C   UNL d   1     -41.767-123.711 -47.859  0.00  0.00     0.001 A 
ATOM     13  C   UNL d   1     -41.263-123.678 -48.511  0.00  0.00     0.008 A 
ATOM     14  S   UNL d   1     -41.123-123.220 -49.929  0.00  0.00    -0.048 SA
ENDBRANCH   1   4
BRANCH   1  15
ATOM     15  C   UNL d   1     -41.128-121.883 -51.382  0.00  0.00     0.086 C 
BRANCH  15  16
ATOM     16  C   UNL d   1     -41.529-121.164 -51.277  0.00  0.00     0.038 C 
BRANCH  16  17
ATOM     17  C   UNL d   1     -41.126-120.508 -50.980  0.00  0.00     0.082 C 
BRANCH  17  18
ATOM     18  N   UNL d   1     -41.173-119.783 -51.367  0.00  0.00    -0.300 N 
ATOM     19  C   UNL d   1     -41.127-119.080 -50.937  0.00  0.00     0.100 C 
ATOM     20  C   UNL d   1     -41.267-119.761 -52.185  0.00  0.00     0.100 C 
ENDBRANCH  17  18
ENDBRANCH  16  17
ENDBRANCH  15  16
ENDBRANCH   1  15
BRANCH   2  21
ATOM     21  C   UNL d   1     -41.619-122.858 -52.615  0.00  0.00     0.073 C 
BRANCH  21  22
ATOM     22  C   UNL d   1     -42.120-123.140 -53.215  0.00  0.00     0.104 C 
BRANCH  22  23
ATOM     23  S   UNL d   1     -42.100-122.802 -53.972  0.00  0.00     0.211 S 
ATOM     24  O   UNL d   1     -41.688-123.465 -54.252  0.00  0.00    -0.217 OA
ATOM     25  O   UNL d   1     -42.516-122.134 -53.685  0.00  0.00    -0.217 OA
BRANCH  23  26
ATOM     26  C   UNL d   1     -42.080-122.465 -54.726  0.00  0.00     0.088 A 
ATOM     27  C   UNL d   1     -42.735-122.529 -55.214  0.00  0.00     0.011 A 
ATOM     28  C   UNL d   1     -42.715-122.189 -55.974  0.00  0.00     0.001 A 
ATOM     29  C   UNL d   1     -42.041-121.797 -56.224  0.00  0.00     0.000 A 
ATOM     30  C   UNL d   1     -41.386-121.732 -55.740  0.00  0.00     0.001 A 
ATOM     31  C   UNL d   1     -41.406-122.068 -54.987  0.00  0.00     0.011 A 
ENDBRANCH  23  26
ENDBRANCH  22  23
ENDBRANCH  21  22
ENDBRANCH   2  21
TORSDOF 9
ENDMDL
