MODEL 1
REMARK VINA RESULT:     -11.1      0.000      0.000
REMARK  3 active torsions:
REMARK  status: ('A' for Active; 'I' for Inactive)
REMARK       I    between atoms: C_4  and  N_1 
REMARK    1  A    between atoms: C_7  and  C_3 
REMARK    2  A    between atoms: C_9  and  C_4 
REMARK    3  A    between atoms: C_8  and  C_5 
ROOT
ATOM      1  N   UNL d   1      53.156  32.454  53.617  0.00  0.00    -0.191 N 
ATOM      2  N   UNL d   1      52.455  32.579  53.217  0.00  0.00    -0.163 NA
ATOM      3  C   UNL d   1      53.394  33.206  53.918  0.00  0.00     0.110 A 
ATOM      4  C   UNL d   1      53.552  31.753  53.712  0.00  0.00     0.303 C 
ATOM      5  C   UNL d   1      52.251  33.377  53.260  0.00  0.00     0.103 A 
ATOM      6  C   UNL d   1      52.823  33.759  53.687  0.00  0.00     0.042 A 
ATOM      7  O   UNL d   1      54.295  31.749  54.163  0.00  0.00    -0.263 OA
ENDROOT
BRANCH   3   8
ATOM      8  C   UNL d   1      54.074  33.355  54.363  0.00  0.00     0.118 A 
ATOM      9  O   UNL d   1      54.819  33.470  54.057  0.00  0.00    -0.304 OA
ATOM     10  C   UNL d   1      55.342  33.604  54.697  0.00  0.00     0.123 A 
ATOM     11  C   UNL d   1      54.897  33.567  55.391  0.00  0.00     0.029 A 
ATOM     12  C   UNL d   1      54.105  33.412  55.170  0.00  0.00     0.028 A 
ENDBRANCH   3   8
BRANCH   4  13
ATOM     13  C   UNL d   1      53.279  31.050  53.400  0.00  0.00     0.158 A 
ATOM     14  O   UNL d   1      53.165  30.875  52.606  0.00  0.00    -0.300 OA
ATOM     15  C   UNL d   1      52.883  30.108  52.536  0.00  0.00     0.123 A 
ATOM     16  C   UNL d   1      52.820  29.797  53.295  0.00  0.00     0.029 A 
ATOM     17  C   UNL d   1      53.063  30.377  53.836  0.00  0.00     0.032 A 
ENDBRANCH   4  13
BRANCH   5  18
ATOM     18  C   UNL d   1      51.568  33.706  52.913  0.00  0.00     0.019 A 
ATOM     19  C   UNL d   1      50.888  33.696  53.337  0.00  0.00     0.002 A 
ATOM     20  C   UNL d   1      50.194  34.013  53.025  0.00  0.00     0.000 A 
ATOM     21  C   UNL d   1      50.204  34.339  52.276  0.00  0.00     0.000 A 
ATOM     22  C   UNL d   1      50.903  34.358  51.821  0.00  0.00     0.000 A 
ATOM     23  C   UNL d   1      49.507  34.654  51.970  0.00  0.00     0.000 C 
ATOM     24  C   UNL d   1      51.606  34.027  52.159  0.00  0.00     0.002 A 
ENDBRANCH   5  18
TORSDOF 3
ENDMDL
MODEL 2
REMARK VINA RESULT:     -10.4      0.642      2.637
REMARK  3 active torsions:
REMARK  status: ('A' for Active; 'I' for Inactive)
REMARK       I    between atoms: C_4  and  N_1 
REMARK    1  A    between atoms: C_7  and  C_3 
REMARK    2  A    between atoms: C_9  and  C_4 
REMARK    3  A    between atoms: C_8  and  C_5 
ROOT
ATOM      1  N   UNL d   1      53.200  32.211  53.697  0.00  0.00    -0.191 N 
ATOM      2  N   UNL d   1      52.781  32.904  53.587  0.00  0.00    -0.163 NA
ATOM      3  C   UNL d   1      52.741  31.598  53.344  0.00  0.00     0.110 A 
ATOM      4  C   UNL d   1      53.914  32.120  54.070  0.00  0.00     0.303 C 
ATOM      5  C   UNL d   1      52.083  32.742  53.180  0.00  0.00     0.103 A 
ATOM      6  C   UNL d   1      52.058  31.946  53.032  0.00  0.00     0.042 A 
ATOM      7  O   UNL d   1      54.260  31.325  54.124  0.00  0.00    -0.263 OA
ENDROOT
BRANCH   3   8
ATOM      8  C   UNL d   1      52.942  30.797  53.317  0.00  0.00     0.118 A 
ATOM      9  O   UNL d   1      52.849  30.269  53.929  0.00  0.00    -0.304 OA
ATOM     10  C   UNL d   1      53.122  29.521  53.668  0.00  0.00     0.123 A 
ATOM     11  C   UNL d   1      53.379  29.612  52.889  0.00  0.00     0.029 A 
ATOM     12  C   UNL d   1      53.262  30.413  52.680  0.00  0.00     0.028 A 
ENDBRANCH   3   8
BRANCH   4  13
ATOM     13  C   UNL d   1      54.320  32.748  54.397  0.00  0.00     0.158 A 
ATOM     14  O   UNL d   1      54.848  33.246  54.015  0.00  0.00    -0.300 OA
ATOM     15  C   UNL d   1      55.129  33.803  54.548  0.00  0.00     0.123 A 
ATOM     16  C   UNL d   1      54.773  33.653  55.275  0.00  0.00     0.029 A 
ATOM     17  C   UNL d   1      54.269  33.000  55.188  0.00  0.00     0.032 A 
ENDBRANCH   4  13
BRANCH   5  18
ATOM     18  C   UNL d   1      51.518  33.317  52.970  0.00  0.00     0.019 A 
ATOM     19  C   UNL d   1      50.836  33.348  53.390  0.00  0.00     0.002 A 
ATOM     20  C   UNL d   1      50.255  33.905  53.210  0.00  0.00     0.000 A 
ATOM     21  C   UNL d   1      50.381  34.429  52.596  0.00  0.00     0.000 A 
ATOM     22  C   UNL d   1      51.084  34.411  52.148  0.00  0.00     0.000 A 
ATOM     23  C   UNL d   1      49.797  34.983  52.420  0.00  0.00     0.000 C 
ATOM     24  C   UNL d   1      51.669  33.832  52.348  0.00  0.00     0.002 A 
ENDBRANCH   5  18
TORSDOF 3
ENDMDL
MODEL 3
REMARK VINA RESULT:      -9.7      1.012      4.055
REMARK  3 active torsions:
REMARK  status: ('A' for Active; 'I' for Inactive)
REMARK       I    between atoms: C_4  and  N_1 
REMARK    1  A    between atoms: C_7  and  C_3 
REMARK    2  A    between atoms: C_9  and  C_4 
REMARK    3  A    between atoms: C_8  and  C_5 
ROOT
ATOM      1  N   UNL d   1      53.185  32.865  53.710  0.00  0.00    -0.191 N 
ATOM      2  N   UNL d   1      53.464  32.136  53.950  0.00  0.00    -0.163 NA
ATOM      3  C   UNL d   1      52.497  32.714  53.245  0.00  0.00     0.110 A 
ATOM      4  C   UNL d   1      53.498  33.593  53.880  0.00  0.00     0.303 C 
ATOM      5  C   UNL d   1      52.976  31.542  53.651  0.00  0.00     0.103 A 
ATOM      6  C   UNL d   1      52.387  31.894  53.222  0.00  0.00     0.042 A 
ATOM      7  O   UNL d   1      53.107  34.302  53.564  0.00  0.00    -0.263 OA
ENDROOT
BRANCH   3   8
ATOM      8  C   UNL d   1      52.025  33.286  52.881  0.00  0.00     0.118 A 
ATOM      9  O   UNL d   1      52.171  33.625  52.156  0.00  0.00    -0.304 OA
ATOM     10  C   UNL d   1      51.557  34.172  51.999  0.00  0.00     0.123 A 
ATOM     11  C   UNL d   1      51.042  34.155  52.643  0.00  0.00     0.029 A 
ATOM     12  C   UNL d   1      51.344  33.598  53.189  0.00  0.00     0.028 A 
ENDBRANCH   3   8
BRANCH   4  13
ATOM     13  C   UNL d   1      54.168  33.686  54.337  0.00  0.00     0.158 A 
ATOM     14  O   UNL d   1      54.946  33.577  54.099  0.00  0.00    -0.300 OA
ATOM     15  C   UNL d   1      55.446  33.728  54.731  0.00  0.00     0.123 A 
ATOM     16  C   UNL d   1      54.977  33.934  55.375  0.00  0.00     0.029 A 
ATOM     17  C   UNL d   1      54.183  33.910  55.137  0.00  0.00     0.032 A 
ENDBRANCH   4  13
BRANCH   5  18
ATOM     18  C   UNL d   1      53.093  30.727  53.784  0.00  0.00     0.019 A 
ATOM     19  C   UNL d   1      53.146  30.473  54.543  0.00  0.00     0.002 A 
ATOM     20  C   UNL d   1      53.261  29.674  54.711  0.00  0.00     0.000 A 
ATOM     21  C   UNL d   1      53.321  29.141  54.095  0.00  0.00     0.000 A 
ATOM     22  C   UNL d   1      53.269  29.388  53.300  0.00  0.00     0.000 A 
ATOM     23  C   UNL d   1      53.437  28.343  54.269  0.00  0.00     0.000 C 
ATOM     24  C   UNL d   1      53.150  30.212  53.147  0.00  0.00     0.002 A 
ENDBRANCH   5  18
TORSDOF 3
ENDMDL
MODEL 4
REMARK VINA RESULT:      -9.6      1.078      3.443
REMARK  3 active torsions:
REMARK  status: ('A' for Active; 'I' for Inactive)
REMARK       I    between atoms: C_4  and  N_1 
REMARK    1  A    between atoms: C_7  and  C_3 
REMARK    2  A    between atoms: C_9  and  C_4 
REMARK    3  A    between atoms: C_8  and  C_5 
ROOT
ATOM      1  N   UNL d   1      53.305  33.026  53.857  0.00  0.00    -0.191 N 
ATOM      2  N   UNL d   1      52.948  32.344  53.583  0.00  0.00    -0.163 NA
ATOM      3  C   UNL d   1      54.015  32.784  54.243  0.00  0.00     0.110 A 
ATOM      4  C   UNL d   1      53.038  33.788  53.779  0.00  0.00     0.303 C 
ATOM      5  C   UNL d   1      53.410  31.691  53.785  0.00  0.00     0.103 A 
ATOM      6  C   UNL d   1      54.060  31.959  54.187  0.00  0.00     0.042 A 
ATOM      7  O   UNL d   1      53.511  34.434  54.116  0.00  0.00    -0.263 OA
ENDROOT
BRANCH   3   8
ATOM      8  C   UNL d   1      54.561  33.284  54.609  0.00  0.00     0.118 A 
ATOM      9  O   UNL d   1      55.203  33.625  54.244  0.00  0.00    -0.304 OA
ATOM     10  C   UNL d   1      55.607  34.087  54.813  0.00  0.00     0.123 A 
ATOM     11  C   UNL d   1      55.196  34.016  55.525  0.00  0.00     0.029 A 
ATOM     12  C   UNL d   1      54.544  33.512  55.385  0.00  0.00     0.028 A 
ENDBRANCH   3   8
BRANCH   4  13
ATOM     13  C   UNL d   1      52.341  33.970  53.395  0.00  0.00     0.158 A 
ATOM     14  O   UNL d   1      51.578  33.848  53.672  0.00  0.00    -0.300 OA
ATOM     15  C   UNL d   1      51.041  34.111  53.111  0.00  0.00     0.123 A 
ATOM     16  C   UNL d   1      51.471  34.401  52.473  0.00  0.00     0.029 A 
ATOM     17  C   UNL d   1      52.279  34.317  52.642  0.00  0.00     0.032 A 
ENDBRANCH   4  13
BRANCH   5  18
ATOM     18  C   UNL d   1      53.217  30.903  53.595  0.00  0.00     0.019 A 
ATOM     19  C   UNL d   1      53.331  30.341  54.155  0.00  0.00     0.002 A 
ATOM     20  C   UNL d   1      53.151  29.551  54.001  0.00  0.00     0.000 A 
ATOM     21  C   UNL d   1      52.853  29.345  53.269  0.00  0.00     0.000 A 
ATOM     22  C   UNL d   1      52.728  29.916  52.675  0.00  0.00     0.000 A 
ATOM     23  C   UNL d   1      52.675  28.554  53.121  0.00  0.00     0.000 C 
ATOM     24  C   UNL d   1      52.919  30.722  52.852  0.00  0.00     0.002 A 
ENDBRANCH   5  18
TORSDOF 3
ENDMDL
MODEL 5
REMARK VINA RESULT:      -8.7      1.133      3.964
REMARK  3 active torsions:
REMARK  status: ('A' for Active; 'I' for Inactive)
REMARK       I    between atoms: C_4  and  N_1 
REMARK    1  A    between atoms: C_7  and  C_3 
REMARK    2  A    between atoms: C_9  and  C_4 
REMARK    3  A    between atoms: C_8  and  C_5 
ROOT
ATOM      1  N   UNL d   1      52.703  32.202  53.293  0.00  0.00    -0.191 N 
ATOM      2  N   UNL d   1      53.113  32.819  53.638  0.00  0.00    -0.163 NA
ATOM      3  C   UNL d   1      53.159  31.506  53.435  0.00  0.00     0.110 A 
ATOM      4  C   UNL d   1      52.000  32.240  52.892  0.00  0.00     0.303 C 
ATOM      5  C   UNL d   1      53.803  32.531  53.987  0.00  0.00     0.103 A 
ATOM      6  C   UNL d   1      53.830  31.731  53.864  0.00  0.00     0.042 A 
ATOM      7  O   UNL d   1      51.662  31.508  52.569  0.00  0.00    -0.263 OA
ENDROOT
BRANCH   3   8
ATOM      8  C   UNL d   1      52.964  30.742  53.189  0.00  0.00     0.118 A 
ATOM      9  O   UNL d   1      53.026  30.464  52.427  0.00  0.00    -0.304 OA
ATOM     10  C   UNL d   1      52.772  29.666  52.424  0.00  0.00     0.123 A 
ATOM     11  C   UNL d   1      52.558  29.471  53.196  0.00  0.00     0.029 A 
ATOM     12  C   UNL d   1      52.682  30.152  53.666  0.00  0.00     0.028 A 
ENDBRANCH   3   8
BRANCH   4  13
ATOM     13  C   UNL d   1      51.597  32.942  52.781  0.00  0.00     0.158 A 
ATOM     14  O   UNL d   1      51.729  33.498  52.193  0.00  0.00    -0.300 OA
ATOM     15  C   UNL d   1      51.202  34.119  52.284  0.00  0.00     0.123 A 
ATOM     16  C   UNL d   1      50.731  33.951  52.938  0.00  0.00     0.029 A 
ATOM     17  C   UNL d   1      50.971  33.221  53.251  0.00  0.00     0.032 A 
ENDBRANCH   4  13
BRANCH   5  18
ATOM     18  C   UNL d   1      54.357  33.004  54.391  0.00  0.00     0.019 A 
ATOM     19  C   UNL d   1      54.215  33.179  55.160  0.00  0.00     0.002 A 
ATOM     20  C   UNL d   1      54.742  33.645  55.590  0.00  0.00     0.000 A 
ATOM     21  C   UNL d   1      55.415  33.929  55.223  0.00  0.00     0.000 A 
ATOM     22  C   UNL d   1      55.579  33.756  54.424  0.00  0.00     0.000 A 
ATOM     23  C   UNL d   1      55.938  34.394  55.658  0.00  0.00     0.000 C 
ATOM     24  C   UNL d   1      55.026  33.276  53.999  0.00  0.00     0.002 A 
ENDBRANCH   5  18
TORSDOF 3
ENDMDL
MODEL 6
REMARK VINA RESULT:      -8.3      1.047      3.559
REMARK  3 active torsions:
REMARK  status: ('A' for Active; 'I' for Inactive)
REMARK       I    between atoms: C_4  and  N_1 
REMARK    1  A    between atoms: C_7  and  C_3 
REMARK    2  A    between atoms: C_9  and  C_4 
REMARK    3  A    between atoms: C_8  and  C_5 
ROOT
ATOM      1  N   UNL d   1      52.438  32.556  53.271  0.00  0.00    -0.191 N 
ATOM      2  N   UNL d   1      53.142  32.540  53.685  0.00  0.00    -0.163 NA
ATOM      3  C   UNL d   1      52.169  33.355  53.291  0.00  0.00     0.110 A 
ATOM      4  C   UNL d   1      52.065  31.934  52.909  0.00  0.00     0.303 C 
ATOM      5  C   UNL d   1      53.318  33.299  53.959  0.00  0.00     0.103 A 
ATOM      6  C   UNL d   1      52.724  33.794  53.719  0.00  0.00     0.042 A 
ATOM      7  O   UNL d   1      51.314  32.078  52.497  0.00  0.00    -0.263 OA
ENDROOT
BRANCH   3   8
ATOM      8  C   UNL d   1      51.476  33.641  52.944  0.00  0.00     0.118 A 
ATOM      9  O   UNL d   1      50.734  33.604  53.277  0.00  0.00    -0.304 OA
ATOM     10  C   UNL d   1      50.194  33.956  52.743  0.00  0.00     0.123 A 
ATOM     11  C   UNL d   1      50.625  34.203  52.084  0.00  0.00     0.029 A 
ATOM     12  C   UNL d   1      51.425  34.001  52.221  0.00  0.00     0.028 A 
ENDBRANCH   3   8
BRANCH   4  13
ATOM     13  C   UNL d   1      52.368  31.176  52.919  0.00  0.00     0.158 A 
ATOM     14  O   UNL d   1      52.932  30.864  52.410  0.00  0.00    -0.300 OA
ATOM     15  C   UNL d   1      53.078  30.084  52.614  0.00  0.00     0.123 A 
ATOM     16  C   UNL d   1      52.601  29.902  53.259  0.00  0.00     0.029 A 
ATOM     17  C   UNL d   1      52.158  30.576  53.453  0.00  0.00     0.032 A 
ENDBRANCH   4  13
BRANCH   5  18
ATOM     18  C   UNL d   1      53.995  33.491  54.404  0.00  0.00     0.019 A 
ATOM     19  C   UNL d   1      53.901  33.659  55.182  0.00  0.00     0.002 A 
ATOM     20  C   UNL d   1      54.549  33.854  55.652  0.00  0.00     0.000 A 
ATOM     21  C   UNL d   1      55.294  33.874  55.317  0.00  0.00     0.000 A 
ATOM     22  C   UNL d   1      55.411  33.702  54.509  0.00  0.00     0.000 A 
ATOM     23  C   UNL d   1      55.939  34.069  55.792  0.00  0.00     0.000 C 
ATOM     24  C   UNL d   1      54.733  33.504  54.043  0.00  0.00     0.002 A 
ENDBRANCH   5  18
TORSDOF 3
ENDMDL
