MODEL 1
REMARK VINA RESULT:      -8.0      0.000      0.000
REMARK  6 active torsions:
REMARK  status: ('A' for Active; 'I' for Inactive)
REMARK    1  A    between atoms: S_6  and  C_1 
REMARK    2  A    between atoms: C_13  and  S_6 
REMARK    3  A    between atoms: C_7  and  O_9 
REMARK    4  A    between atoms: O_9  and  C_14 
REMARK    5  A    between atoms: C_10  and  C_13 
REMARK    6  A    between atoms: C_14  and  C_10 
ROOT
ATOM      1  C   UNL d   1      50.866  34.214  53.078  0.00  0.00     0.040 C 
ENDROOT
BRANCH   1   2
ATOM      2  C   UNL d   1      50.246  34.391  52.565  0.00  0.00     0.034 C 
BRANCH   2   3
ATOM      3  C   UNL d   1      49.615  34.854  52.828  0.00  0.00     0.123 C 
BRANCH   3   4
ATOM      4  O   UNL d   1      48.976  34.978  52.325  0.00  0.00    -0.305 OA
BRANCH   4   5
ATOM      5  C   UNL d   1      48.383  35.505  52.536  0.00  0.00     0.100 A 
ATOM      6  C   UNL d   1      47.766  35.662  52.014  0.00  0.00     0.023 A 
ATOM      7  C   UNL d   1      47.736  35.293  51.276  0.00  0.00     0.002 C 
ATOM      8  C   UNL d   1      47.167  36.197  52.233  0.00  0.00     0.002 A 
ATOM      9  C   UNL d   1      47.194  36.567  52.968  0.00  0.00     0.000 A 
ATOM     10  C   UNL d   1      47.820  36.404  53.490  0.00  0.00     0.002 A 
ATOM     11  C   UNL d   1      48.415  35.874  53.277  0.00  0.00     0.025 A 
ENDBRANCH   4   5
ENDBRANCH   3   4
ENDBRANCH   2   3
ENDBRANCH   1   2
BRANCH   1  12
ATOM     12  S   UNL d   1      51.604  34.020  52.768  0.00  0.00    -0.048 SA
BRANCH  12  13
ATOM     13  C   UNL d   1      52.225  33.819  53.270  0.00  0.00     0.194 A 
ATOM     14  N   UNL d   1      52.633  34.328  53.781  0.00  0.00    -0.220 NA
ATOM     15  C   UNL d   1      53.212  33.884  54.176  0.00  0.00     0.101 A 
ATOM     16  C   UNL d   1      53.773  34.100  54.740  0.00  0.00     0.021 A 
ATOM     17  C   UNL d   1      53.168  33.097  53.914  0.00  0.00     0.101 A 
ATOM     18  C   UNL d   1      54.287  33.536  55.044  0.00  0.00     0.002 A 
ATOM     19  C   UNL d   1      54.244  32.756  54.785  0.00  0.00     0.002 A 
ATOM     20  C   UNL d   1      53.686  32.540  54.222  0.00  0.00     0.021 A 
ATOM     21  N   UNL d   1      52.552  33.055  53.349  0.00  0.00    -0.220 NA
ENDBRANCH  12  13
ENDBRANCH   1  12
TORSDOF 6
ENDMDL
MODEL 2
REMARK VINA RESULT:      -7.6      1.570      5.711
REMARK  6 active torsions:
REMARK  status: ('A' for Active; 'I' for Inactive)
REMARK    1  A    between atoms: S_6  and  C_1 
REMARK    2  A    between atoms: C_13  and  S_6 
REMARK    3  A    between atoms: C_7  and  O_9 
REMARK    4  A    between atoms: O_9  and  C_14 
REMARK    5  A    between atoms: C_10  and  C_13 
REMARK    6  A    between atoms: C_14  and  C_10 
ROOT
ATOM      1  C   UNL d   1      50.818  34.442  52.961  0.00  0.00     0.040 C 
ENDROOT
BRANCH   1   2
ATOM      2  C   UNL d   1      51.490  33.981  52.847  0.00  0.00     0.034 C 
BRANCH   2   3
ATOM      3  C   UNL d   1      52.077  33.959  53.428  0.00  0.00     0.123 C 
BRANCH   3   4
ATOM      4  O   UNL d   1      52.620  33.341  53.422  0.00  0.00    -0.305 OA
BRANCH   4   5
ATOM      5  C   UNL d   1      53.238  33.331  53.963  0.00  0.00     0.100 A 
ATOM      6  C   UNL d   1      53.711  32.662  54.036  0.00  0.00     0.023 A 
ATOM      7  C   UNL d   1      53.571  31.996  53.569  0.00  0.00     0.002 C 
ATOM      8  C   UNL d   1      54.336  32.657  54.585  0.00  0.00     0.002 A 
ATOM      9  C   UNL d   1      54.478  33.320  55.053  0.00  0.00     0.000 A 
ATOM     10  C   UNL d   1      53.996  33.993  54.974  0.00  0.00     0.002 A 
ATOM     11  C   UNL d   1      53.376  34.001  54.430  0.00  0.00     0.025 A 
ENDBRANCH   4   5
ENDBRANCH   3   4
ENDBRANCH   2   3
ENDBRANCH   1   2
BRANCH   1  12
ATOM     12  S   UNL d   1      50.139  34.283  52.522  0.00  0.00    -0.048 SA
BRANCH  12  13
ATOM     13  C   UNL d   1      49.487  34.783  52.570  0.00  0.00     0.194 A 
ATOM     14  N   UNL d   1      49.276  35.261  53.213  0.00  0.00    -0.220 NA
ATOM     15  C   UNL d   1      48.581  35.667  53.013  0.00  0.00     0.101 A 
ATOM     16  C   UNL d   1      48.127  36.210  53.436  0.00  0.00     0.021 A 
ATOM     17  C   UNL d   1      48.354  35.445  52.245  0.00  0.00     0.101 A 
ATOM     18  C   UNL d   1      47.451  36.532  53.097  0.00  0.00     0.002 A 
ATOM     19  C   UNL d   1      47.227  36.312  52.336  0.00  0.00     0.002 A 
ATOM     20  C   UNL d   1      47.678  35.771  51.915  0.00  0.00     0.021 A 
ATOM     21  N   UNL d   1      48.919  34.893  51.968  0.00  0.00    -0.220 NA
ENDBRANCH  12  13
ENDBRANCH   1  12
TORSDOF 6
ENDMDL
MODEL 3
REMARK VINA RESULT:      -7.1      1.774      5.787
REMARK  6 active torsions:
REMARK  status: ('A' for Active; 'I' for Inactive)
REMARK    1  A    between atoms: S_6  and  C_1 
REMARK    2  A    between atoms: C_13  and  S_6 
REMARK    3  A    between atoms: C_7  and  O_9 
REMARK    4  A    between atoms: O_9  and  C_14 
REMARK    5  A    between atoms: C_10  and  C_13 
REMARK    6  A    between atoms: C_14  and  C_10 
ROOT
ATOM      1  C   UNL d   1      50.607  34.068  52.939  0.00  0.00     0.040 C 
ENDROOT
BRANCH   1   2
ATOM      2  C   UNL d   1      51.414  33.915  52.885  0.00  0.00     0.034 C 
BRANCH   2   3
ATOM      3  C   UNL d   1      51.704  33.167  53.078  0.00  0.00     0.123 C 
BRANCH   3   4
ATOM      4  O   UNL d   1      52.503  33.084  53.258  0.00  0.00    -0.305 OA
BRANCH   4   5
ATOM      5  C   UNL d   1      52.836  32.336  53.314  0.00  0.00     0.100 A 
ATOM      6  C   UNL d   1      53.544  32.229  53.719  0.00  0.00     0.023 A 
ATOM      7  C   UNL d   1      53.925  32.870  54.074  0.00  0.00     0.002 C 
ATOM      8  C   UNL d   1      53.878  31.469  53.773  0.00  0.00     0.002 A 
ATOM      9  C   UNL d   1      53.500  30.828  53.420  0.00  0.00     0.000 A 
ATOM     10  C   UNL d   1      52.786  30.943  53.012  0.00  0.00     0.002 A 
ATOM     11  C   UNL d   1      52.451  31.695  52.957  0.00  0.00     0.025 A 
ENDBRANCH   4   5
ENDBRANCH   3   4
ENDBRANCH   2   3
ENDBRANCH   1   2
BRANCH   1  12
ATOM     12  S   UNL d   1      50.227  34.463  52.324  0.00  0.00    -0.048 SA
BRANCH  12  13
ATOM     13  C   UNL d   1      49.533  34.882  52.464  0.00  0.00     0.194 A 
ATOM     14  N   UNL d   1      49.341  35.304  53.151  0.00  0.00    -0.220 NA
ATOM     15  C   UNL d   1      48.588  35.637  53.045  0.00  0.00     0.101 A 
ATOM     16  C   UNL d   1      48.125  36.106  53.540  0.00  0.00     0.021 A 
ATOM     17  C   UNL d   1      48.307  35.425  52.292  0.00  0.00     0.101 A 
ATOM     18  C   UNL d   1      47.387  36.363  53.289  0.00  0.00     0.002 A 
ATOM     19  C   UNL d   1      47.108  36.153  52.543  0.00  0.00     0.002 A 
ATOM     20  C   UNL d   1      47.569  35.686  52.049  0.00  0.00     0.021 A 
ATOM     21  N   UNL d   1      48.896  34.954  51.929  0.00  0.00    -0.220 NA
ENDBRANCH  12  13
ENDBRANCH   1  12
TORSDOF 6
ENDMDL
MODEL 4
REMARK VINA RESULT:      -5.5     10.450     11.144
REMARK  6 active torsions:
REMARK  status: ('A' for Active; 'I' for Inactive)
REMARK    1  A    between atoms: S_6  and  C_1 
REMARK    2  A    between atoms: C_13  and  S_6 
REMARK    3  A    between atoms: C_7  and  O_9 
REMARK    4  A    between atoms: O_9  and  C_14 
REMARK    5  A    between atoms: C_10  and  C_13 
REMARK    6  A    between atoms: C_14  and  C_10 
ROOT
ATOM      1  C   UNL d   1      44.649  30.012  60.042  0.00  0.00     0.040 C 
ENDROOT
BRANCH   1   2
ATOM      2  C   UNL d   1      44.767  29.924  59.232  0.00  0.00     0.034 C 
BRANCH   2   3
ATOM      3  C   UNL d   1      44.781  29.169  58.899  0.00  0.00     0.123 C 
BRANCH   3   4
ATOM      4  O   UNL d   1      45.033  29.082  58.120  0.00  0.00    -0.305 OA
BRANCH   4   5
ATOM      5  C   UNL d   1      45.051  28.337  57.775  0.00  0.00     0.100 A 
ATOM      6  C   UNL d   1      44.899  28.252  56.970  0.00  0.00     0.023 A 
ATOM      7  C   UNL d   1      44.726  28.911  56.504  0.00  0.00     0.002 C 
ATOM      8  C   UNL d   1      44.919  27.495  56.625  0.00  0.00     0.002 A 
ATOM      9  C   UNL d   1      45.091  26.836  57.088  0.00  0.00     0.000 A 
ATOM     10  C   UNL d   1      45.244  26.929  57.899  0.00  0.00     0.002 A 
ATOM     11  C   UNL d   1      45.225  27.678  58.245  0.00  0.00     0.025 A 
ENDBRANCH   4   5
ENDBRANCH   3   4
ENDBRANCH   2   3
ENDBRANCH   1   2
BRANCH   1  12
ATOM     12  S   UNL d   1      44.554  30.767  60.357  0.00  0.00    -0.048 SA
BRANCH  12  13
ATOM     13  C   UNL d   1      44.500  30.874  61.171  0.00  0.00     0.194 A 
ATOM     14  N   UNL d   1      44.486  30.279  61.749  0.00  0.00    -0.220 NA
ATOM     15  C   UNL d   1      44.428  30.644  62.491  0.00  0.00     0.101 A 
ATOM     16  C   UNL d   1      44.393  30.328  63.252  0.00  0.00     0.021 A 
ATOM     17  C   UNL d   1      44.406  31.467  62.382  0.00  0.00     0.101 A 
ATOM     18  C   UNL d   1      44.336  30.828  63.901  0.00  0.00     0.002 A 
ATOM     19  C   UNL d   1      44.314  31.644  63.793  0.00  0.00     0.002 A 
ATOM     20  C   UNL d   1      44.349  31.959  63.036  0.00  0.00     0.021 A 
ATOM     21  N   UNL d   1      44.451  31.612  61.559  0.00  0.00    -0.220 NA
ENDBRANCH  12  13
ENDBRANCH   1  12
TORSDOF 6
ENDMDL
MODEL 5
REMARK VINA RESULT:      -5.1     10.444     11.187
REMARK  6 active torsions:
REMARK  status: ('A' for Active; 'I' for Inactive)
REMARK    1  A    between atoms: S_6  and  C_1 
REMARK    2  A    between atoms: C_13  and  S_6 
REMARK    3  A    between atoms: C_7  and  O_9 
REMARK    4  A    between atoms: O_9  and  C_14 
REMARK    5  A    between atoms: C_10  and  C_13 
REMARK    6  A    between atoms: C_14  and  C_10 
ROOT
ATOM      1  C   UNL d   1      44.953  26.843  56.742  0.00  0.00     0.040 C 
ENDROOT
BRANCH   1   2
ATOM      2  C   UNL d   1      44.901  26.021  56.752  0.00  0.00     0.034 C 
BRANCH   2   3
ATOM      3  C   UNL d   1      44.767  25.611  56.048  0.00  0.00     0.123 C 
BRANCH   3   4
ATOM      4  O   UNL d   1      44.857  24.793  56.041  0.00  0.00    -0.305 OA
BRANCH   4   5
ATOM      5  C   UNL d   1      44.753  24.373  55.343  0.00  0.00     0.100 A 
ATOM      6  C   UNL d   1      44.981  23.584  55.299  0.00  0.00     0.023 A 
ATOM      7  C   UNL d   1      45.315  23.206  55.953  0.00  0.00     0.002 C 
ATOM      8  C   UNL d   1      44.874  23.163  54.589  0.00  0.00     0.002 A 
ATOM      9  C   UNL d   1      44.542  23.537  53.935  0.00  0.00     0.000 A 
ATOM     10  C   UNL d   1      44.314  24.335  53.987  0.00  0.00     0.002 A 
ATOM     11  C   UNL d   1      44.419  24.755  54.689  0.00  0.00     0.025 A 
ENDBRANCH   4   5
ENDBRANCH   3   4
ENDBRANCH   2   3
ENDBRANCH   1   2
BRANCH   1  12
ATOM     12  S   UNL d   1      45.321  27.232  57.368  0.00  0.00    -0.048 SA
BRANCH  12  13
ATOM     13  C   UNL d   1      45.201  28.038  57.484  0.00  0.00     0.194 A 
ATOM     14  N   UNL d   1      44.979  28.593  56.909  0.00  0.00    -0.220 NA
ATOM     15  C   UNL d   1      44.925  29.335  57.277  0.00  0.00     0.101 A 
ATOM     16  C   UNL d   1      44.728  30.078  56.979  0.00  0.00     0.021 A 
ATOM     17  C   UNL d   1      45.113  29.247  58.082  0.00  0.00     0.101 A 
ATOM     18  C   UNL d   1      44.718  30.731  57.478  0.00  0.00     0.002 A 
ATOM     19  C   UNL d   1      44.904  30.644  58.275  0.00  0.00     0.002 A 
ATOM     20  C   UNL d   1      45.100  29.904  58.573  0.00  0.00     0.021 A 
ATOM     21  N   UNL d   1      45.285  28.438  58.212  0.00  0.00    -0.220 NA
ENDBRANCH  12  13
ENDBRANCH   1  12
TORSDOF 6
ENDMDL
