MODEL 1
REMARK VINA RESULT:      44.0      0.000      0.000
REMARK  4 active torsions:
REMARK  status: ('A' for Active; 'I' for Inactive)
REMARK    1  A    between atoms: C_7  and  N_2 
REMARK    2  A    between atoms: C_12  and  C_7 
REMARK    3  A    between atoms: C_9  and  O_11 
REMARK    4  A    between atoms: O_11  and  C_12 
ROOT
ATOM      1  C   UNL d   1     -51.589  26.339  33.315  0.00  0.00     0.296 A 
ATOM      2  N   UNL d   1     -50.861  25.958  33.325  0.00  0.00    -0.266 N 
ATOM      3  S   UNL d   1     -52.184  25.750  33.306  0.00  0.00    -0.025 SA
ATOM      4  C   UNL d   1     -50.997  25.140  33.322  0.00  0.00     0.074 A 
ATOM      5  C   UNL d   1     -51.808  25.012  33.311  0.00  0.00     0.050 A 
ATOM      6  O   UNL d   1     -51.716  27.150  33.314  0.00  0.00    -0.259 OA
ATOM      7  C   UNL d   1     -50.473  24.499  33.329  0.00  0.00     0.018 A 
ATOM      8  C   UNL d   1     -52.114  24.241  33.306  0.00  0.00     0.008 A 
ATOM      9  C   UNL d   1     -50.775  23.729  33.324  0.00  0.00     0.002 A 
ATOM     10  C   UNL d   1     -51.586  23.601  33.313  0.00  0.00     0.001 A 
ENDROOT
BRANCH   2  11
ATOM     11  C   UNL d   1     -50.122  26.324  33.336  0.00  0.00     0.110 C 
BRANCH  11  12
ATOM     12  C   UNL d   1     -49.927  26.849  33.938  0.00  0.00     0.142 C 
BRANCH  12  13
ATOM     13  O   UNL d   1     -49.151  27.122  34.031  0.00  0.00    -0.304 OA
BRANCH  13  14
ATOM     14  C   UNL d   1     -48.963  27.643  34.643  0.00  0.00     0.100 A 
ATOM     15  C   UNL d   1     -48.465  28.285  34.498  0.00  0.00     0.025 A 
ATOM     16  C   UNL d   1     -48.278  28.802  35.107  0.00  0.00     0.002 A 
ATOM     17  C   UNL d   1     -47.781  29.443  34.962  0.00  0.00     0.000 C 
ATOM     18  C   UNL d   1     -48.590  28.677  35.861  0.00  0.00     0.000 A 
ATOM     19  C   UNL d   1     -49.089  28.032  36.002  0.00  0.00     0.002 A 
ATOM     20  C   UNL d   1     -49.271  27.518  35.386  0.00  0.00     0.025 A 
ENDBRANCH  13  14
ENDBRANCH  12  13
ENDBRANCH  11  12
ENDBRANCH   2  11
TORSDOF 4
ENDMDL
