MODEL 1
REMARK VINA RESULT:      40.2      0.000      0.000
REMARK  7 active torsions:
REMARK  status: ('A' for Active; 'I' for Inactive)
REMARK    1  A    between atoms: C_7  and  N_1 
REMARK    2  A    between atoms: S_15  and  C_3 
REMARK    3  A    between atoms: O_8  and  C_7 
REMARK    4  A    between atoms: C_10  and  O_8 
REMARK    5  A    between atoms: C_19  and  C_10 
REMARK    6  A    between atoms: C_13  and  O_14 
REMARK    7  A    between atoms: O_14  and  C_19 
ROOT
ATOM      1  O   UNL d   1      14.078  12.949  -2.806  0.00  0.00    -0.251 OA
ENDROOT
BRANCH   1   2
ATOM      2  C   UNL d   1      14.163  12.184  -2.507  0.00  0.00     0.215 C 
BRANCH   2   3
ATOM      3  N   UNL d   1      14.198  12.058  -1.689  0.00  0.00    -0.229 N 
ATOM      4  C   UNL d   1      13.499  11.982  -1.257  0.00  0.00     0.287 A 
ATOM      5  C   UNL d   1      13.530  11.855  -0.441  0.00  0.00     0.159 A 
ATOM      6  O   UNL d   1      12.770  12.032  -1.639  0.00  0.00    -0.265 OA
ATOM      7  C   UNL d   1      12.820  11.780  -0.015  0.00  0.00     0.028 C 
ATOM      8  N   UNL d   1      14.260  11.805  -0.059  0.00  0.00    -0.141 NA
ATOM      9  N   UNL d   1      14.958  11.881  -0.492  0.00  0.00    -0.123 NA
ATOM     10  C   UNL d   1      14.928  12.008  -1.307  0.00  0.00     0.200 A 
BRANCH  10  11
ATOM     11  S   UNL d   1      15.626  12.084  -1.740  0.00  0.00    -0.074 SA
ATOM     12  C   UNL d   1      16.267  12.491  -1.419  0.00  0.00     0.077 C 
ENDBRANCH  10  11
ENDBRANCH   2   3
ENDBRANCH   1   2
BRANCH   1  13
ATOM     13  C   UNL d   1      13.703  13.069  -3.531  0.00  0.00     0.327 C 
ATOM     14  O   UNL d   1      13.123  12.541  -3.789  0.00  0.00    -0.256 OA
BRANCH  13  15
ATOM     15  C   UNL d   1      13.909  13.716  -4.000  0.00  0.00     0.191 C 
BRANCH  15  16
ATOM     16  O   UNL d   1      13.670  14.472  -3.786  0.00  0.00    -0.299 OA
BRANCH  16  17
ATOM     17  C   UNL d   1      14.079  15.131  -4.066  0.00  0.00     0.111 A 
ATOM     18  C   UNL d   1      14.403  15.669  -3.543  0.00  0.00     0.081 A 
ATOM     19  C   UNL d   1      14.813  16.328  -3.824  0.00  0.00     0.025 A 
ATOM     20 CL   UNL d   1      14.316  15.547  -2.718  0.00  0.00    -0.080 Cl
ATOM     21  C   UNL d   1      14.899  16.448  -4.628  0.00  0.00     0.059 A 
ATOM     22  C   UNL d   1      14.574  15.908  -5.160  0.00  0.00     0.013 A 
ATOM     23 CL   UNL d   1      15.309  17.109  -4.904  0.00  0.00    -0.082 Cl
ATOM     24  C   UNL d   1      14.164  15.249  -4.879  0.00  0.00     0.026 A 
ENDBRANCH  16  17
ENDBRANCH  15  16
ENDBRANCH  13  15
ENDBRANCH   1  13
TORSDOF 7
ENDMDL
