MODEL 1
REMARK VINA RESULT:      -5.4      0.000      0.000
REMARK  3 active torsions:
REMARK  status: ('A' for Active; 'I' for Inactive)
REMARK    1  A    between atoms: C_9  and  C_1 
REMARK    2  A    between atoms: C_11  and  C_2 
REMARK    3  A    between atoms: C_3  and  C_9 
ROOT
ATOM      1  C   UNL d   1     -41.314-122.441 -52.110  0.00  0.00     0.003 A 
ATOM      2  C   UNL d   1     -41.695-122.826 -50.565  0.00  0.00    -0.023 A 
ATOM      3  C   UNL d   1     -41.415-121.851 -51.546  0.00  0.00    -0.000 A 
ATOM      4  C   UNL d   1     -41.405-123.219 -51.895  0.00  0.00    -0.000 A 
ATOM      5  C   UNL d   1     -41.595-123.417 -51.126  0.00  0.00    -0.004 A 
ATOM      6  C   UNL d   1     -41.604-122.048 -50.780  0.00  0.00    -0.004 A 
ATOM      7  C   UNL d   1     -41.304-123.817 -52.462  0.00  0.00    -0.000 C 
ATOM      8  C   UNL d   1     -41.325-121.056 -51.757  0.00  0.00    -0.000 C 
ENDROOT
BRANCH   1   9
ATOM      9  C   UNL d   1     -41.123-122.241 -52.887  0.00  0.00     0.039 C 
BRANCH   9  10
ATOM     10  C   UNL d   1     -41.546-122.185 -53.596  0.00  0.00     0.163 A 
ATOM     11  N   UNL d   1     -42.333-121.945 -53.676  0.00  0.00    -0.224 NA
ATOM     12  C   UNL d   1     -42.520-121.973 -54.476  0.00  0.00     0.121 A 
ATOM     13  C   UNL d   1     -41.860-122.227 -54.900  0.00  0.00     0.121 A 
ATOM     14  N   UNL d   1     -41.253-122.360 -54.359  0.00  0.00    -0.224 NA
ENDBRANCH   9  10
ENDBRANCH   1   9
BRANCH   2  15
ATOM     15  C   UNL d   1     -41.886-123.026 -49.788  0.00  0.00     0.019 C 
ATOM     16  C   UNL d   1     -42.078-123.225 -49.011  0.00  0.00     0.004 C 
ATOM     17  C   UNL d   1     -41.127-123.328 -49.679  0.00  0.00     0.004 C 
ATOM     18  C   UNL d   1     -42.646-122.723 -49.898  0.00  0.00     0.004 C 
ENDBRANCH   2  15
TORSDOF 3
ENDMDL
MODEL 2
REMARK VINA RESULT:      -5.4      0.126      1.289
REMARK  3 active torsions:
REMARK  status: ('A' for Active; 'I' for Inactive)
REMARK    1  A    between atoms: C_9  and  C_1 
REMARK    2  A    between atoms: C_11  and  C_2 
REMARK    3  A    between atoms: C_3  and  C_9 
ROOT
ATOM      1  C   UNL d   1     -41.308-122.434 -52.229  0.00  0.00     0.003 A 
ATOM      2  C   UNL d   1     -41.675-122.858 -50.691  0.00  0.00    -0.023 A 
ATOM      3  C   UNL d   1     -41.379-123.227 -52.020  0.00  0.00    -0.000 A 
ATOM      4  C   UNL d   1     -41.422-121.861 -51.665  0.00  0.00    -0.000 A 
ATOM      5  C   UNL d   1     -41.605-122.066 -50.896  0.00  0.00    -0.004 A 
ATOM      6  C   UNL d   1     -41.562-123.431 -51.254  0.00  0.00    -0.004 A 
ATOM      7  C   UNL d   1     -41.351-121.060 -51.871  0.00  0.00    -0.000 C 
ATOM      8  C   UNL d   1     -41.265-123.817 -52.588  0.00  0.00    -0.000 C 
ENDROOT
BRANCH   1   9
ATOM      9  C   UNL d   1     -41.123-122.227 -53.005  0.00  0.00     0.039 C 
BRANCH   9  10
ATOM     10  C   UNL d   1     -41.552-122.163 -53.710  0.00  0.00     0.163 A 
ATOM     11  N   UNL d   1     -42.341-121.927 -53.780  0.00  0.00    -0.224 NA
ATOM     12  C   UNL d   1     -42.534-121.945 -54.580  0.00  0.00     0.121 A 
ATOM     13  C   UNL d   1     -41.876-122.191 -55.012  0.00  0.00     0.121 A 
ATOM     14  N   UNL d   1     -41.264-122.328 -54.477  0.00  0.00    -0.224 NA
ENDBRANCH   9  10
ENDBRANCH   1   9
BRANCH   2  15
ATOM     15  C   UNL d   1     -41.860-123.066 -49.914  0.00  0.00     0.019 C 
ATOM     16  C   UNL d   1     -42.046-123.273 -49.137  0.00  0.00     0.004 C 
ATOM     17  C   UNL d   1     -42.597-122.703 -49.993  0.00  0.00     0.004 C 
ATOM     18  C   UNL d   1     -41.124-123.428 -49.835  0.00  0.00     0.004 C 
ENDBRANCH   2  15
TORSDOF 3
ENDMDL
MODEL 3
REMARK VINA RESULT:      -4.6      1.254      3.818
REMARK  3 active torsions:
REMARK  status: ('A' for Active; 'I' for Inactive)
REMARK    1  A    between atoms: C_9  and  C_1 
REMARK    2  A    between atoms: C_11  and  C_2 
REMARK    3  A    between atoms: C_3  and  C_9 
ROOT
ATOM      1  C   UNL d   1     -41.369-122.441 -52.568  0.00  0.00     0.003 A 
ATOM      2  C   UNL d   1     -41.837-122.202 -54.119  0.00  0.00    -0.023 A 
ATOM      3  C   UNL d   1     -41.366-123.064 -53.106  0.00  0.00    -0.000 A 
ATOM      4  C   UNL d   1     -41.607-121.704 -52.812  0.00  0.00    -0.000 A 
ATOM      5  C   UNL d   1     -41.842-121.579 -53.585  0.00  0.00    -0.004 A 
ATOM      6  C   UNL d   1     -41.599-122.939 -53.875  0.00  0.00    -0.004 A 
ATOM      7  C   UNL d   1     -41.613-121.073 -52.272  0.00  0.00    -0.000 C 
ATOM      8  C   UNL d   1     -41.125-123.817 -52.866  0.00  0.00    -0.000 C 
ENDROOT
BRANCH   1   9
ATOM      9  C   UNL d   1     -41.133-122.568 -51.788  0.00  0.00     0.039 C 
BRANCH   9  10
ATOM     10  C   UNL d   1     -41.516-122.803 -51.094  0.00  0.00     0.163 A 
ATOM     11  N   UNL d   1     -42.210-122.476 -50.786  0.00  0.00    -0.224 NA
ATOM     12  C   UNL d   1     -42.387-122.880 -50.092  0.00  0.00     0.121 A 
ATOM     13  C   UNL d   1     -41.813-123.457 -49.960  0.00  0.00     0.121 A 
ATOM     14  N   UNL d   1     -41.270-123.414 -50.579  0.00  0.00    -0.224 NA
ENDBRANCH   9  10
ENDBRANCH   1   9
BRANCH   2  15
ATOM     15  C   UNL d   1     -42.073-122.075 -54.899  0.00  0.00     0.019 C 
ATOM     16  C   UNL d   1     -42.309-121.948 -55.679  0.00  0.00     0.004 C 
ATOM     17  C   UNL d   1     -41.314-122.265 -55.160  0.00  0.00     0.004 C 
ATOM     18  C   UNL d   1     -42.832-121.884 -54.638  0.00  0.00     0.004 C 
ENDBRANCH   2  15
TORSDOF 3
ENDMDL
MODEL 4
REMARK VINA RESULT:      -3.3      1.194      2.286
REMARK  3 active torsions:
REMARK  status: ('A' for Active; 'I' for Inactive)
REMARK    1  A    between atoms: C_9  and  C_1 
REMARK    2  A    between atoms: C_11  and  C_2 
REMARK    3  A    between atoms: C_3  and  C_9 
ROOT
ATOM      1  C   UNL d   1     -42.316-123.047 -50.203  0.00  0.00     0.003 A 
ATOM      2  C   UNL d   1     -42.279-123.130 -48.568  0.00  0.00    -0.023 A 
ATOM      3  C   UNL d   1     -42.901-122.684 -49.753  0.00  0.00    -0.000 A 
ATOM      4  C   UNL d   1     -41.717-123.449 -49.829  0.00  0.00    -0.000 A 
ATOM      5  C   UNL d   1     -41.693-123.494 -49.014  0.00  0.00    -0.004 A 
ATOM      6  C   UNL d   1     -42.878-122.728 -48.942  0.00  0.00    -0.004 A 
ATOM      7  C   UNL d   1     -41.124-123.817 -50.280  0.00  0.00    -0.000 C 
ATOM      8  C   UNL d   1     -43.515-122.273 -50.126  0.00  0.00    -0.000 C 
ENDROOT
BRANCH   1   9
ATOM      9  C   UNL d   1     -42.340-123.002 -51.026  0.00  0.00     0.039 C 
BRANCH   9  10
ATOM     10  C   UNL d   1     -41.908-122.592 -51.601  0.00  0.00     0.163 A 
ATOM     11  N   UNL d   1     -41.568-121.844 -51.512  0.00  0.00    -0.224 NA
ATOM     12  C   UNL d   1     -41.196-121.656 -52.220  0.00  0.00     0.121 A 
ATOM     13  C   UNL d   1     -41.298-122.276 -52.753  0.00  0.00     0.121 A 
ATOM     14  N   UNL d   1     -41.739-122.860 -52.374  0.00  0.00    -0.224 NA
ENDBRANCH   9  10
ENDBRANCH   1   9
BRANCH   2  15
ATOM     15  C   UNL d   1     -42.255-123.175 -47.745  0.00  0.00     0.019 C 
ATOM     16  C   UNL d   1     -42.231-123.220 -46.922  0.00  0.00     0.004 C 
ATOM     17  C   UNL d   1     -41.664-122.600 -47.731  0.00  0.00     0.004 C 
ATOM     18  C   UNL d   1     -42.846-123.750 -47.759  0.00  0.00     0.004 C 
ENDBRANCH   2  15
TORSDOF 3
ENDMDL
