MODEL 1
REMARK VINA RESULT:      -6.8      0.000      0.000
REMARK  3 active torsions:
REMARK  status: ('A' for Active; 'I' for Inactive)
REMARK    1  A    between atoms: C_6  and  C_1 
REMARK    2  A    between atoms: O_2  and  C_6 
REMARK    3  A    between atoms: C_3  and  O_2 
ROOT
ATOM      1  C   UNL d   1      53.491  32.826  54.156  0.00  0.00     0.134 A 
ATOM      2  C   UNL d   1      53.139  33.554  54.318  0.00  0.00     0.218 A 
ATOM      3  O   UNL d   1      52.378  33.718  54.049  0.00  0.00    -0.284 OA
ATOM      4  C   UNL d   1      54.247  32.660  54.422  0.00  0.00     0.028 A 
ATOM      5  C   UNL d   1      53.541  34.123  54.749  0.00  0.00     0.044 A 
ATOM      6  C   UNL d   1      54.310  33.962  55.023  0.00  0.00     0.003 A 
ATOM      7  C   UNL d   1      54.661  33.233  54.860  0.00  0.00     0.002 A 
ENDROOT
BRANCH   1   8
ATOM      8  O   UNL d   1      53.084  32.255  53.722  0.00  0.00    -0.316 OA
BRANCH   8   9
ATOM      9  C   UNL d   1      53.455  31.534  53.540  0.00  0.00     0.246 C 
BRANCH   9  10
ATOM     10  C   UNL d   1      53.043  30.961  53.118  0.00  0.00     0.217 C 
ATOM     11  O   UNL d   1      52.868  30.234  53.452  0.00  0.00    -0.645 OA
ATOM     12  O   UNL d   1      52.786  31.080  52.347  0.00  0.00    -0.645 OA
ENDBRANCH   9  10
ENDBRANCH   8   9
ENDBRANCH   1   8
TORSDOF 3
ENDMDL
MODEL 2
REMARK VINA RESULT:      -6.7      1.708      2.104
REMARK  3 active torsions:
REMARK  status: ('A' for Active; 'I' for Inactive)
REMARK    1  A    between atoms: C_6  and  C_1 
REMARK    2  A    between atoms: O_2  and  C_6 
REMARK    3  A    between atoms: C_3  and  O_2 
ROOT
ATOM      1  C   UNL d   1      53.200  33.651  54.298  0.00  0.00     0.134 A 
ATOM      2  C   UNL d   1      53.607  34.135  54.827  0.00  0.00     0.218 A 
ATOM      3  O   UNL d   1      53.308  34.878  55.025  0.00  0.00    -0.284 OA
ATOM      4  C   UNL d   1      53.493  32.913  54.100  0.00  0.00     0.028 A 
ATOM      5  C   UNL d   1      54.311  33.886  55.163  0.00  0.00     0.044 A 
ATOM      6  C   UNL d   1      54.615  33.137  54.966  0.00  0.00     0.003 A 
ATOM      7  C   UNL d   1      54.208  32.653  54.437  0.00  0.00     0.002 A 
ENDROOT
BRANCH   1   8
ATOM      8  O   UNL d   1      52.491  33.905  53.962  0.00  0.00    -0.316 OA
BRANCH   8   9
ATOM      9  C   UNL d   1      52.096  33.417  53.416  0.00  0.00     0.246 C 
BRANCH   9  10
ATOM     10  C   UNL d   1      51.391  33.674  53.079  0.00  0.00     0.217 C 
ATOM     11  O   UNL d   1      50.668  33.413  53.360  0.00  0.00    -0.645 OA
ATOM     12  O   UNL d   1      51.370  34.200  52.448  0.00  0.00    -0.645 OA
ENDBRANCH   9  10
ENDBRANCH   8   9
ENDBRANCH   1   8
TORSDOF 3
ENDMDL
MODEL 3
REMARK VINA RESULT:      -6.7      1.144      2.973
REMARK  3 active torsions:
REMARK  status: ('A' for Active; 'I' for Inactive)
REMARK    1  A    between atoms: C_6  and  C_1 
REMARK    2  A    between atoms: O_2  and  C_6 
REMARK    3  A    between atoms: C_3  and  O_2 
ROOT
ATOM      1  C   UNL d   1      53.431  31.804  53.625  0.00  0.00     0.134 A 
ATOM      2  C   UNL d   1      52.915  31.748  52.985  0.00  0.00     0.218 A 
ATOM      3  O   UNL d   1      52.637  32.430  52.613  0.00  0.00    -0.284 OA
ATOM      4  C   UNL d   1      53.709  31.130  53.996  0.00  0.00     0.028 A 
ATOM      5  C   UNL d   1      52.672  31.017  52.709  0.00  0.00     0.044 A 
ATOM      6  C   UNL d   1      52.950  30.327  53.081  0.00  0.00     0.003 A 
ATOM      7  C   UNL d   1      53.467  30.383  53.722  0.00  0.00     0.002 A 
ENDROOT
BRANCH   1   8
ATOM      8  O   UNL d   1      53.674  32.543  53.900  0.00  0.00    -0.316 OA
BRANCH   8   9
ATOM      9  C   UNL d   1      54.059  32.603  54.635  0.00  0.00     0.246 C 
BRANCH   9  10
ATOM     10  C   UNL d   1      54.331  33.335  54.892  0.00  0.00     0.217 C 
ATOM     11  O   UNL d   1      55.123  33.532  54.846  0.00  0.00    -0.645 OA
ATOM     12  O   UNL d   1      53.830  33.905  55.208  0.00  0.00    -0.645 OA
ENDBRANCH   9  10
ENDBRANCH   8   9
ENDBRANCH   1   8
TORSDOF 3
ENDMDL
MODEL 4
REMARK VINA RESULT:      -6.5      1.689      2.840
REMARK  3 active torsions:
REMARK  status: ('A' for Active; 'I' for Inactive)
REMARK    1  A    between atoms: C_6  and  C_1 
REMARK    2  A    between atoms: O_2  and  C_6 
REMARK    3  A    between atoms: C_3  and  O_2 
ROOT
ATOM      1  C   UNL d   1      52.785  33.549  53.476  0.00  0.00     0.134 A 
ATOM      2  C   UNL d   1      52.404  33.136  52.872  0.00  0.00     0.218 A 
ATOM      3  O   UNL d   1      52.638  32.368  52.682  0.00  0.00    -0.284 OA
ATOM      4  C   UNL d   1      52.556  34.312  53.667  0.00  0.00     0.028 A 
ATOM      5  C   UNL d   1      51.791  33.481  52.455  0.00  0.00     0.044 A 
ATOM      6  C   UNL d   1      51.552  34.254  52.644  0.00  0.00     0.003 A 
ATOM      7  C   UNL d   1      51.933  34.668  53.247  0.00  0.00     0.002 A 
ENDROOT
BRANCH   1   8
ATOM      8  O   UNL d   1      53.403  33.199  53.895  0.00  0.00    -0.316 OA
BRANCH   8   9
ATOM      9  C   UNL d   1      53.701  33.570  54.577  0.00  0.00     0.246 C 
BRANCH   9  10
ATOM     10  C   UNL d   1      54.312  33.216  54.997  0.00  0.00     0.217 C 
ATOM     11  O   UNL d   1      55.088  33.457  54.900  0.00  0.00    -0.645 OA
ATOM     12  O   UNL d   1      54.184  32.607  55.534  0.00  0.00    -0.645 OA
ENDBRANCH   9  10
ENDBRANCH   8   9
ENDBRANCH   1   8
TORSDOF 3
ENDMDL
MODEL 5
REMARK VINA RESULT:      -6.4      1.760      3.213
REMARK  3 active torsions:
REMARK  status: ('A' for Active; 'I' for Inactive)
REMARK    1  A    between atoms: C_6  and  C_1 
REMARK    2  A    between atoms: O_2  and  C_6 
REMARK    3  A    between atoms: C_3  and  O_2 
ROOT
ATOM      1  C   UNL d   1      53.447  33.297  54.184  0.00  0.00     0.134 A 
ATOM      2  C   UNL d   1      53.857  32.716  54.601  0.00  0.00     0.218 A 
ATOM      3  O   UNL d   1      54.215  32.896  55.322  0.00  0.00    -0.284 OA
ATOM      4  C   UNL d   1      53.090  33.122  53.468  0.00  0.00     0.028 A 
ATOM      5  C   UNL d   1      53.914  31.954  54.307  0.00  0.00     0.044 A 
ATOM      6  C   UNL d   1      53.553  31.769  53.580  0.00  0.00     0.003 A 
ATOM      7  C   UNL d   1      53.143  32.350  53.163  0.00  0.00     0.002 A 
ENDROOT
BRANCH   1   8
ATOM      8  O   UNL d   1      53.392  34.064  54.483  0.00  0.00    -0.316 OA
BRANCH   8   9
ATOM      9  C   UNL d   1      53.038  34.660  54.025  0.00  0.00     0.246 C 
BRANCH   9  10
ATOM     10  C   UNL d   1      52.967  35.420  54.332  0.00  0.00     0.217 C 
ATOM     11  O   UNL d   1      52.235  35.735  54.516  0.00  0.00    -0.645 OA
ATOM     12  O   UNL d   1      53.618  35.901  54.470  0.00  0.00    -0.645 OA
ENDBRANCH   9  10
ENDBRANCH   8   9
ENDBRANCH   1   8
TORSDOF 3
ENDMDL
