MODEL 1
REMARK VINA RESULT:      15.9      0.000      0.000
REMARK  4 active torsions:
REMARK  status: ('A' for Active; 'I' for Inactive)
REMARK    1  A    between atoms: N_2  and  S_1 
REMARK    2  A    between atoms: C_4  and  C_3 
REMARK       I    between atoms: N_9  and  C_4 
REMARK    3  A    between atoms: C_15  and  N_9 
REMARK    4  A    between atoms: C_10  and  C_15 
ROOT
ATOM      1  N   UNL d   1     -51.587  24.203  33.353  0.00  0.00    -0.233 N 
ATOM      2  C   UNL d   1     -50.456  25.067  33.334  0.00  0.00     0.076 A 
ATOM      3  C   UNL d   1     -51.268  24.963  33.356  0.00  0.00     0.096 A 
ATOM      4  C   UNL d   1     -51.089  23.548  33.328  0.00  0.00     0.091 A 
ATOM      5  C   UNL d   1     -49.954  24.411  33.309  0.00  0.00     0.008 A 
ATOM      6  C   UNL d   1     -50.273  23.655  33.306  0.00  0.00     0.020 A 
ENDROOT
BRANCH   2   7
ATOM      7  C   UNL d   1     -50.138  25.831  33.337  0.00  0.00     0.281 C 
ATOM      8  O   UNL d   1     -49.323  25.939  33.307  0.00  0.00    -0.265 OA
ATOM      9  N   UNL d   1     -50.637  26.487  33.371  0.00  0.00    -0.206 NA
BRANCH   9  10
ATOM     10  C   UNL d   1     -50.317  27.239  33.373  0.00  0.00     0.102 C 
BRANCH  10  11
ATOM     11  C   UNL d   1     -50.735  27.856  33.728  0.00  0.00     0.021 C 
ATOM     12  C   UNL d   1     -51.378  28.197  33.338  0.00  0.00     0.002 C 
ENDBRANCH  10  11
ENDBRANCH   9  10
ENDBRANCH   2   7
BRANCH   1  13
ATOM     13  S   UNL d   1     -52.404  24.099  33.375  0.00  0.00     0.252 S 
ATOM     14  O   UNL d   1     -52.302  23.283  33.306  0.00  0.00    -0.204 OA
ATOM     15  O   UNL d   1     -52.506  24.912  33.443  0.00  0.00    -0.204 OA
ATOM     16  C   UNL d   1     -53.222  23.994  33.397  0.00  0.00     0.164 C 
ENDBRANCH   1  13
TORSDOF 4
ENDMDL
