MODEL 1
REMARK VINA RESULT:      46.2      0.000      0.000
REMARK  3 active torsions:
REMARK  status: ('A' for Active; 'I' for Inactive)
REMARK    1  A    between atoms: C_5  and  C_1 
REMARK    2  A    between atoms: C_4  and  C_2 
REMARK       I    between atoms: N_8  and  C_4 
REMARK    3  A    between atoms: C_10  and  N_8 
ROOT
ATOM      1  C   UNL d   1      60.334  49.510  50.671  0.00  0.00     0.118 A 
ATOM      2  C   UNL d   1      59.629  49.540  50.238  0.00  0.00     0.103 A 
ATOM      3  N   UNL d   1      60.948  49.599  50.132  0.00  0.00    -0.126 NA
ATOM      4  O   UNL d   1      60.639  49.682  49.379  0.00  0.00    -0.211 OA
ATOM      5  C   UNL d   1      59.818  49.645  49.448  0.00  0.00     0.131 A 
ATOM      6  C   UNL d   1      59.269  49.704  48.829  0.00  0.00     0.029 C 
ENDROOT
BRANCH   2   7
ATOM      7  C   UNL d   1      58.867  49.474  50.559  0.00  0.00     0.283 C 
ATOM      8  N   UNL d   1      58.211  49.561  50.068  0.00  0.00    -0.204 NA
ATOM      9  O   UNL d   1      58.783  49.324  51.360  0.00  0.00    -0.265 OA
BRANCH   8  10
ATOM     10  C   UNL d   1      57.455  49.495  50.385  0.00  0.00     0.130 A 
ATOM     11  C   UNL d   1      56.795  49.208  49.992  0.00  0.00     0.243 A 
ATOM     12  S   UNL d   1      56.149  49.237  50.513  0.00  0.00    -0.044 SA
ATOM     13  O   UNL d   1      56.768  48.936  49.221  0.00  0.00    -0.278 OA
ATOM     14  C   UNL d   1      56.414  49.544  51.227  0.00  0.00     0.040 A 
ATOM     15  C   UNL d   1      57.230  49.706  51.150  0.00  0.00     0.030 A 
ENDBRANCH   8  10
ENDBRANCH   2   7
BRANCH   1  16
ATOM     16  C   UNL d   1      60.409  49.412  51.480  0.00  0.00     0.058 A 
ATOM     17  C   UNL d   1      59.752  49.510  51.979  0.00  0.00     0.142 A 
ATOM     18  F   UNL d   1      59.023  49.707  51.647  0.00  0.00    -0.204 F 
ATOM     19  C   UNL d   1      59.840  49.409  52.787  0.00  0.00     0.030 A 
ATOM     20  C   UNL d   1      60.571  49.211  53.114  0.00  0.00     0.003 A 
ATOM     21  C   UNL d   1      61.229  49.114  52.611  0.00  0.00     0.012 A 
ATOM     22  C   UNL d   1      61.145  49.214  51.800  0.00  0.00     0.061 A 
ATOM     23 CL   UNL d   1      61.929  49.063  51.548  0.00  0.00    -0.082 Cl
ENDBRANCH   1  16
TORSDOF 3
ENDMDL
