MODEL 1
REMARK VINA RESULT:      -6.7      0.000      0.000
REMARK  8 active torsions:
REMARK  status: ('A' for Active; 'I' for Inactive)
REMARK    1  A    between atoms: C_6  and  N_1 
REMARK    2  A    between atoms: C_7  and  C_6 
REMARK    3  A    between atoms: C_12  and  C_7 
REMARK    4  A    between atoms: C_8  and  C_19 
REMARK    5  A    between atoms: C_9  and  C_20 
REMARK    6  A    between atoms: N_13  and  C_12 
REMARK    7  A    between atoms: C_19  and  N_13 
REMARK    8  A    between atoms: C_20  and  N_13 
ROOT
ATOM      1  N   UNL d   1     -49.034  13.598  23.398  0.00  0.00    -0.303 N 
ATOM      2  C   UNL d   1     -49.578  12.971  23.447  0.00  0.00     0.064 A 
ATOM      3  C   UNL d   1     -49.443  14.267  23.121  0.00  0.00     0.064 A 
ATOM      4  C   UNL d   1     -50.234  14.057  22.999  0.00  0.00     0.018 A 
ATOM      5  C   UNL d   1     -50.324  13.254  23.200  0.00  0.00     0.018 A 
ATOM      6  C   UNL d   1     -49.193  15.037  22.966  0.00  0.00     0.018 A 
ATOM      7  C   UNL d   1     -49.493  12.185  23.683  0.00  0.00     0.018 A 
ATOM      8  C   UNL d   1     -50.775  14.618  22.722  0.00  0.00     0.002 A 
ATOM      9  C   UNL d   1     -50.969  12.750  23.192  0.00  0.00     0.002 A 
ATOM     10  C   UNL d   1     -50.889  11.968  23.425  0.00  0.00     0.000 A 
ATOM     11  C   UNL d   1     -50.151  11.684  23.671  0.00  0.00     0.002 A 
ATOM     12  C   UNL d   1     -49.738  15.605  22.686  0.00  0.00     0.002 A 
ATOM     13  C   UNL d   1     -50.528  15.388  22.566  0.00  0.00     0.000 A 
ENDROOT
BRANCH   1  14
ATOM     14  C   UNL d   1     -48.235  13.566  23.589  0.00  0.00     0.124 C 
BRANCH  14  15
ATOM     15  C   UNL d   1     -47.832  13.279  22.932  0.00  0.00     0.231 C 
ATOM     16  O   UNL d   1     -47.915  13.777  22.275  0.00  0.00    -0.283 OA
BRANCH  15  17
ATOM     17  C   UNL d   1     -47.367  12.618  22.769  0.00  0.00     0.124 C 
BRANCH  17  18
ATOM     18  N   UNL d   1     -46.550  12.663  22.837  0.00  0.00    -0.300 N 
BRANCH  18  19
ATOM     19  C   UNL d   1     -46.155  12.171  23.370  0.00  0.00     0.080 C 
BRANCH  19  20
ATOM     20  C   UNL d   1     -46.385  11.381  23.456  0.00  0.00     0.019 C 
ATOM     21  C   UNL d   1     -46.007  10.690  23.698  0.00  0.00     0.002 C 
ENDBRANCH  19  20
ENDBRANCH  18  19
BRANCH  18  22
ATOM     22  C   UNL d   1     -46.125  13.193  22.379  0.00  0.00     0.080 C 
BRANCH  22  23
ATOM     23  C   UNL d   1     -45.326  13.062  22.227  0.00  0.00     0.019 C 
ATOM     24  C   UNL d   1     -44.734  13.481  21.833  0.00  0.00     0.002 C 
ENDBRANCH  22  23
ENDBRANCH  18  22
ENDBRANCH  17  18
ENDBRANCH  15  17
ENDBRANCH  14  15
ENDBRANCH   1  14
TORSDOF 8
ENDMDL
MODEL 2
REMARK VINA RESULT:      -6.3      1.173      4.143
REMARK  8 active torsions:
REMARK  status: ('A' for Active; 'I' for Inactive)
REMARK    1  A    between atoms: C_6  and  N_1 
REMARK    2  A    between atoms: C_7  and  C_6 
REMARK    3  A    between atoms: C_12  and  C_7 
REMARK    4  A    between atoms: C_8  and  C_19 
REMARK    5  A    between atoms: C_9  and  C_20 
REMARK    6  A    between atoms: N_13  and  C_12 
REMARK    7  A    between atoms: C_19  and  N_13 
REMARK    8  A    between atoms: C_20  and  N_13 
ROOT
ATOM      1  N   UNL d   1     -46.834  13.318  23.116  0.00  0.00    -0.303 N 
ATOM      2  C   UNL d   1     -46.959  12.509  23.260  0.00  0.00     0.064 A 
ATOM      3  C   UNL d   1     -46.116  13.394  22.704  0.00  0.00     0.064 A 
ATOM      4  C   UNL d   1     -45.797  12.639  22.593  0.00  0.00     0.018 A 
ATOM      5  C   UNL d   1     -46.316  12.085  22.937  0.00  0.00     0.018 A 
ATOM      6  C   UNL d   1     -45.715  14.056  22.418  0.00  0.00     0.018 A 
ATOM      7  C   UNL d   1     -47.568  12.104  23.641  0.00  0.00     0.018 A 
ATOM      8  C   UNL d   1     -45.077  12.545  22.197  0.00  0.00     0.002 A 
ATOM      9  C   UNL d   1     -46.292  11.269  22.998  0.00  0.00     0.002 A 
ATOM     10  C   UNL d   1     -46.896  10.862  23.376  0.00  0.00     0.000 A 
ATOM     11  C   UNL d   1     -47.536  11.280  23.698  0.00  0.00     0.002 A 
ATOM     12  C   UNL d   1     -44.989  13.964  22.017  0.00  0.00     0.002 A 
ATOM     13  C   UNL d   1     -44.676  13.204  21.910  0.00  0.00     0.000 A 
ENDROOT
BRANCH   1  14
ATOM     14  C   UNL d   1     -47.329  13.935  23.339  0.00  0.00     0.124 C 
BRANCH  14  15
ATOM     15  C   UNL d   1     -47.922  13.998  22.772  0.00  0.00     0.231 C 
ATOM     16  O   UNL d   1     -47.675  14.436  22.114  0.00  0.00    -0.283 OA
BRANCH  15  17
ATOM     17  C   UNL d   1     -48.699  13.732  22.699  0.00  0.00     0.124 C 
BRANCH  17  18
ATOM     18  N   UNL d   1     -49.311  14.272  22.604  0.00  0.00    -0.300 N 
BRANCH  18  19
ATOM     19  C   UNL d   1     -49.354  14.935  23.096  0.00  0.00     0.080 C 
BRANCH  19  20
ATOM     20  C   UNL d   1     -50.088  15.205  23.366  0.00  0.00     0.019 C 
ATOM     21  C   UNL d   1     -50.362  15.910  23.690  0.00  0.00     0.002 C 
ENDBRANCH  19  20
ENDBRANCH  18  19
BRANCH  18  22
ATOM     22  C   UNL d   1     -49.878  14.157  22.023  0.00  0.00     0.080 C 
BRANCH  22  23
ATOM     23  C   UNL d   1     -50.096  13.394  21.802  0.00  0.00     0.019 C 
ATOM     24  C   UNL d   1     -50.595  13.079  21.226  0.00  0.00     0.002 C 
ENDBRANCH  22  23
ENDBRANCH  18  22
ENDBRANCH  17  18
ENDBRANCH  15  17
ENDBRANCH  14  15
ENDBRANCH   1  14
TORSDOF 8
ENDMDL
MODEL 3
REMARK VINA RESULT:      -6.2      0.637      2.025
REMARK  8 active torsions:
REMARK  status: ('A' for Active; 'I' for Inactive)
REMARK    1  A    between atoms: C_6  and  N_1 
REMARK    2  A    between atoms: C_7  and  C_6 
REMARK    3  A    between atoms: C_12  and  C_7 
REMARK    4  A    between atoms: C_8  and  C_19 
REMARK    5  A    between atoms: C_9  and  C_20 
REMARK    6  A    between atoms: N_13  and  C_12 
REMARK    7  A    between atoms: C_19  and  N_13 
REMARK    8  A    between atoms: C_20  and  N_13 
ROOT
ATOM      1  N   UNL d   1     -48.488  13.421  23.335  0.00  0.00    -0.303 N 
ATOM      2  C   UNL d   1     -48.855  14.069  22.965  0.00  0.00     0.064 A 
ATOM      3  C   UNL d   1     -49.032  12.792  23.340  0.00  0.00     0.064 A 
ATOM      4  C   UNL d   1     -49.730  13.046  22.976  0.00  0.00     0.018 A 
ATOM      5  C   UNL d   1     -49.626  13.839  22.741  0.00  0.00     0.018 A 
ATOM      6  C   UNL d   1     -48.976  12.022  23.629  0.00  0.00     0.018 A 
ATOM      7  C   UNL d   1     -48.591  14.834  22.803  0.00  0.00     0.018 A 
ATOM      8  C   UNL d   1     -50.372  12.531  22.902  0.00  0.00     0.002 A 
ATOM      9  C   UNL d   1     -50.118  14.373  22.362  0.00  0.00     0.002 A 
ATOM     10  C   UNL d   1     -49.859  15.134  22.199  0.00  0.00     0.000 A 
ATOM     11  C   UNL d   1     -49.095  15.365  22.420  0.00  0.00     0.002 A 
ATOM     12  C   UNL d   1     -49.624  11.499  23.556  0.00  0.00     0.002 A 
ATOM     13  C   UNL d   1     -50.319  11.762  23.191  0.00  0.00     0.000 A 
ENDROOT
BRANCH   1  14
ATOM     14  C   UNL d   1     -47.726  13.402  23.642  0.00  0.00     0.124 C 
BRANCH  14  15
ATOM     15  C   UNL d   1     -47.217  13.180  23.035  0.00  0.00     0.231 C 
ATOM     16  O   UNL d   1     -47.057  13.808  22.519  0.00  0.00    -0.283 OA
BRANCH  15  17
ATOM     17  C   UNL d   1     -46.828  12.486  22.817  0.00  0.00     0.124 C 
BRANCH  17  18
ATOM     18  N   UNL d   1     -46.008  12.462  22.802  0.00  0.00    -0.300 N 
BRANCH  18  19
ATOM     19  C   UNL d   1     -45.602  11.973  23.331  0.00  0.00     0.080 C 
BRANCH  19  20
ATOM     20  C   UNL d   1     -45.800  11.173  23.393  0.00  0.00     0.019 C 
ATOM     21  C   UNL d   1     -45.426  10.505  23.698  0.00  0.00     0.002 C 
ENDBRANCH  19  20
ENDBRANCH  18  19
BRANCH  18  22
ATOM     22  C   UNL d   1     -45.589  12.920  22.266  0.00  0.00     0.080 C 
BRANCH  22  23
ATOM     23  C   UNL d   1     -44.861  12.661  21.980  0.00  0.00     0.019 C 
ATOM     24  C   UNL d   1     -44.237  13.019  21.577  0.00  0.00     0.002 C 
ENDBRANCH  22  23
ENDBRANCH  18  22
ENDBRANCH  17  18
ENDBRANCH  15  17
ENDBRANCH  14  15
ENDBRANCH   1  14
TORSDOF 8
ENDMDL
MODEL 4
REMARK VINA RESULT:      -5.7      7.561     10.303
REMARK  8 active torsions:
REMARK  status: ('A' for Active; 'I' for Inactive)
REMARK    1  A    between atoms: C_6  and  N_1 
REMARK    2  A    between atoms: C_7  and  C_6 
REMARK    3  A    between atoms: C_12  and  C_7 
REMARK    4  A    between atoms: C_8  and  C_19 
REMARK    5  A    between atoms: C_9  and  C_20 
REMARK    6  A    between atoms: N_13  and  C_12 
REMARK    7  A    between atoms: C_19  and  N_13 
REMARK    8  A    between atoms: C_20  and  N_13 
ROOT
ATOM      1  N   UNL d   1     -39.118  14.937  18.465  0.00  0.00    -0.303 N 
ATOM      2  C   UNL d   1     -38.806  14.202  18.234  0.00  0.00     0.064 A 
ATOM      3  C   UNL d   1     -39.675  15.168  17.893  0.00  0.00     0.064 A 
ATOM      4  C   UNL d   1     -39.709  14.581  17.311  0.00  0.00     0.018 A 
ATOM      5  C   UNL d   1     -39.172  13.978  17.517  0.00  0.00     0.018 A 
ATOM      6  C   UNL d   1     -40.153  15.837  17.830  0.00  0.00     0.018 A 
ATOM      7  C   UNL d   1     -38.242  13.710  18.579  0.00  0.00     0.018 A 
ATOM      8  C   UNL d   1     -40.221  14.663  16.666  0.00  0.00     0.002 A 
ATOM      9  C   UNL d   1     -38.969  13.271  17.159  0.00  0.00     0.002 A 
ATOM     10  C   UNL d   1     -38.408  12.778  17.499  0.00  0.00     0.000 A 
ATOM     11  C   UNL d   1     -38.043  12.997  18.210  0.00  0.00     0.002 A 
ATOM     12  C   UNL d   1     -40.670  15.922  17.181  0.00  0.00     0.002 A 
ATOM     13  C   UNL d   1     -40.699  15.330  16.602  0.00  0.00     0.000 A 
ENDROOT
BRANCH   1  14
ATOM     14  C   UNL d   1     -38.914  15.363  19.138  0.00  0.00     0.124 C 
BRANCH  14  15
ATOM     15  C   UNL d   1     -39.511  15.254  19.694  0.00  0.00     0.231 C 
ATOM     16  O   UNL d   1     -39.996  15.922  19.762  0.00  0.00    -0.283 OA
BRANCH  15  17
ATOM     17  C   UNL d   1     -39.742  14.644  20.198  0.00  0.00     0.124 C 
BRANCH  17  18
ATOM     18  N   UNL d   1     -39.951  14.810  20.975  0.00  0.00    -0.300 N 
BRANCH  18  19
ATOM     19  C   UNL d   1     -39.411  15.188  21.473  0.00  0.00     0.080 C 
BRANCH  19  20
ATOM     20  C   UNL d   1     -39.212  14.852  22.202  0.00  0.00     0.019 C 
ATOM     21  C   UNL d   1     -38.564  14.907  22.708  0.00  0.00     0.002 C 
ENDBRANCH  19  20
ENDBRANCH  18  19
BRANCH  18  22
ATOM     22  C   UNL d   1     -40.692  14.601  21.258  0.00  0.00     0.080 C 
BRANCH  22  23
ATOM     23  C   UNL d   1     -41.082  13.943  20.953  0.00  0.00     0.019 C 
ATOM     24  C   UNL d   1     -41.820  13.597  21.080  0.00  0.00     0.002 C 
ENDBRANCH  22  23
ENDBRANCH  18  22
ENDBRANCH  17  18
ENDBRANCH  15  17
ENDBRANCH  14  15
ENDBRANCH   1  14
TORSDOF 8
ENDMDL
MODEL 5
REMARK VINA RESULT:      -4.9      7.695      9.781
REMARK  8 active torsions:
REMARK  status: ('A' for Active; 'I' for Inactive)
REMARK    1  A    between atoms: C_6  and  N_1 
REMARK    2  A    between atoms: C_7  and  C_6 
REMARK    3  A    between atoms: C_12  and  C_7 
REMARK    4  A    between atoms: C_8  and  C_19 
REMARK    5  A    between atoms: C_9  and  C_20 
REMARK    6  A    between atoms: N_13  and  C_12 
REMARK    7  A    between atoms: C_19  and  N_13 
REMARK    8  A    between atoms: C_20  and  N_13 
ROOT
ATOM      1  N   UNL d   1     -40.108  15.277  20.465  0.00  0.00    -0.303 N 
ATOM      2  C   UNL d   1     -40.645  14.695  20.715  0.00  0.00     0.064 A 
ATOM      3  C   UNL d   1     -39.426  15.214  20.937  0.00  0.00     0.064 A 
ATOM      4  C   UNL d   1     -39.539  14.597  21.476  0.00  0.00     0.018 A 
ATOM      5  C   UNL d   1     -40.294  14.270  21.344  0.00  0.00     0.018 A 
ATOM      6  C   UNL d   1     -38.720  15.640  20.941  0.00  0.00     0.018 A 
ATOM      7  C   UNL d   1     -41.403  14.495  20.457  0.00  0.00     0.018 A 
ATOM      8  C   UNL d   1     -38.946  14.406  22.020  0.00  0.00     0.002 A 
ATOM      9  C   UNL d   1     -40.703  13.658  21.701  0.00  0.00     0.002 A 
ATOM     10  C   UNL d   1     -41.457  13.456  21.447  0.00  0.00     0.000 A 
ATOM     11  C   UNL d   1     -41.808  13.875  20.824  0.00  0.00     0.002 A 
ATOM     12  C   UNL d   1     -38.120  15.449  21.490  0.00  0.00     0.002 A 
ATOM     13  C   UNL d   1     -38.241  14.830  22.027  0.00  0.00     0.000 A 
ENDROOT
BRANCH   1  14
ATOM     14  C   UNL d   1     -40.225  15.821  19.859  0.00  0.00     0.124 C 
BRANCH  14  15
ATOM     15  C   UNL d   1     -39.892  15.510  19.175  0.00  0.00     0.231 C 
ATOM     16  O   UNL d   1     -39.105  15.748  19.078  0.00  0.00    -0.283 OA
BRANCH  15  17
ATOM     17  C   UNL d   1     -40.150  15.020  18.563  0.00  0.00     0.124 C 
BRANCH  17  18
ATOM     18  N   UNL d   1     -39.863  15.128  17.802  0.00  0.00    -0.300 N 
BRANCH  18  19
ATOM     19  C   UNL d   1     -40.221  15.682  17.303  0.00  0.00     0.080 C 
BRANCH  19  20
ATOM     20  C   UNL d   1     -40.884  15.472  16.857  0.00  0.00     0.019 C 
ATOM     21  C   UNL d   1     -41.506  15.888  16.512  0.00  0.00     0.002 C 
ENDBRANCH  19  20
ENDBRANCH  18  19
BRANCH  18  22
ATOM     22  C   UNL d   1     -39.224  14.690  17.533  0.00  0.00     0.080 C 
BRANCH  22  23
ATOM     23  C   UNL d   1     -39.348  13.975  17.143  0.00  0.00     0.019 C 
ATOM     24  C   UNL d   1     -38.862  13.347  16.918  0.00  0.00     0.002 C 
ENDBRANCH  22  23
ENDBRANCH  18  22
ENDBRANCH  17  18
ENDBRANCH  15  17
ENDBRANCH  14  15
ENDBRANCH   1  14
TORSDOF 8
ENDMDL
MODEL 6
REMARK VINA RESULT:      -3.8      1.473      3.920
REMARK  8 active torsions:
REMARK  status: ('A' for Active; 'I' for Inactive)
REMARK    1  A    between atoms: C_6  and  N_1 
REMARK    2  A    between atoms: C_7  and  C_6 
REMARK    3  A    between atoms: C_12  and  C_7 
REMARK    4  A    between atoms: C_8  and  C_19 
REMARK    5  A    between atoms: C_9  and  C_20 
REMARK    6  A    between atoms: N_13  and  C_12 
REMARK    7  A    between atoms: C_19  and  N_13 
REMARK    8  A    between atoms: C_20  and  N_13 
ROOT
ATOM      1  N   UNL d   1     -46.794  12.879  23.204  0.00  0.00    -0.303 N 
ATOM      2  C   UNL d   1     -46.054  12.633  22.916  0.00  0.00     0.064 A 
ATOM      3  C   UNL d   1     -46.874  13.690  23.038  0.00  0.00     0.064 A 
ATOM      4  C   UNL d   1     -46.190  13.946  22.650  0.00  0.00     0.018 A 
ATOM      5  C   UNL d   1     -45.677  13.294  22.571  0.00  0.00     0.018 A 
ATOM      6  C   UNL d   1     -47.484  14.223  23.192  0.00  0.00     0.018 A 
ATOM      7  C   UNL d   1     -45.676  11.900  22.921  0.00  0.00     0.018 A 
ATOM      8  C   UNL d   1     -46.115  14.736  22.417  0.00  0.00     0.002 A 
ATOM      9  C   UNL d   1     -44.932  13.213  22.240  0.00  0.00     0.002 A 
ATOM     10  C   UNL d   1     -44.553  12.486  22.243  0.00  0.00     0.000 A 
ATOM     11  C   UNL d   1     -44.925  11.828  22.584  0.00  0.00     0.002 A 
ATOM     12  C   UNL d   1     -47.410  15.021  22.957  0.00  0.00     0.002 A 
ATOM     13  C   UNL d   1     -46.722  15.270  22.570  0.00  0.00     0.000 A 
ENDROOT
BRANCH   1  14
ATOM     14  C   UNL d   1     -47.350  12.407  23.584  0.00  0.00     0.124 C 
BRANCH  14  15
ATOM     15  C   UNL d   1     -47.950  12.242  23.046  0.00  0.00     0.231 C 
ATOM     16  O   UNL d   1     -47.746  11.621  22.537  0.00  0.00    -0.283 OA
BRANCH  15  17
ATOM     17  C   UNL d   1     -48.702  12.543  22.891  0.00  0.00     0.124 C 
BRANCH  17  18
ATOM     18  N   UNL d   1     -49.259  12.078  22.507  0.00  0.00    -0.300 N 
BRANCH  18  19
ATOM     19  C   UNL d   1     -49.737  11.565  22.944  0.00  0.00     0.080 C 
BRANCH  19  20
ATOM     20  C   UNL d   1     -50.329  11.867  23.436  0.00  0.00     0.019 C 
ATOM     21  C   UNL d   1     -51.062  11.594  23.697  0.00  0.00     0.002 C 
ENDBRANCH  19  20
ENDBRANCH  18  19
BRANCH  18  22
ATOM     22  C   UNL d   1     -49.343  12.119  21.692  0.00  0.00     0.080 C 
BRANCH  22  23
ATOM     23  C   UNL d   1     -49.953  12.564  21.361  0.00  0.00     0.019 C 
ATOM     24  C   UNL d   1     -49.986  13.226  20.870  0.00  0.00     0.002 C 
ENDBRANCH  22  23
ENDBRANCH  18  22
ENDBRANCH  17  18
ENDBRANCH  15  17
ENDBRANCH  14  15
ENDBRANCH   1  14
TORSDOF 8
ENDMDL
