MODEL 1
REMARK VINA RESULT:      49.2      0.000      0.000
REMARK  3 active torsions:
REMARK  status: ('A' for Active; 'I' for Inactive)
REMARK    1  A    between atoms: C_5  and  N_1 
REMARK    2  A    between atoms: C_8  and  C_2 
REMARK    3  A    between atoms: C_7  and  C_5 
ROOT
ATOM      1  N   UNL d   1     -50.841  26.047  33.553  0.00  0.00    -0.287 N 
ATOM      2  C   UNL d   1     -50.248  26.517  33.888  0.00  0.00     0.187 A 
ATOM      3  N   UNL d   1     -50.583  27.250  34.110  0.00  0.00    -0.224 NA
ATOM      4  C   UNL d   1     -51.553  26.482  33.562  0.00  0.00     0.083 A 
ATOM      5  C   UNL d   1     -51.389  27.220  33.905  0.00  0.00     0.099 A 
ATOM      6  C   UNL d   1     -52.328  26.310  33.306  0.00  0.00     0.019 A 
ATOM      7  C   UNL d   1     -51.998  27.788  33.994  0.00  0.00     0.021 A 
ATOM      8  C   UNL d   1     -52.929  26.868  33.393  0.00  0.00     0.002 A 
ATOM      9  C   UNL d   1     -52.764  27.606  33.736  0.00  0.00     0.002 A 
ENDROOT
BRANCH   1  10
ATOM     10  C   UNL d   1     -50.589  25.302  33.306  0.00  0.00     0.082 C 
BRANCH  10  11
ATOM     11  C   UNL d   1     -51.087  24.654  33.375  0.00  0.00     0.018 A 
ATOM     12  C   UNL d   1     -50.777  23.898  33.410  0.00  0.00     0.001 A 
ATOM     13  C   UNL d   1     -51.276  23.249  33.480  0.00  0.00     0.000 A 
ATOM     14  C   UNL d   1     -49.959  23.794  33.375  0.00  0.00     0.000 C 
ATOM     15  C   UNL d   1     -52.093  23.357  33.514  0.00  0.00     0.000 A 
ATOM     16  C   UNL d   1     -52.407  24.119  33.479  0.00  0.00     0.000 A 
ATOM     17  C   UNL d   1     -51.904  24.767  33.409  0.00  0.00     0.002 A 
ATOM     18  C   UNL d   1     -53.224  24.231  33.513  0.00  0.00     0.000 C 
ENDBRANCH  10  11
ENDBRANCH   1  10
BRANCH   2  19
ATOM     19  C   UNL d   1     -49.489  26.693  34.142  0.00  0.00     0.230 C 
ATOM     20  O   UNL d   1     -49.001  26.096  34.435  0.00  0.00    -0.283 OA
ATOM     21  C   UNL d   1     -49.210  27.465  34.107  0.00  0.00     0.049 C 
ENDBRANCH   2  19
TORSDOF 3
ENDMDL
