MODEL 1
REMARK VINA RESULT:      -5.8      0.000      0.000
REMARK  3 active torsions:
REMARK  status: ('A' for Active; 'I' for Inactive)
REMARK    1  A    between atoms: S_6  and  C_1 
REMARK    2  A    between atoms: C_8  and  S_6 
REMARK    3  A    between atoms: C_7  and  C_8 
ROOT
ATOM      1  C   UNL d   1      57.801   0.453  30.731  0.00  0.00     0.194 A 
ATOM      2  N   UNL d   1      57.648   0.301  29.932  0.00  0.00    -0.220 NA
ATOM      3  N   UNL d   1      58.621   0.610  30.815  0.00  0.00    -0.220 NA
ATOM      4  C   UNL d   1      58.367   0.362  29.520  0.00  0.00     0.101 A 
ATOM      5  C   UNL d   1      58.968   0.553  30.066  0.00  0.00     0.101 A 
ATOM      6  C   UNL d   1      58.551   0.267  28.716  0.00  0.00     0.021 A 
ATOM      7  C   UNL d   1      59.745   0.646  29.791  0.00  0.00     0.021 A 
ATOM      8  C   UNL d   1      59.923   0.551  28.992  0.00  0.00     0.002 A 
ATOM      9  C   UNL d   1      59.326   0.362  28.455  0.00  0.00     0.002 A 
ENDROOT
BRANCH   1  10
ATOM     10  S   UNL d   1      57.249   0.453  31.345  0.00  0.00    -0.048 SA
BRANCH  10  11
ATOM     11  C   UNL d   1      57.015  -0.257  31.700  0.00  0.00     0.041 C 
BRANCH  11  12
ATOM     12  C   UNL d   1      56.440  -0.247  32.292  0.00  0.00     0.034 A 
ATOM     13  C   UNL d   1      56.158  -0.961  32.596  0.00  0.00     0.141 A 
ATOM     14  F   UNL d   1      56.454  -1.672  32.304  0.00  0.00    -0.204 F 
ATOM     15  C   UNL d   1      55.584  -0.959  33.189  0.00  0.00     0.030 A 
ATOM     16  C   UNL d   1      55.297  -0.241  33.471  0.00  0.00     0.002 A 
ATOM     17  C   UNL d   1      55.576   0.474  33.170  0.00  0.00     0.000 A 
ATOM     18  C   UNL d   1      56.151   0.464  32.578  0.00  0.00     0.003 A 
ENDBRANCH  11  12
ENDBRANCH  10  11
ENDBRANCH   1  10
TORSDOF 3
ENDMDL
MODEL 2
REMARK VINA RESULT:      -5.0      1.344      4.438
REMARK  3 active torsions:
REMARK  status: ('A' for Active; 'I' for Inactive)
REMARK    1  A    between atoms: S_6  and  C_1 
REMARK    2  A    between atoms: C_8  and  S_6 
REMARK    3  A    between atoms: C_7  and  C_8 
ROOT
ATOM      1  C   UNL d   1      57.337   0.003  31.125  0.00  0.00     0.194 A 
ATOM      2  N   UNL d   1      56.972   0.557  31.621  0.00  0.00    -0.220 NA
ATOM      3  N   UNL d   1      57.101  -0.764  31.372  0.00  0.00    -0.220 NA
ATOM      4  C   UNL d   1      56.513   0.139  32.173  0.00  0.00     0.101 A 
ATOM      5  C   UNL d   1      56.593  -0.677  32.018  0.00  0.00     0.101 A 
ATOM      6  C   UNL d   1      56.032   0.398  32.798  0.00  0.00     0.021 A 
ATOM      7  C   UNL d   1      56.185  -1.217  32.498  0.00  0.00     0.021 A 
ATOM      8  C   UNL d   1      55.709  -0.956  33.116  0.00  0.00     0.002 A 
ATOM      9  C   UNL d   1      55.632  -0.148  33.266  0.00  0.00     0.002 A 
ENDROOT
BRANCH   1  10
ATOM     10  S   UNL d   1      57.844   0.168  30.495  0.00  0.00    -0.048 SA
BRANCH  10  11
ATOM     11  C   UNL d   1      58.629   0.392  30.634  0.00  0.00     0.041 C 
BRANCH  11  12
ATOM     12  C   UNL d   1      59.147   0.478  29.999  0.00  0.00     0.034 A 
ATOM     13  C   UNL d   1      59.952   0.595  30.145  0.00  0.00     0.141 A 
ATOM     14  F   UNL d   1      60.224   0.623  30.921  0.00  0.00    -0.204 F 
ATOM     15  C   UNL d   1      60.477   0.682  29.514  0.00  0.00     0.030 A 
ATOM     16  C   UNL d   1      60.191   0.652  28.742  0.00  0.00     0.002 A 
ATOM     17  C   UNL d   1      59.388   0.536  28.593  0.00  0.00     0.000 A 
ATOM     18  C   UNL d   1      58.870   0.450  29.229  0.00  0.00     0.003 A 
ENDBRANCH  11  12
ENDBRANCH  10  11
ENDBRANCH   1  10
TORSDOF 3
ENDMDL
MODEL 3
REMARK VINA RESULT:      -5.0      1.271      4.355
REMARK  3 active torsions:
REMARK  status: ('A' for Active; 'I' for Inactive)
REMARK    1  A    between atoms: S_6  and  C_1 
REMARK    2  A    between atoms: C_8  and  S_6 
REMARK    3  A    between atoms: C_7  and  C_8 
ROOT
ATOM      1  C   UNL d   1      57.263  -0.016  31.298  0.00  0.00     0.194 A 
ATOM      2  N   UNL d   1      57.016  -0.772  31.530  0.00  0.00    -0.220 NA
ATOM      3  N   UNL d   1      56.878   0.547  31.787  0.00  0.00    -0.220 NA
ATOM      4  C   UNL d   1      56.481  -0.681  32.160  0.00  0.00     0.101 A 
ATOM      5  C   UNL d   1      56.397   0.134  32.318  0.00  0.00     0.101 A 
ATOM      6  C   UNL d   1      56.059  -1.237  32.609  0.00  0.00     0.021 A 
ATOM      7  C   UNL d   1      55.887   0.373  32.928  0.00  0.00     0.021 A 
ATOM      8  C   UNL d   1      55.472  -0.183  33.371  0.00  0.00     0.002 A 
ATOM      9  C   UNL d   1      55.558  -0.988  33.212  0.00  0.00     0.002 A 
ENDROOT
BRANCH   1  10
ATOM     10  S   UNL d   1      57.794   0.160  30.692  0.00  0.00    -0.048 SA
BRANCH  10  11
ATOM     11  C   UNL d   1      58.102  -0.441  30.213  0.00  0.00     0.041 C 
BRANCH  11  12
ATOM     12  C   UNL d   1      58.652  -0.255  29.627  0.00  0.00     0.034 A 
ATOM     13  C   UNL d   1      58.869  -0.831  29.076  0.00  0.00     0.141 A 
ATOM     14  F   UNL d   1      58.534  -1.582  29.121  0.00  0.00    -0.204 F 
ATOM     15  C   UNL d   1      59.418  -0.653  28.487  0.00  0.00     0.030 A 
ATOM     16  C   UNL d   1      59.746   0.103  28.455  0.00  0.00     0.002 A 
ATOM     17  C   UNL d   1      59.531   0.680  29.003  0.00  0.00     0.000 A 
ATOM     18  C   UNL d   1      58.981   0.494  29.589  0.00  0.00     0.003 A 
ENDBRANCH  11  12
ENDBRANCH  10  11
ENDBRANCH   1  10
TORSDOF 3
ENDMDL
MODEL 4
REMARK VINA RESULT:      -2.9      1.609      4.419
REMARK  3 active torsions:
REMARK  status: ('A' for Active; 'I' for Inactive)
REMARK    1  A    between atoms: S_6  and  C_1 
REMARK    2  A    between atoms: C_8  and  S_6 
REMARK    3  A    between atoms: C_7  and  C_8 
ROOT
ATOM      1  C   UNL d   1      57.271  -0.517  31.623  0.00  0.00     0.194 A 
ATOM      2  N   UNL d   1      57.563  -0.149  32.305  0.00  0.00    -0.220 NA
ATOM      3  N   UNL d   1      56.433  -0.519  31.666  0.00  0.00    -0.220 NA
ATOM      4  C   UNL d   1      56.912   0.077  32.769  0.00  0.00     0.101 A 
ATOM      5  C   UNL d   1      56.214  -0.152  32.374  0.00  0.00     0.101 A 
ATOM      6  C   UNL d   1      56.865   0.462  33.503  0.00  0.00     0.021 A 
ATOM      7  C   UNL d   1      55.481   0.012  32.727  0.00  0.00     0.021 A 
ATOM      8  C   UNL d   1      55.441   0.394  33.454  0.00  0.00     0.002 A 
ATOM      9  C   UNL d   1      56.133   0.619  33.843  0.00  0.00     0.002 A 
ENDROOT
BRANCH   1  10
ATOM     10  S   UNL d   1      57.720  -0.829  31.005  0.00  0.00    -0.048 SA
BRANCH  10  11
ATOM     11  C   UNL d   1      57.737  -0.455  30.266  0.00  0.00     0.041 C 
BRANCH  11  12
ATOM     12  C   UNL d   1      58.270  -0.712  29.691  0.00  0.00     0.034 A 
ATOM     13  C   UNL d   1      58.445  -0.219  29.052  0.00  0.00     0.141 A 
ATOM     14  F   UNL d   1      58.086   0.520  28.998  0.00  0.00    -0.204 F 
ATOM     15  C   UNL d   1      58.977  -0.469  28.473  0.00  0.00     0.030 A 
ATOM     16  C   UNL d   1      59.329  -1.211  28.540  0.00  0.00     0.002 A 
ATOM     17  C   UNL d   1      59.156  -1.704  29.176  0.00  0.00     0.000 A 
ATOM     18  C   UNL d   1      58.623  -1.448  29.751  0.00  0.00     0.003 A 
ENDBRANCH  11  12
ENDBRANCH  10  11
ENDBRANCH   1  10
TORSDOF 3
ENDMDL
MODEL 5
REMARK VINA RESULT:      -2.8      9.762     10.453
REMARK  3 active torsions:
REMARK  status: ('A' for Active; 'I' for Inactive)
REMARK    1  A    between atoms: S_6  and  C_1 
REMARK    2  A    between atoms: C_8  and  S_6 
REMARK    3  A    between atoms: C_7  and  C_8 
ROOT
ATOM      1  C   UNL d   1      59.303  -9.316  34.293  0.00  0.00     0.194 A 
ATOM      2  N   UNL d   1      59.962  -9.657  34.659  0.00  0.00    -0.220 NA
ATOM      3  N   UNL d   1      59.159  -8.572  34.654  0.00  0.00    -0.220 NA
ATOM      4  C   UNL d   1      60.228  -9.130  35.244  0.00  0.00     0.101 A 
ATOM      5  C   UNL d   1      59.732  -8.460  35.240  0.00  0.00     0.101 A 
ATOM      6  C   UNL d   1      60.860  -9.176  35.781  0.00  0.00     0.021 A 
ATOM      7  C   UNL d   1      59.883  -7.847  35.779  0.00  0.00     0.021 A 
ATOM      8  C   UNL d   1      60.511  -7.897  36.309  0.00  0.00     0.002 A 
ATOM      9  C   UNL d   1      60.999  -8.562  36.310  0.00  0.00     0.002 A 
ENDROOT
BRANCH   1  10
ATOM     10  S   UNL d   1      58.859  -9.643  33.680  0.00  0.00    -0.048 SA
BRANCH  10  11
ATOM     11  C   UNL d   1      59.155  -9.659  32.907  0.00  0.00     0.041 C 
BRANCH  11  12
ATOM     12  C   UNL d   1      58.633  -9.711  32.270  0.00  0.00     0.034 A 
ATOM     13  C   UNL d   1      58.934  -9.760  31.502  0.00  0.00     0.141 A 
ATOM     14  F   UNL d   1      59.748  -9.755  31.383  0.00  0.00    -0.204 F 
ATOM     15  C   UNL d   1      58.418  -9.812  30.860  0.00  0.00     0.030 A 
ATOM     16  C   UNL d   1      57.605  -9.816  30.994  0.00  0.00     0.002 A 
ATOM     17  C   UNL d   1      57.302  -9.768  31.758  0.00  0.00     0.000 A 
ATOM     18  C   UNL d   1      57.824  -9.715  32.395  0.00  0.00     0.003 A 
ENDBRANCH  11  12
ENDBRANCH  10  11
ENDBRANCH   1  10
TORSDOF 3
ENDMDL
