MODEL 1
REMARK VINA RESULT:      74.5      0.000      0.000
REMARK  7 active torsions:
REMARK  status: ('A' for Active; 'I' for Inactive)
REMARK    1  A    between atoms: C_12  and  C_3 
REMARK    2  A    between atoms: N_9  and  C_5 
REMARK    3  A    between atoms: C_17  and  N_9 
REMARK    4  A    between atoms: N_14  and  C_12 
REMARK    5  A    between atoms: C_18  and  N_14 
REMARK    6  A    between atoms: C_16  and  C_18 
REMARK    7  A    between atoms: C_19  and  C_17 
ROOT
ATOM      1  N   UNL d   1     -55.149-101.103 -44.626  0.00  0.00    -0.258 N 
ATOM      2  C   UNL d   1     -55.257-100.383 -44.223  0.00  0.00     0.270 A 
ATOM      3  C   UNL d   1     -55.220-100.350 -43.400  0.00  0.00     0.111 A 
ATOM      4  N   UNL d   1     -54.964-101.774 -43.370  0.00  0.00    -0.209 NA
ATOM      5  C   UNL d   1     -55.073-101.047 -42.972  0.00  0.00     0.170 A 
ATOM      6  C   UNL d   1     -55.005-101.788 -44.206  0.00  0.00     0.152 A 
ATOM      7  C   UNL d   1     -55.189-101.115 -45.441  0.00  0.00     0.084 A 
ATOM      8  C   UNL d   1     -54.896-102.506 -44.589  0.00  0.00     0.038 A 
ATOM      9  C   UNL d   1     -55.085-101.816 -45.840  0.00  0.00     0.018 A 
ATOM     10  C   UNL d   1     -54.938-102.513 -45.413  0.00  0.00     0.005 A 
ATOM     11  O   UNL d   1     -55.402 -99.696 -44.643  0.00  0.00    -0.266 OA
ATOM     12  C   UNL d   1     -55.126-101.826 -46.678  0.00  0.00     0.002 C 
ENDROOT
BRANCH   3  13
ATOM     13  C   UNL d   1     -55.330 -99.630 -43.023  0.00  0.00     0.107 C 
BRANCH  13  14
ATOM     14  N   UNL d   1     -55.895 -99.097 -43.293  0.00  0.00    -0.242 NA
BRANCH  14  15
ATOM     15  C   UNL d   1     -56.691 -99.312 -43.309  0.00  0.00     0.101 C 
BRANCH  15  16
ATOM     16  C   UNL d   1     -57.163 -99.132 -43.952  0.00  0.00     0.038 A 
ATOM     17  C   UNL d   1     -56.816 -98.953 -44.686  0.00  0.00     0.101 A 
ATOM     18  N   UNL d   1     -57.288 -98.772 -45.328  0.00  0.00    -0.242 NA
ATOM     19  C   UNL d   1     -58.116 -98.768 -45.247  0.00  0.00     0.099 A 
ATOM     20  C   UNL d   1     -58.463 -98.941 -44.535  0.00  0.00     0.021 A 
ATOM     21  C   UNL d   1     -57.983 -99.124 -43.882  0.00  0.00     0.005 A 
ENDBRANCH  15  16
ENDBRANCH  14  15
ENDBRANCH  13  14
ENDBRANCH   3  13
BRANCH   5  22
ATOM     22  N   UNL d   1     -55.028-101.061 -42.147  0.00  0.00    -0.225 NA
BRANCH  22  23
ATOM     23  C   UNL d   1     -54.712-101.713 -41.739  0.00  0.00     0.101 C 
BRANCH  23  24
ATOM     24  C   UNL d   1     -54.991-101.905 -40.988  0.00  0.00     0.019 A 
ATOM     25  C   UNL d   1     -54.985-101.356 -40.394  0.00  0.00     0.002 A 
ATOM     26  C   UNL d   1     -55.270-101.563 -39.639  0.00  0.00     0.000 A 
ATOM     27  C   UNL d   1     -55.559-102.315 -39.482  0.00  0.00     0.000 A 
ATOM     28  C   UNL d   1     -55.562-102.877 -40.096  0.00  0.00     0.000 A 
ATOM     29  C   UNL d   1     -55.279-102.679 -40.853  0.00  0.00     0.002 A 
ENDBRANCH  23  24
ENDBRANCH  22  23
ENDBRANCH   5  22
TORSDOF 7
ENDMDL
