MODEL 1
REMARK VINA RESULT:     -10.9      0.000      0.000
REMARK  5 active torsions:
REMARK  status: ('A' for Active; 'I' for Inactive)
REMARK    1  A    between atoms: N_9  and  C_2 
REMARK    2  A    between atoms: N_11  and  C_6 
REMARK    3  A    between atoms: C_16  and  N_11 
REMARK    4  A    between atoms: C_15  and  N_12 
REMARK    5  A    between atoms: C_24  and  C_15 
ROOT
ATOM      1  N   UNL d   1      52.788  34.013  54.044  0.00  0.00    -0.041 NA
ATOM      2  C   UNL d   1      52.483  33.580  53.469  0.00  0.00     0.738 A 
ATOM      3  C   UNL d   1      53.472  33.809  54.364  0.00  0.00     0.187 A 
ATOM      4  N   UNL d   1      52.863  32.940  53.212  0.00  0.00    -0.041 NA
ATOM      5  C   UNL d   1      53.856  33.170  54.110  0.00  0.00     0.094 A 
ATOM      6  C   UNL d   1      53.551  32.729  53.530  0.00  0.00     0.185 A 
ATOM      7  N   UNL d   1      54.473  34.041  55.270  0.00  0.00    -0.162 NA
ATOM      8  N   UNL d   1      53.777  34.250  54.945  0.00  0.00    -0.208 N 
ATOM      9  C   UNL d   1      54.854  33.401  55.013  0.00  0.00     0.127 A 
ATOM     10  C   UNL d   1      53.398  34.887  55.200  0.00  0.00     0.123 C 
ENDROOT
BRANCH   2  11
ATOM     11  N   UNL d   1      51.757  33.793  53.127  0.00  0.00    -0.134 N 
ATOM     12  C   UNL d   1      51.046  33.557  53.487  0.00  0.00     0.117 A 
ATOM     13  C   UNL d   1      50.315  33.770  53.144  0.00  0.00     0.100 A 
ATOM     14  N   UNL d   1      50.300  34.211  52.453  0.00  0.00    -0.300 N 
ATOM     15  C   UNL d   1      51.011  34.447  52.093  0.00  0.00     0.100 A 
ATOM     16  C   UNL d   1      51.734  34.241  52.425  0.00  0.00     0.117 A 
BRANCH  14  17
ATOM     17  C   UNL d   1      49.579  34.428  52.105  0.00  0.00     0.080 C 
BRANCH  17  18
ATOM     18  C   UNL d   1      48.910  34.911  52.098  0.00  0.00     0.018 A 
ATOM     19  C   UNL d   1      48.752  35.416  52.739  0.00  0.00     0.002 A 
ATOM     20  C   UNL d   1      48.085  35.891  52.723  0.00  0.00     0.000 A 
ATOM     21  C   UNL d   1      47.566  35.879  52.081  0.00  0.00     0.000 A 
ATOM     22  C   UNL d   1      47.724  35.374  51.440  0.00  0.00     0.000 A 
ATOM     23  C   UNL d   1      48.400  34.888  51.450  0.00  0.00     0.002 A 
ENDBRANCH  17  18
ENDBRANCH  14  17
ENDBRANCH   2  11
BRANCH   6  24
ATOM     24  N   UNL d   1      53.941  32.062  53.257  0.00  0.00    -0.226 NA
BRANCH  24  25
ATOM     25  C   UNL d   1      53.592  31.322  53.322  0.00  0.00     0.083 A 
ATOM     26  C   UNL d   1      53.161  31.013  52.693  0.00  0.00     0.021 A 
ATOM     27  C   UNL d   1      52.806  30.262  52.757  0.00  0.00     0.031 A 
ATOM     28  C   UNL d   1      52.884  29.825  53.448  0.00  0.00     0.140 A 
ATOM     29  C   UNL d   1      53.317  30.131  54.087  0.00  0.00     0.031 A 
ATOM     30  F   UNL d   1      52.531  29.086  53.504  0.00  0.00    -0.204 F 
ATOM     31  C   UNL d   1      53.667  30.875  54.020  0.00  0.00     0.021 A 
ENDBRANCH  24  25
ENDBRANCH   6  24
TORSDOF 5
ENDMDL
MODEL 2
REMARK VINA RESULT:      -9.4      1.521      2.795
REMARK  5 active torsions:
REMARK  status: ('A' for Active; 'I' for Inactive)
REMARK    1  A    between atoms: N_9  and  C_2 
REMARK    2  A    between atoms: N_11  and  C_6 
REMARK    3  A    between atoms: C_16  and  N_11 
REMARK    4  A    between atoms: C_15  and  N_12 
REMARK    5  A    between atoms: C_24  and  C_15 
ROOT
ATOM      1  N   UNL d   1      52.078  31.626  53.120  0.00  0.00    -0.041 NA
ATOM      2  C   UNL d   1      52.292  32.379  53.105  0.00  0.00     0.738 A 
ATOM      3  C   UNL d   1      52.613  31.071  53.250  0.00  0.00     0.187 A 
ATOM      4  N   UNL d   1      53.046  32.577  53.222  0.00  0.00    -0.041 NA
ATOM      5  C   UNL d   1      53.368  31.265  53.367  0.00  0.00     0.094 A 
ATOM      6  C   UNL d   1      53.589  32.023  53.354  0.00  0.00     0.185 A 
ATOM      7  N   UNL d   1      52.938  29.748  53.397  0.00  0.00    -0.162 NA
ATOM      8  N   UNL d   1      52.392  30.313  53.264  0.00  0.00    -0.208 N 
ATOM      9  C   UNL d   1      53.692  29.946  53.514  0.00  0.00     0.127 A 
ATOM     10  C   UNL d   1      51.642  30.116  53.147  0.00  0.00     0.123 C 
ENDROOT
BRANCH   2  11
ATOM     11  N   UNL d   1      51.727  32.971  52.967  0.00  0.00    -0.134 N 
ATOM     12  C   UNL d   1      51.090  33.065  53.493  0.00  0.00     0.117 A 
ATOM     13  C   UNL d   1      50.521  33.660  53.356  0.00  0.00     0.100 A 
ATOM     14  N   UNL d   1      50.592  34.151  52.703  0.00  0.00    -0.300 N 
ATOM     15  C   UNL d   1      51.228  34.058  52.177  0.00  0.00     0.100 A 
ATOM     16  C   UNL d   1      51.792  33.474  52.306  0.00  0.00     0.117 A 
BRANCH  14  17
ATOM     17  C   UNL d   1      50.032  34.745  52.558  0.00  0.00     0.080 C 
BRANCH  17  18
ATOM     18  C   UNL d   1      49.283  34.965  52.290  0.00  0.00     0.018 A 
ATOM     19  C   UNL d   1      49.018  34.723  51.540  0.00  0.00     0.002 A 
ATOM     20  C   UNL d   1      48.274  34.947  51.283  0.00  0.00     0.000 A 
ATOM     21  C   UNL d   1      47.779  35.410  51.756  0.00  0.00     0.000 A 
ATOM     22  C   UNL d   1      48.044  35.653  52.505  0.00  0.00     0.000 A 
ATOM     23  C   UNL d   1      48.800  35.428  52.772  0.00  0.00     0.002 A 
ENDBRANCH  17  18
ENDBRANCH  14  17
ENDBRANCH   2  11
BRANCH   6  24
ATOM     24  N   UNL d   1      54.371  32.237  53.475  0.00  0.00    -0.226 NA
BRANCH  24  25
ATOM     25  C   UNL d   1      54.572  32.747  54.085  0.00  0.00     0.083 A 
ATOM     26  C   UNL d   1      55.029  33.414  53.931  0.00  0.00     0.021 A 
ATOM     27  C   UNL d   1      55.234  33.933  54.549  0.00  0.00     0.031 A 
ATOM     28  C   UNL d   1      54.982  33.784  55.316  0.00  0.00     0.140 A 
ATOM     29  C   UNL d   1      54.520  33.113  55.479  0.00  0.00     0.031 A 
ATOM     30  F   UNL d   1      55.188  34.300  55.921  0.00  0.00    -0.204 F 
ATOM     31  C   UNL d   1      54.319  32.601  54.864  0.00  0.00     0.021 A 
ENDBRANCH  24  25
ENDBRANCH   6  24
TORSDOF 5
ENDMDL
