MODEL 1
REMARK VINA RESULT:      50.1      0.000      0.000
REMARK  3 active torsions:
REMARK  status: ('A' for Active; 'I' for Inactive)
REMARK    1  A    between atoms: C_5  and  C_1 
REMARK    2  A    between atoms: N_11  and  C_9 
REMARK    3  A    between atoms: C_17  and  N_11 
ROOT
ATOM      1  C   UNL d   1     -51.009  24.502  33.338  0.00  0.00     0.075 A 
ATOM      2  C   UNL d   1     -50.846  25.305  33.340  0.00  0.00     0.004 A 
ATOM      3  C   UNL d   1     -51.476  25.851  33.330  0.00  0.00     0.004 A 
ATOM      4  C   UNL d   1     -51.804  24.230  33.327  0.00  0.00     0.046 A 
ATOM      5  C   UNL d   1     -52.417  24.756  33.318  0.00  0.00     0.196 A 
ATOM      6  C   UNL d   1     -52.253  25.564  33.320  0.00  0.00     0.039 A 
ATOM      7  C   UNL d   1     -51.312  26.659  33.332  0.00  0.00     0.018 A 
ATOM      8  C   UNL d   1     -50.517  26.927  33.343  0.00  0.00     0.081 A 
ATOM      9  C   UNL d   1     -50.078  25.567  33.351  0.00  0.00     0.002 A 
ATOM     10  C   UNL d   1     -49.914  26.376  33.352  0.00  0.00     0.019 A 
ATOM     11  O   UNL d   1     -53.221  24.443  33.306  0.00  0.00    -0.287 OA
ATOM     12  C   UNL d   1     -52.903  26.119  33.310  0.00  0.00     0.003 A 
ATOM     13  C   UNL d   1     -51.960  27.220  33.323  0.00  0.00     0.002 A 
ATOM     14  C   UNL d   1     -52.714  26.944  33.312  0.00  0.00     0.000 A 
ENDROOT
BRANCH   8  15
ATOM     15  N   UNL d   1     -50.353  27.734  33.345  0.00  0.00    -0.246 NA
BRANCH  15  16
ATOM     16  C   UNL d   1     -49.743  28.038  33.827  0.00  0.00     0.081 A 
ATOM     17  C   UNL d   1     -49.533  28.848  33.770  0.00  0.00     0.019 A 
ATOM     18  C   UNL d   1     -48.926  29.148  34.250  0.00  0.00     0.002 A 
ATOM     19  C   UNL d   1     -48.546  28.673  34.762  0.00  0.00     0.000 A 
ATOM     20  C   UNL d   1     -48.735  27.881  34.834  0.00  0.00     0.002 A 
ATOM     21  C   UNL d   1     -49.334  27.565  34.366  0.00  0.00     0.019 A 
ENDBRANCH  15  16
ENDBRANCH   8  15
BRANCH   1  22
ATOM     22  C   UNL d   1     -50.361  23.937  33.348  0.00  0.00     0.419 C 
ATOM     23  F   UNL d   1     -49.734  23.402  33.357  0.00  0.00    -0.166 F 
ATOM     24  F   UNL d   1     -50.917  23.309  33.359  0.00  0.00    -0.166 F 
ATOM     25  F   UNL d   1     -49.827  24.590  33.336  0.00  0.00    -0.166 F 
ENDBRANCH   1  22
TORSDOF 3
ENDMDL
MODEL 2
REMARK VINA RESULT:      50.2      1.466      2.340
REMARK  3 active torsions:
REMARK  status: ('A' for Active; 'I' for Inactive)
REMARK    1  A    between atoms: C_5  and  C_1 
REMARK    2  A    between atoms: N_11  and  C_9 
REMARK    3  A    between atoms: C_17  and  N_11 
ROOT
ATOM      1  C   UNL d   1     -52.619  25.382  33.354  0.00  0.00     0.075 A 
ATOM      2  C   UNL d   1     -51.861  25.694  33.354  0.00  0.00     0.004 A 
ATOM      3  C   UNL d   1     -51.206  25.179  33.339  0.00  0.00     0.004 A 
ATOM      4  C   UNL d   1     -52.736  24.549  33.337  0.00  0.00     0.046 A 
ATOM      5  C   UNL d   1     -52.103  24.048  33.322  0.00  0.00     0.196 A 
ATOM      6  C   UNL d   1     -51.341  24.361  33.323  0.00  0.00     0.039 A 
ATOM      7  C   UNL d   1     -50.443  25.493  33.339  0.00  0.00     0.018 A 
ATOM      8  C   UNL d   1     -50.331  26.324  33.356  0.00  0.00     0.081 A 
ATOM      9  C   UNL d   1     -51.749  26.497  33.370  0.00  0.00     0.002 A 
ATOM     10  C   UNL d   1     -50.986  26.811  33.371  0.00  0.00     0.019 A 
ATOM     11  O   UNL d   1     -52.259  23.199  33.306  0.00  0.00    -0.287 OA
ATOM     12  C   UNL d   1     -50.673  23.828  33.306  0.00  0.00     0.003 A 
ATOM     13  C   UNL d   1     -49.771  24.962  33.323  0.00  0.00     0.002 A 
ATOM     14  C   UNL d   1     -49.899  24.170  33.308  0.00  0.00     0.000 A 
ENDROOT
BRANCH   8  15
ATOM     15  N   UNL d   1     -49.569  26.637  33.356  0.00  0.00    -0.246 NA
BRANCH  15  16
ATOM     16  C   UNL d   1     -49.350  27.207  33.926  0.00  0.00     0.081 A 
ATOM     17  C   UNL d   1     -49.070  26.958  34.676  0.00  0.00     0.019 A 
ATOM     18  C   UNL d   1     -48.853  27.526  35.241  0.00  0.00     0.002 A 
ATOM     19  C   UNL d   1     -48.907  28.300  35.074  0.00  0.00     0.000 A 
ATOM     20  C   UNL d   1     -49.177  28.566  34.349  0.00  0.00     0.002 A 
ATOM     21  C   UNL d   1     -49.398  28.017  33.776  0.00  0.00     0.019 A 
ENDBRANCH  15  16
ENDBRANCH   8  15
BRANCH   1  22
ATOM     22  C   UNL d   1     -53.296  25.911  33.370  0.00  0.00     0.419 C 
ATOM     23  F   UNL d   1     -53.951  26.412  33.385  0.00  0.00    -0.166 F 
ATOM     24  F   UNL d   1     -52.775  26.567  33.415  0.00  0.00    -0.166 F 
ATOM     25  F   UNL d   1     -53.794  25.232  33.324  0.00  0.00    -0.166 F 
ENDBRANCH   1  22
TORSDOF 3
ENDMDL
