MODEL 1
REMARK VINA RESULT:      -2.8      0.000      0.000
REMARK  2 active torsions:
REMARK  status: ('A' for Active; 'I' for Inactive)
REMARK    1  A    between atoms: N_2  and  S_1 
REMARK    2  A    between atoms: C_3  and  S_1 
ROOT
ATOM      1  S   UNL d   1      32.017  17.660 -24.054  0.00  0.00     0.273 S 
ATOM      2  O   UNL d   1      32.599  17.266 -24.513  0.00  0.00    -0.200 OA
ATOM      3  O   UNL d   1      31.447  18.058 -23.602  0.00  0.00    -0.200 OA
ENDROOT
BRANCH   1   4
ATOM      4  N   UNL d   1      32.367  18.397 -24.238  0.00  0.00    -0.231 N 
ATOM      5  C   UNL d   1      32.627  18.891 -23.625  0.00  0.00     0.075 A 
ATOM      6  C   UNL d   1      32.941  19.566 -23.973  0.00  0.00     0.018 A 
ATOM      7  C   UNL d   1      32.614  18.808 -22.822  0.00  0.00     0.018 A 
ATOM      8  C   UNL d   1      33.241  20.154 -23.510  0.00  0.00     0.002 A 
ATOM      9  C   UNL d   1      32.882  19.500 -24.762  0.00  0.00     0.021 A 
ATOM     10  C   UNL d   1      33.234  20.081 -22.684  0.00  0.00     0.000 A 
ATOM     11  C   UNL d   1      32.914  19.396 -22.356  0.00  0.00     0.002 A 
ATOM     12  C   UNL d   1      32.524  18.772 -24.936  0.00  0.00     0.092 A 
ENDBRANCH   1   4
BRANCH   1  13
ATOM     13  C   UNL d   1      31.678  16.930 -23.876  0.00  0.00     0.121 A 
ATOM     14  C   UNL d   1      30.966  16.692 -24.218  0.00  0.00     0.093 A 
ATOM     15  N   UNL d   1      30.580  17.193 -24.752  0.00  0.00    -0.243 NA
ATOM     16  C   UNL d   1      30.643  15.953 -24.024  0.00  0.00     0.018 A 
ATOM     17  C   UNL d   1      29.871  16.956 -25.093  0.00  0.00     0.099 A 
ATOM     18  C   UNL d   1      29.542  16.217 -24.903  0.00  0.00     0.021 A 
ATOM     19  C   UNL d   1      29.935  15.717 -24.365  0.00  0.00     0.003 A 
ATOM     20  C   UNL d   1      31.030  15.453 -23.490  0.00  0.00     0.002 A 
ATOM     21  C   UNL d   1      31.742  15.690 -23.148  0.00  0.00     0.001 A 
ATOM     22  C   UNL d   1      32.061  16.426 -23.342  0.00  0.00     0.014 A 
ENDBRANCH   1  13
TORSDOF 2
ENDMDL
MODEL 2
REMARK VINA RESULT:      -2.7      0.751      3.895
REMARK  2 active torsions:
REMARK  status: ('A' for Active; 'I' for Inactive)
REMARK    1  A    between atoms: N_2  and  S_1 
REMARK    2  A    between atoms: C_3  and  S_1 
ROOT
ATOM      1  S   UNL d   1      32.509  17.769 -23.794  0.00  0.00     0.273 S 
ATOM      2  O   UNL d   1      33.240  17.482 -24.091  0.00  0.00    -0.200 OA
ATOM      3  O   UNL d   1      31.785  18.044 -23.498  0.00  0.00    -0.200 OA
ENDROOT
BRANCH   1   4
ATOM      4  N   UNL d   1      32.296  16.995 -23.563  0.00  0.00    -0.231 N 
ATOM      5  C   UNL d   1      31.567  16.682 -23.805  0.00  0.00     0.075 A 
ATOM      6  C   UNL d   1      31.513  15.922 -23.497  0.00  0.00     0.018 A 
ATOM      7  C   UNL d   1      30.969  16.989 -24.253  0.00  0.00     0.018 A 
ATOM      8  C   UNL d   1      30.858  15.475 -23.642  0.00  0.00     0.002 A 
ATOM      9  C   UNL d   1      32.173  15.765 -23.084  0.00  0.00     0.021 A 
ATOM     10  C   UNL d   1      30.238  15.779 -24.100  0.00  0.00     0.000 A 
ATOM     11  C   UNL d   1      30.312  16.544 -24.399  0.00  0.00     0.002 A 
ATOM     12  C   UNL d   1      32.667  16.430 -23.120  0.00  0.00     0.092 A 
ENDBRANCH   1   4
BRANCH   1  13
ATOM     13  C   UNL d   1      32.726  18.530 -24.025  0.00  0.00     0.121 A 
ATOM     14  C   UNL d   1      32.875  19.121 -23.469  0.00  0.00     0.093 A 
ATOM     15  N   UNL d   1      32.807  18.953 -22.661  0.00  0.00    -0.243 NA
ATOM     16  C   UNL d   1      33.093  19.881 -23.724  0.00  0.00     0.018 A 
ATOM     17  C   UNL d   1      32.956  19.541 -22.108  0.00  0.00     0.099 A 
ATOM     18  C   UNL d   1      33.173  20.303 -22.357  0.00  0.00     0.021 A 
ATOM     19  C   UNL d   1      33.241  20.469 -23.171  0.00  0.00     0.003 A 
ATOM     20  C   UNL d   1      33.161  20.049 -24.531  0.00  0.00     0.002 A 
ATOM     21  C   UNL d   1      33.012  19.458 -25.087  0.00  0.00     0.001 A 
ATOM     22  C   UNL d   1      32.796  18.704 -24.831  0.00  0.00     0.014 A 
ENDBRANCH   1  13
TORSDOF 2
ENDMDL
MODEL 3
REMARK VINA RESULT:      -2.5      1.602      2.593
REMARK  2 active torsions:
REMARK  status: ('A' for Active; 'I' for Inactive)
REMARK    1  A    between atoms: N_2  and  S_1 
REMARK    2  A    between atoms: C_3  and  S_1 
ROOT
ATOM      1  S   UNL d   1      30.551  16.947 -24.382  0.00  0.00     0.273 S 
ATOM      2  O   UNL d   1      30.676  17.357 -23.660  0.00  0.00    -0.200 OA
ATOM      3  O   UNL d   1      30.438  16.542 -25.095  0.00  0.00    -0.200 OA
ENDROOT
BRANCH   1   4
ATOM      4  N   UNL d   1      31.376  16.840 -24.466  0.00  0.00    -0.231 N 
ATOM      5  C   UNL d   1      31.852  17.484 -24.684  0.00  0.00     0.075 A 
ATOM      6  C   UNL d   1      32.626  17.213 -24.722  0.00  0.00     0.018 A 
ATOM      7  C   UNL d   1      31.676  18.255 -24.846  0.00  0.00     0.018 A 
ATOM      8  C   UNL d   1      33.221  17.719 -24.923  0.00  0.00     0.002 A 
ATOM      9  C   UNL d   1      32.638  16.440 -24.538  0.00  0.00     0.021 A 
ATOM     10  C   UNL d   1      33.053  18.514 -25.091  0.00  0.00     0.000 A 
ATOM     11  C   UNL d   1      32.269  18.765 -25.047  0.00  0.00     0.002 A 
ATOM     12  C   UNL d   1      31.860  16.200 -24.377  0.00  0.00     0.092 A 
ENDBRANCH   1   4
BRANCH   1  13
ATOM     13  C   UNL d   1      29.739  17.057 -24.292  0.00  0.00     0.121 A 
ATOM     14  C   UNL d   1      29.295  16.579 -23.787  0.00  0.00     0.093 A 
ATOM     15  N   UNL d   1      29.666  15.976 -23.360  0.00  0.00    -0.243 NA
ATOM     16  C   UNL d   1      28.478  16.708 -23.712  0.00  0.00     0.018 A 
ATOM     17  C   UNL d   1      29.224  15.500 -22.858  0.00  0.00     0.099 A 
ATOM     18  C   UNL d   1      28.406  15.623 -22.778  0.00  0.00     0.021 A 
ATOM     19  C   UNL d   1      28.036  16.232 -23.210  0.00  0.00     0.003 A 
ATOM     20  C   UNL d   1      28.107  17.311 -24.140  0.00  0.00     0.002 A 
ATOM     21  C   UNL d   1      28.552  17.789 -24.644  0.00  0.00     0.001 A 
ATOM     22  C   UNL d   1      29.364  17.660 -24.717  0.00  0.00     0.014 A 
ENDBRANCH   1  13
TORSDOF 2
ENDMDL
MODEL 4
REMARK VINA RESULT:      -1.9      1.959      3.901
REMARK  2 active torsions:
REMARK  status: ('A' for Active; 'I' for Inactive)
REMARK    1  A    between atoms: N_2  and  S_1 
REMARK    2  A    between atoms: C_3  and  S_1 
ROOT
ATOM      1  S   UNL d   1      30.352  16.536 -24.092  0.00  0.00     0.273 S 
ATOM      2  O   UNL d   1      30.516  16.846 -23.329  0.00  0.00    -0.200 OA
ATOM      3  O   UNL d   1      30.181  16.226 -24.842  0.00  0.00    -0.200 OA
ENDROOT
BRANCH   1   4
ATOM      4  N   UNL d   1      29.638  16.208 -23.807  0.00  0.00    -0.231 N 
ATOM      5  C   UNL d   1      28.986  16.703 -23.672  0.00  0.00     0.075 A 
ATOM      6  C   UNL d   1      28.374  16.229 -23.397  0.00  0.00     0.018 A 
ATOM      7  C   UNL d   1      28.884  17.499 -23.763  0.00  0.00     0.018 A 
ATOM      8  C   UNL d   1      27.660  16.559 -23.216  0.00  0.00     0.002 A 
ATOM      9  C   UNL d   1      28.626  15.477 -23.362  0.00  0.00     0.021 A 
ATOM     10  C   UNL d   1      27.542  17.375 -23.306  0.00  0.00     0.000 A 
ATOM     11  C   UNL d   1      28.171  17.831 -23.583  0.00  0.00     0.002 A 
ATOM     12  C   UNL d   1      29.415  15.456 -23.616  0.00  0.00     0.092 A 
ENDBRANCH   1   4
BRANCH   1  13
ATOM     13  C   UNL d   1      31.058  16.863 -24.366  0.00  0.00     0.121 A 
ATOM     14  C   UNL d   1      31.786  16.509 -24.204  0.00  0.00     0.093 A 
ATOM     15  N   UNL d   1      31.814  15.812 -23.760  0.00  0.00    -0.243 NA
ATOM     16  C   UNL d   1      32.483  16.856 -24.490  0.00  0.00     0.018 A 
ATOM     17  C   UNL d   1      32.538  15.460 -23.599  0.00  0.00     0.099 A 
ATOM     18  C   UNL d   1      33.241  15.802 -23.882  0.00  0.00     0.021 A 
ATOM     19  C   UNL d   1      33.208  16.504 -24.330  0.00  0.00     0.003 A 
ATOM     20  C   UNL d   1      32.455  17.553 -24.935  0.00  0.00     0.002 A 
ATOM     21  C   UNL d   1      31.727  17.906 -25.096  0.00  0.00     0.001 A 
ATOM     22  C   UNL d   1      31.034  17.560 -24.811  0.00  0.00     0.014 A 
ENDBRANCH   1  13
TORSDOF 2
ENDMDL
MODEL 5
REMARK VINA RESULT:      -1.6      0.998      1.345
REMARK  2 active torsions:
REMARK  status: ('A' for Active; 'I' for Inactive)
REMARK    1  A    between atoms: N_2  and  S_1 
REMARK    2  A    between atoms: C_3  and  S_1 
ROOT
ATOM      1  S   UNL d   1      32.646  18.628 -23.520  0.00  0.00     0.273 S 
ATOM      2  O   UNL d   1      33.171  18.530 -24.167  0.00  0.00    -0.200 OA
ATOM      3  O   UNL d   1      32.129  18.734 -22.881  0.00  0.00    -0.200 OA
ENDROOT
BRANCH   1   4
ATOM      4  N   UNL d   1      32.847  19.438 -23.476  0.00  0.00    -0.231 N 
ATOM      5  C   UNL d   1      32.927  19.800 -22.734  0.00  0.00     0.075 A 
ATOM      6  C   UNL d   1      33.125  20.586 -22.866  0.00  0.00     0.018 A 
ATOM      7  C   UNL d   1      32.847  19.514 -21.982  0.00  0.00     0.018 A 
ATOM      8  C   UNL d   1      33.241  21.082 -22.241  0.00  0.00     0.002 A 
ATOM      9  C   UNL d   1      33.167  20.713 -23.649  0.00  0.00     0.021 A 
ATOM     10  C   UNL d   1      33.161  20.802 -21.465  0.00  0.00     0.000 A 
ATOM     11  C   UNL d   1      32.962  20.009 -21.355  0.00  0.00     0.002 A 
ATOM     12  C   UNL d   1      32.994  20.000 -24.037  0.00  0.00     0.092 A 
ENDBRANCH   1   4
BRANCH   1  13
ATOM     13  C   UNL d   1      32.452  17.828 -23.570  0.00  0.00     0.121 A 
ATOM     14  C   UNL d   1      31.835  17.564 -24.050  0.00  0.00     0.093 A 
ATOM     15  N   UNL d   1      31.398  18.109 -24.493  0.00  0.00    -0.243 NA
ATOM     16  C   UNL d   1      31.658  16.754 -24.084  0.00  0.00     0.018 A 
ATOM     17  C   UNL d   1      30.784  17.847 -24.971  0.00  0.00     0.099 A 
ATOM     18  C   UNL d   1      30.601  17.037 -25.010  0.00  0.00     0.021 A 
ATOM     19  C   UNL d   1      31.044  16.492 -24.562  0.00  0.00     0.003 A 
ATOM     20  C   UNL d   1      32.096  16.210 -23.641  0.00  0.00     0.002 A 
ATOM     21  C   UNL d   1      32.712  16.473 -23.161  0.00  0.00     0.001 A 
ATOM     22  C   UNL d   1      32.887  17.279 -23.128  0.00  0.00     0.014 A 
ENDBRANCH   1  13
TORSDOF 2
ENDMDL
