MODEL 1
REMARK VINA RESULT:      13.3      0.000      0.000
REMARK  1 active torsions:
REMARK  status: ('A' for Active; 'I' for Inactive)
REMARK       I    between atoms: C_2  and  N_1 
REMARK    1  A    between atoms: C_4  and  C_2 
ROOT
ATOM      1  N   UNL d   1     -51.791  25.201  33.333  0.00  0.00    -0.273 N 
ATOM      2  C   UNL d   1     -51.892  26.042  33.330  0.00  0.00     0.271 C 
ATOM      3  C   UNL d   1     -52.377  24.622  33.337  0.00  0.00     0.067 A 
ATOM      4  C   UNL d   1     -51.058  24.792  33.334  0.00  0.00     0.083 A 
ATOM      5  O   UNL d   1     -52.667  26.343  33.330  0.00  0.00    -0.266 OA
ATOM      6  C   UNL d   1     -52.024  23.878  33.339  0.00  0.00     0.018 A 
ATOM      7  C   UNL d   1     -51.202  23.993  33.337  0.00  0.00     0.021 A 
ATOM      8  C   UNL d   1     -53.197  24.703  33.338  0.00  0.00     0.018 A 
ATOM      9  C   UNL d   1     -52.487  23.207  33.343  0.00  0.00     0.002 A 
ATOM     10  C   UNL d   1     -53.664  24.029  33.342  0.00  0.00     0.002 A 
ATOM     11  C   UNL d   1     -53.309  23.255  33.344  0.00  0.00     0.000 A 
ENDROOT
BRANCH   2  12
ATOM     12  C   UNL d   1     -51.228  26.547  33.327  0.00  0.00     0.086 A 
ATOM     13  S   UNL d   1     -50.421  26.404  33.335  0.00  0.00    -0.082 SA
ATOM     14  C   UNL d   1     -50.040  27.139  33.326  0.00  0.00     0.036 A 
ATOM     15  C   UNL d   1     -50.593  27.740  33.312  0.00  0.00     0.008 A 
ATOM     16  C   UNL d   1     -51.338  27.379  33.313  0.00  0.00     0.012 A 
ENDBRANCH   2  12
TORSDOF 1
ENDMDL
