MODEL 1
REMARK VINA RESULT:      42.8      0.000      0.000
REMARK  4 active torsions:
REMARK  status: ('A' for Active; 'I' for Inactive)
REMARK    1  A    between atoms: C_4  and  N_1 
REMARK    2  A    between atoms: C_8  and  C_2 
REMARK    3  A    between atoms: C_13  and  C_6 
REMARK    4  A    between atoms: C_7  and  C_8 
ROOT
ATOM      1  N   UNL d   1      46.307 -17.598  42.473  0.00  0.00    -0.255 N 
ATOM      2  C   UNL d   1      46.098 -16.821  43.535  0.00  0.00     0.101 A 
ATOM      3  C   UNL d   1      46.306 -16.806  42.215  0.00  0.00     0.305 A 
ATOM      4  C   UNL d   1      46.176 -16.322  42.875  0.00  0.00     0.256 A 
ATOM      5  C   UNL d   1      46.179 -17.594  43.284  0.00  0.00     0.075 A 
ATOM      6  O   UNL d   1      46.415 -16.547  41.439  0.00  0.00    -0.263 OA
ATOM      7  O   UNL d   1      46.134 -15.503  42.865  0.00  0.00    -0.281 OA
ENDROOT
BRANCH   2   8
ATOM      8  C   UNL d   1      45.962 -16.560  44.308  0.00  0.00     0.223 C 
ATOM      9  O   UNL d   1      46.086 -17.077  44.940  0.00  0.00    -0.284 OA
BRANCH   8  10
ATOM     10  C   UNL d   1      45.706 -15.799  44.456  0.00  0.00     0.139 A 
ATOM     11  O   UNL d   1      44.923 -15.561  44.561  0.00  0.00    -0.304 OA
ATOM     12  C   UNL d   1      44.918 -14.747  44.697  0.00  0.00     0.100 A 
ATOM     13  C   UNL d   1      44.311 -14.214  44.836  0.00  0.00     0.025 A 
ATOM     14  C   UNL d   1      45.701 -14.484  44.675  0.00  0.00     0.025 A 
ATOM     15  C   UNL d   1      44.474 -13.427  44.953  0.00  0.00     0.002 A 
ATOM     16  C   UNL d   1      45.255 -13.157  44.933  0.00  0.00     0.000 A 
ATOM     17  C   UNL d   1      45.868 -13.689  44.793  0.00  0.00     0.002 A 
ATOM     18  C   UNL d   1      46.185 -15.132  44.527  0.00  0.00     0.030 A 
ENDBRANCH   8  10
ENDBRANCH   2   8
BRANCH   5  19
ATOM     19  C   UNL d   1      46.138 -18.263  43.771  0.00  0.00     0.017 A 
ATOM     20  C   UNL d   1      45.643 -18.877  43.573  0.00  0.00     0.013 A 
ATOM     21  C   UNL d   1      45.599 -19.548  44.058  0.00  0.00     0.058 A 
ATOM     22 CL   UNL d   1      45.097 -20.174  43.859  0.00  0.00    -0.082 Cl
ATOM     23  C   UNL d   1      46.058 -19.589  44.742  0.00  0.00     0.011 A 
ATOM     24  C   UNL d   1      46.559 -18.964  44.941  0.00  0.00     0.001 A 
ATOM     25  C   UNL d   1      46.595 -18.301  44.450  0.00  0.00     0.002 A 
ENDBRANCH   5  19
BRANCH   1  26
ATOM     26  C   UNL d   1      46.418 -18.253  41.996  0.00  0.00     0.179 A 
ATOM     27  N   UNL d   1      46.508 -18.238  41.172  0.00  0.00    -0.108 NA
ATOM     28  O   UNL d   1      46.605 -19.012  40.915  0.00  0.00    -0.210 OA
ATOM     29  C   UNL d   1      46.574 -19.507  41.579  0.00  0.00     0.128 A 
ATOM     30  C   UNL d   1      46.459 -19.034  42.245  0.00  0.00     0.067 A 
ATOM     31  C   UNL d   1      46.647 -20.330  41.575  0.00  0.00     0.029 C 
ENDBRANCH   1  26
TORSDOF 4
ENDMDL
