MODEL 1
REMARK VINA RESULT:      21.3      0.000      0.000
REMARK  4 active torsions:
REMARK  status: ('A' for Active; 'I' for Inactive)
REMARK    1  A    between atoms: C_2  and  S_1 
REMARK    2  A    between atoms: N_4  and  S_1 
REMARK    3  A    between atoms: C_11  and  N_4 
REMARK    4  A    between atoms: C_9  and  C_11 
ROOT
ATOM      1  S   UNL d   1     -56.580 -98.818 -44.426  0.00  0.00     0.285 S 
ATOM      2  O   UNL d   1     -56.371 -98.756 -45.222  0.00  0.00    -0.198 OA
ATOM      3  O   UNL d   1     -56.789 -98.880 -43.631  0.00  0.00    -0.198 OA
ENDROOT
BRANCH   1   4
ATOM      4  C   UNL d   1     -57.378 -98.804 -44.635  0.00  0.00     0.105 A 
ATOM      5  C   UNL d   1     -57.960 -98.807 -44.044  0.00  0.00     0.012 A 
ATOM      6  C   UNL d   1     -58.757 -98.792 -44.253  0.00  0.00     0.001 A 
ATOM      7  C   UNL d   1     -57.742 -98.824 -43.248  0.00  0.00     0.001 C 
ATOM      8  C   UNL d   1     -59.338 -98.795 -43.666  0.00  0.00     0.000 C 
ATOM      9  C   UNL d   1     -58.974 -98.775 -45.053  0.00  0.00     0.000 A 
ATOM     10  C   UNL d   1     -58.394 -98.772 -45.639  0.00  0.00     0.001 A 
ATOM     11  C   UNL d   1     -59.772 -98.760 -45.262  0.00  0.00     0.000 C 
ATOM     12  C   UNL d   1     -57.597 -98.786 -45.431  0.00  0.00     0.013 A 
ENDBRANCH   1   4
BRANCH   1  13
ATOM     13  N   UNL d   1     -55.782 -98.833 -44.218  0.00  0.00    -0.155 NA
BRANCH  13  14
ATOM     14  C   UNL d   1     -55.242 -99.253 -44.684  0.00  0.00     0.137 C 
BRANCH  14  15
ATOM     15  C   UNL d   1     -55.132-100.061 -44.559  0.00  0.00     0.120 A 
ATOM     16  O   UNL d   1     -55.425-100.666 -45.033  0.00  0.00    -0.304 OA
ATOM     17  C   UNL d   1     -55.185-101.380 -44.704  0.00  0.00     0.123 A 
ATOM     18  C   UNL d   1     -54.744-101.215 -44.027  0.00  0.00     0.029 A 
ATOM     19  C   UNL d   1     -54.712-100.399 -43.938  0.00  0.00     0.028 A 
ENDBRANCH  14  15
ENDBRANCH  13  14
ENDBRANCH   1  13
TORSDOF 4
ENDMDL
