MODEL 1
REMARK VINA RESULT:       4.6      0.000      0.000
REMARK  3 active torsions:
REMARK  status: ('A' for Active; 'I' for Inactive)
REMARK    1  A    between atoms: C_5  and  C_2 
REMARK    2  A    between atoms: C_10  and  C_4 
REMARK    3  A    between atoms: O_19  and  C_16 
ROOT
ATOM      1  N   UNL d   1      56.097   0.669  34.636  0.00  0.00    -0.245 NA
ATOM      2  C   UNL d   1      56.795   0.592  34.223  0.00  0.00     0.088 A 
ATOM      3  S   UNL d   1      55.556   0.191  32.922  0.00  0.00    -0.085 SA
ATOM      4  C   UNL d   1      56.356   0.204  32.833  0.00  0.00     0.031 A 
ATOM      5  C   UNL d   1      56.922   0.386  33.425  0.00  0.00     0.026 A 
ATOM      6  C   UNL d   1      55.342   0.556  34.340  0.00  0.00     0.087 A 
ATOM      7  C   UNL d   1      55.103   0.345  33.582  0.00  0.00     0.047 A 
ATOM      8  C   UNL d   1      54.770   0.682  34.914  0.00  0.00     0.020 A 
ATOM      9  C   UNL d   1      54.290   0.257  33.392  0.00  0.00     0.008 A 
ATOM     10  C   UNL d   1      53.979   0.604  34.757  0.00  0.00     0.002 A 
ATOM     11  C   UNL d   1      53.739   0.393  33.999  0.00  0.00     0.001 A 
ENDROOT
BRANCH   4  12
ATOM     12  C   UNL d   1      56.714   0.033  32.124  0.00  0.00     0.006 A 
ATOM     13  C   UNL d   1      56.874  -0.763  31.926  0.00  0.00     0.003 A 
ATOM     14  C   UNL d   1      57.231  -0.934  31.219  0.00  0.00     0.024 A 
ATOM     15  C   UNL d   1      57.434  -0.323  30.701  0.00  0.00     0.094 A 
ATOM     16  C   UNL d   1      57.280   0.455  30.889  0.00  0.00     0.024 A 
ATOM     17  C   UNL d   1      56.917   0.645  31.607  0.00  0.00     0.003 A 
BRANCH  15  18
ATOM     18  O   UNL d   1      57.804  -0.481  29.965  0.00  0.00    -0.328 OA
ATOM     19  C   UNL d   1      58.439  -0.011  29.698  0.00  0.00     0.181 C 
ENDBRANCH  15  18
ENDBRANCH   4  12
BRANCH   2  20
ATOM     20  C   UNL d   1      57.645   0.625  34.201  0.00  0.00     0.047 A 
ATOM     21  S   UNL d   1      58.077   0.629  34.894  0.00  0.00    -0.085 SA
ATOM     22  C   UNL d   1      58.871   0.664  34.677  0.00  0.00     0.035 A 
ATOM     23  C   UNL d   1      58.944   0.681  33.871  0.00  0.00     0.007 A 
ATOM     24  C   UNL d   1      58.189   0.657  33.575  0.00  0.00     0.009 A 
ENDBRANCH   2  20
TORSDOF 3
ENDMDL
