MODEL 1
REMARK VINA RESULT:      -5.1      0.000      0.000
REMARK  3 active torsions:
REMARK  status: ('A' for Active; 'I' for Inactive)
REMARK    1  A    between atoms: N_2  and  S_1 
REMARK    2  A    between atoms: C_3  and  C_7 
REMARK       I    between atoms: N_4  and  C_3 
REMARK    3  A    between atoms: C_13  and  N_4 
ROOT
ATOM      1  N   UNL d   1      59.313  -0.240  29.496  0.00  0.00    -0.233 N 
ATOM      2  C   UNL d   1      58.063  -0.009  30.527  0.00  0.00     0.061 A 
ATOM      3  C   UNL d   1      58.693  -0.782  29.524  0.00  0.00     0.091 A 
ATOM      4  C   UNL d   1      59.304   0.409  29.981  0.00  0.00     0.091 A 
ATOM      5  C   UNL d   1      58.684   0.533  30.499  0.00  0.00     0.025 A 
ATOM      6  C   UNL d   1      58.064  -0.673  30.037  0.00  0.00     0.025 A 
ENDROOT
BRANCH   2   7
ATOM      7  C   UNL d   1      57.428   0.109  31.051  0.00  0.00     0.279 C 
ATOM      8  N   UNL d   1      57.450  -0.250  31.800  0.00  0.00    -0.208 NA
ATOM      9  O   UNL d   1      56.792   0.571  30.833  0.00  0.00    -0.265 OA
BRANCH   8  10
ATOM     10  C   UNL d   1      56.820  -0.136  32.326  0.00  0.00     0.085 A 
ATOM     11  C   UNL d   1      56.758   0.576  32.757  0.00  0.00     0.019 A 
ATOM     12  C   UNL d   1      56.125   0.682  33.281  0.00  0.00     0.002 A 
ATOM     13  C   UNL d   1      55.560   0.091  33.378  0.00  0.00     0.000 A 
ATOM     14  C   UNL d   1      55.621  -0.618  32.949  0.00  0.00     0.002 A 
ATOM     15  C   UNL d   1      54.929   0.200  33.902  0.00  0.00     0.000 C 
ATOM     16  C   UNL d   1      56.251  -0.725  32.427  0.00  0.00     0.019 A 
ENDBRANCH   8  10
ENDBRANCH   2   7
BRANCH   1  17
ATOM     17  S   UNL d   1      59.943  -0.363  28.972  0.00  0.00     0.252 S 
ATOM     18  O   UNL d   1      59.617   0.191  28.455  0.00  0.00    -0.204 OA
ATOM     19  O   UNL d   1      60.254  -0.955  29.563  0.00  0.00    -0.204 OA
ATOM     20  C   UNL d   1      60.565  -0.487  28.457  0.00  0.00     0.164 C 
ENDBRANCH   1  17
TORSDOF 3
ENDMDL
MODEL 2
REMARK VINA RESULT:      -4.6      2.017      4.820
REMARK  3 active torsions:
REMARK  status: ('A' for Active; 'I' for Inactive)
REMARK    1  A    between atoms: N_2  and  S_1 
REMARK    2  A    between atoms: C_3  and  C_7 
REMARK       I    between atoms: N_4  and  C_3 
REMARK    3  A    between atoms: C_13  and  N_4 
ROOT
ATOM      1  N   UNL d   1      55.866   0.024  33.133  0.00  0.00    -0.233 N 
ATOM      2  C   UNL d   1      56.881  -0.160  31.863  0.00  0.00     0.061 A 
ATOM      3  C   UNL d   1      56.224   0.682  32.790  0.00  0.00     0.091 A 
ATOM      4  C   UNL d   1      56.018  -0.716  32.841  0.00  0.00     0.091 A 
ATOM      5  C   UNL d   1      56.523  -0.818  32.207  0.00  0.00     0.025 A 
ATOM      6  C   UNL d   1      56.733   0.598  32.154  0.00  0.00     0.025 A 
ENDROOT
BRANCH   2   7
ATOM      7  C   UNL d   1      57.398  -0.254  31.217  0.00  0.00     0.279 C 
ATOM      8  N   UNL d   1      57.914   0.367  31.019  0.00  0.00    -0.208 NA
ATOM      9  O   UNL d   1      57.397  -0.944  30.784  0.00  0.00    -0.265 OA
BRANCH   8  10
ATOM     10  C   UNL d   1      58.430   0.279  30.377  0.00  0.00     0.085 A 
ATOM     11  C   UNL d   1      58.126   0.170  29.607  0.00  0.00     0.019 A 
ATOM     12  C   UNL d   1      58.649   0.083  28.970  0.00  0.00     0.002 A 
ATOM     13  C   UNL d   1      59.463   0.104  29.093  0.00  0.00     0.000 A 
ATOM     14  C   UNL d   1      59.766   0.213  29.859  0.00  0.00     0.002 A 
ATOM     15  C   UNL d   1      59.982   0.017  28.455  0.00  0.00     0.000 C 
ATOM     16  C   UNL d   1      59.247   0.299  30.494  0.00  0.00     0.019 A 
ENDBRANCH   8  10
ENDBRANCH   2   7
BRANCH   1  17
ATOM     17  S   UNL d   1      55.354   0.124  33.776  0.00  0.00     0.252 S 
ATOM     18  O   UNL d   1      54.737  -0.195  33.330  0.00  0.00    -0.204 OA
ATOM     19  O   UNL d   1      56.052   0.463  34.216  0.00  0.00    -0.204 OA
ATOM     20  C   UNL d   1      54.850   0.224  34.412  0.00  0.00     0.164 C 
ENDBRANCH   1  17
TORSDOF 3
ENDMDL
