MODEL 1
REMARK VINA RESULT:      78.7      0.000      0.000
REMARK  7 active torsions:
REMARK  status: ('A' for Active; 'I' for Inactive)
REMARK    1  A    between atoms: C_10  and  N_2 
REMARK    2  A    between atoms: S_11  and  C_5 
REMARK    3  A    between atoms: C_12  and  C_10 
REMARK    4  A    between atoms: C_22  and  S_11 
REMARK    5  A    between atoms: C_14  and  C_22 
REMARK       I    between atoms: N_16  and  C_14 
REMARK    6  A    between atoms: C_23  and  N_16 
REMARK    7  A    between atoms: C_24  and  C_23 
ROOT
ATOM      1  C   UNL d   1      58.498  49.689  51.217  0.00  0.00     0.104 A 
ATOM      2  N   UNL d   1      59.918  49.696  51.321  0.00  0.00    -0.250 N 
ATOM      3  C   UNL d   1      58.559  49.681  50.386  0.00  0.00     0.095 A 
ATOM      4  C   UNL d   1      59.180  49.697  51.680  0.00  0.00     0.274 A 
ATOM      5  C   UNL d   1      59.978  49.688  50.490  0.00  0.00     0.182 A 
ATOM      6  N   UNL d   1      59.301  49.680  50.027  0.00  0.00    -0.222 NA
ATOM      7  S   UNL d   1      57.684  49.688  51.409  0.00  0.00    -0.081 SA
ATOM      8  C   UNL d   1      57.781  49.674  50.079  0.00  0.00     0.024 A 
ATOM      9  C   UNL d   1      57.250  49.678  50.702  0.00  0.00     0.031 A 
ATOM     10  O   UNL d   1      59.119  49.705  52.516  0.00  0.00    -0.266 OA
ATOM     11  C   UNL d   1      57.503  49.665  49.301  0.00  0.00     0.002 A 
ATOM     12  C   UNL d   1      56.432  49.673  50.569  0.00  0.00     0.006 A 
ATOM     13  C   UNL d   1      56.690  49.659  49.148  0.00  0.00     0.000 A 
ATOM     14  C   UNL d   1      56.154  49.664  49.786  0.00  0.00     0.001 A 
ENDROOT
BRANCH   5  15
ATOM     15  S   UNL d   1      60.729  49.687  50.124  0.00  0.00    -0.044 SA
BRANCH  15  16
ATOM     16  C   UNL d   1      61.220  49.011  50.184  0.00  0.00     0.101 C 
BRANCH  16  17
ATOM     17  C   UNL d   1      61.220  48.452  49.582  0.00  0.00     0.286 C 
ATOM     18  N   UNL d   1      61.716  47.794  49.639  0.00  0.00    -0.204 NA
ATOM     19  O   UNL d   1      60.729  48.549  48.926  0.00  0.00    -0.265 OA
BRANCH  18  20
ATOM     20  C   UNL d   1      61.717  47.232  49.035  0.00  0.00     0.127 C 
BRANCH  20  21
ATOM     21  C   UNL d   1      62.041  46.488  49.169  0.00  0.00     0.119 A 
ATOM     22  O   UNL d   1      62.744  46.178  49.470  0.00  0.00    -0.304 OA
ATOM     23  C   UNL d   1      62.697  45.358  49.443  0.00  0.00     0.123 A 
ATOM     24  C   UNL d   1      61.961  45.158  49.123  0.00  0.00     0.029 A 
ATOM     25  C   UNL d   1      61.564  45.857  48.957  0.00  0.00     0.028 A 
ENDBRANCH  20  21
ENDBRANCH  18  20
ENDBRANCH  16  17
ENDBRANCH  15  16
ENDBRANCH   5  15
BRANCH   2  26
ATOM     26  C   UNL d   1      60.608  49.704  51.784  0.00  0.00     0.110 C 
BRANCH  26  27
ATOM     27  C   UNL d   1      60.564  49.567  52.602  0.00  0.00     0.118 A 
ATOM     28  O   UNL d   1      59.910  49.700  53.063  0.00  0.00    -0.304 OA
ATOM     29  C   UNL d   1      60.096  49.498  53.820  0.00  0.00     0.123 A 
ATOM     30  C   UNL d   1      60.858  49.242  53.832  0.00  0.00     0.029 A 
ATOM     31  C   UNL d   1      61.142  49.286  53.081  0.00  0.00     0.028 A 
ENDBRANCH  26  27
ENDBRANCH   2  26
TORSDOF 7
ENDMDL
