MODEL 1
REMARK VINA RESULT:      -6.4      0.000      0.000
REMARK  4 active torsions:
REMARK  status: ('A' for Active; 'I' for Inactive)
REMARK    1  A    between atoms: C_2  and  S_1 
REMARK    2  A    between atoms: N_11  and  S_1 
REMARK    3  A    between atoms: C_7  and  C_19 
REMARK    4  A    between atoms: C_19  and  N_11 
ROOT
ATOM      1  C   UNL d   1     -47.118  12.945  23.311  0.00  0.00     0.133 C 
ENDROOT
BRANCH   1   2
ATOM      2  C   UNL d   1     -46.568  12.325  23.362  0.00  0.00     0.120 A 
ATOM      3  N   UNL d   1     -45.777  12.396  23.213  0.00  0.00    -0.225 NA
ATOM      4  C   UNL d   1     -45.425  11.644  23.327  0.00  0.00     0.148 A 
ATOM      5  C   UNL d   1     -44.647  11.380  23.257  0.00  0.00     0.037 A 
ATOM      6  N   UNL d   1     -46.021  11.120  23.546  0.00  0.00    -0.288 N 
ATOM      7  C   UNL d   1     -44.464  10.591  23.407  0.00  0.00     0.004 A 
ATOM      8  C   UNL d   1     -43.683  10.335  23.335  0.00  0.00     0.000 C 
ATOM      9  C   UNL d   1     -45.060  10.067  23.626  0.00  0.00     0.019 A 
ATOM     10  C   UNL d   1     -45.838  10.331  23.696  0.00  0.00     0.082 A 
ATOM     11  C   UNL d   1     -46.737  11.541  23.569  0.00  0.00     0.102 A 
ENDBRANCH   1   2
BRANCH   1  12
ATOM     12  N   UNL d   1     -47.724  12.914  22.752  0.00  0.00    -0.155 NA
BRANCH  12  13
ATOM     13  S   UNL d   1     -48.261  13.541  22.694  0.00  0.00     0.291 S 
ATOM     14  O   UNL d   1     -47.968  13.720  21.935  0.00  0.00    -0.198 OA
ATOM     15  O   UNL d   1     -48.551  13.358  23.455  0.00  0.00    -0.198 OA
BRANCH  13  16
ATOM     16  C   UNL d   1     -48.797  14.166  22.639  0.00  0.00     0.135 A 
ATOM     17  S   UNL d   1     -49.611  14.105  22.642  0.00  0.00    -0.062 SA
ATOM     18  C   UNL d   1     -49.933  14.861  22.576  0.00  0.00     0.088 A 
ATOM     19 CL   UNL d   1     -50.734  15.047  22.558  0.00  0.00    -0.075 Cl
ATOM     20  C   UNL d   1     -49.299  15.400  22.531  0.00  0.00     0.019 A 
ATOM     21  C   UNL d   1     -48.599  14.970  22.569  0.00  0.00     0.021 A 
ENDBRANCH  13  16
ENDBRANCH  12  13
ENDBRANCH   1  12
TORSDOF 4
ENDMDL
MODEL 2
REMARK VINA RESULT:      -6.4      2.411      5.173
REMARK  4 active torsions:
REMARK  status: ('A' for Active; 'I' for Inactive)
REMARK    1  A    between atoms: C_2  and  S_1 
REMARK    2  A    between atoms: N_11  and  S_1 
REMARK    3  A    between atoms: C_7  and  C_19 
REMARK    4  A    between atoms: C_19  and  N_11 
ROOT
ATOM      1  C   UNL d   1     -47.240  12.589  22.849  0.00  0.00     0.133 C 
ENDROOT
BRANCH   1   2
ATOM      2  C   UNL d   1     -47.762  13.234  22.842  0.00  0.00     0.120 A 
ATOM      3  N   UNL d   1     -48.484  13.248  23.206  0.00  0.00    -0.225 NA
ATOM      4  C   UNL d   1     -48.829  13.998  23.064  0.00  0.00     0.148 A 
ATOM      5  C   UNL d   1     -49.550  14.329  23.292  0.00  0.00     0.037 A 
ATOM      6  N   UNL d   1     -48.300  14.435  22.607  0.00  0.00    -0.288 N 
ATOM      7  C   UNL d   1     -49.741  15.097  23.063  0.00  0.00     0.004 A 
ATOM      8  C   UNL d   1     -50.464  15.420  23.296  0.00  0.00     0.000 C 
ATOM      9  C   UNL d   1     -49.213  15.533  22.608  0.00  0.00     0.019 A 
ATOM     10  C   UNL d   1     -48.493  15.202  22.380  0.00  0.00     0.082 A 
ATOM     11  C   UNL d   1     -47.633  13.961  22.467  0.00  0.00     0.102 A 
ENDBRANCH   1   2
BRANCH   1  12
ATOM     12  N   UNL d   1     -46.899  12.343  23.560  0.00  0.00    -0.155 NA
BRANCH  12  13
ATOM     13  S   UNL d   1     -46.311  11.761  23.552  0.00  0.00     0.291 S 
ATOM     14  O   UNL d   1     -46.889  11.177  23.692  0.00  0.00    -0.198 OA
ATOM     15  O   UNL d   1     -45.735  12.349  23.411  0.00  0.00    -0.198 OA
BRANCH  13  16
ATOM     16  C   UNL d   1     -45.723  11.182  23.544  0.00  0.00     0.135 A 
ATOM     17  S   UNL d   1     -44.930  11.301  23.387  0.00  0.00    -0.062 SA
ATOM     18  C   UNL d   1     -44.539  10.577  23.437  0.00  0.00     0.088 A 
ATOM     19 CL   UNL d   1     -43.735  10.451  23.318  0.00  0.00    -0.075 Cl
ATOM     20  C   UNL d   1     -45.107   9.998  23.629  0.00  0.00     0.019 A 
ATOM     21  C   UNL d   1     -45.837  10.373  23.695  0.00  0.00     0.021 A 
ENDBRANCH  13  16
ENDBRANCH  12  13
ENDBRANCH   1  12
TORSDOF 4
ENDMDL
MODEL 3
REMARK VINA RESULT:      -5.9      1.162      1.575
REMARK  4 active torsions:
REMARK  status: ('A' for Active; 'I' for Inactive)
REMARK    1  A    between atoms: C_2  and  S_1 
REMARK    2  A    between atoms: N_11  and  S_1 
REMARK    3  A    between atoms: C_7  and  C_19 
REMARK    4  A    between atoms: C_19  and  N_11 
ROOT
ATOM      1  C   UNL d   1     -47.515  12.241  23.455  0.00  0.00     0.133 C 
ENDROOT
BRANCH   1   2
ATOM      2  C   UNL d   1     -46.747  11.934  23.392  0.00  0.00     0.120 A 
ATOM      3  N   UNL d   1     -46.505  11.225  23.698  0.00  0.00    -0.225 NA
ATOM      4  C   UNL d   1     -45.695  11.127  23.511  0.00  0.00     0.148 A 
ATOM      5  C   UNL d   1     -45.157  10.523  23.674  0.00  0.00     0.037 A 
ATOM      6  N   UNL d   1     -45.453  11.791  23.087  0.00  0.00    -0.288 N 
ATOM      7  C   UNL d   1     -44.378  10.582  23.413  0.00  0.00     0.004 A 
ATOM      8  C   UNL d   1     -43.847   9.973  23.580  0.00  0.00     0.000 C 
ATOM      9  C   UNL d   1     -44.137  11.245  22.989  0.00  0.00     0.019 A 
ATOM     10  C   UNL d   1     -44.675  11.849  22.826  0.00  0.00     0.082 A 
ATOM     11  C   UNL d   1     -46.108  12.297  23.010  0.00  0.00     0.102 A 
ENDBRANCH   1   2
BRANCH   1  12
ATOM     12  N   UNL d   1     -48.065  12.100  22.856  0.00  0.00    -0.155 NA
BRANCH  12  13
ATOM     13  S   UNL d   1     -48.833  12.403  22.925  0.00  0.00     0.291 S 
ATOM     14  O   UNL d   1     -49.029  11.783  23.446  0.00  0.00    -0.198 OA
ATOM     15  O   UNL d   1     -48.631  13.022  22.403  0.00  0.00    -0.198 OA
BRANCH  13  16
ATOM     16  C   UNL d   1     -49.597  12.707  22.992  0.00  0.00     0.135 A 
ATOM     17  S   UNL d   1     -49.808  13.495  22.956  0.00  0.00    -0.062 SA
ATOM     18  C   UNL d   1     -50.625  13.554  23.048  0.00  0.00     0.088 A 
ATOM     19 CL   UNL d   1     -51.063  14.250  23.046  0.00  0.00    -0.075 Cl
ATOM     20  C   UNL d   1     -50.923  12.781  23.143  0.00  0.00     0.019 A 
ATOM     21  C   UNL d   1     -50.287  12.260  23.108  0.00  0.00     0.021 A 
ENDBRANCH  13  16
ENDBRANCH  12  13
ENDBRANCH   1  12
TORSDOF 4
ENDMDL
MODEL 4
REMARK VINA RESULT:      -5.3      8.442      9.517
REMARK  4 active torsions:
REMARK  status: ('A' for Active; 'I' for Inactive)
REMARK    1  A    between atoms: C_2  and  S_1 
REMARK    2  A    between atoms: N_11  and  S_1 
REMARK    3  A    between atoms: C_7  and  C_19 
REMARK    4  A    between atoms: C_19  and  N_11 
ROOT
ATOM      1  C   UNL d   1     -39.628  15.236  19.870  0.00  0.00     0.133 C 
ENDROOT
BRANCH   1   2
ATOM      2  C   UNL d   1     -39.920  15.304  19.096  0.00  0.00     0.120 A 
ATOM      3  N   UNL d   1     -40.646  15.600  18.899  0.00  0.00    -0.225 NA
ATOM      4  C   UNL d   1     -40.719  15.571  18.065  0.00  0.00     0.148 A 
ATOM      5  C   UNL d   1     -41.327  15.793  17.554  0.00  0.00     0.037 A 
ATOM      6  N   UNL d   1     -40.022  15.251  17.764  0.00  0.00    -0.288 N 
ATOM      7  C   UNL d   1     -41.238  15.696  16.741  0.00  0.00     0.004 A 
ATOM      8  C   UNL d   1     -41.850  15.921  16.236  0.00  0.00     0.000 C 
ATOM      9  C   UNL d   1     -40.542  15.376  16.440  0.00  0.00     0.019 A 
ATOM     10  C   UNL d   1     -39.934  15.154  16.952  0.00  0.00     0.082 A 
ATOM     11  C   UNL d   1     -39.520  15.083  18.405  0.00  0.00     0.102 A 
ENDBRANCH   1   2
BRANCH   1  12
ATOM     12  N   UNL d   1     -39.562  14.492  20.221  0.00  0.00    -0.155 NA
BRANCH  12  13
ATOM     13  S   UNL d   1     -39.314  14.431  21.009  0.00  0.00     0.291 S 
ATOM     14  O   UNL d   1     -38.519  14.454  20.759  0.00  0.00    -0.198 OA
ATOM     15  O   UNL d   1     -40.112  14.409  21.254  0.00  0.00    -0.198 OA
BRANCH  13  16
ATOM     16  C   UNL d   1     -39.070  14.370  21.794  0.00  0.00     0.135 A 
ATOM     17  S   UNL d   1     -38.914  14.991  22.301  0.00  0.00    -0.062 SA
ATOM     18  C   UNL d   1     -38.686  14.685  23.032  0.00  0.00     0.088 A 
ATOM     19 CL   UNL d   1     -38.480  15.122  23.697  0.00  0.00    -0.075 Cl
ATOM     20  C   UNL d   1     -38.703  13.854  22.972  0.00  0.00     0.019 A 
ATOM     21  C   UNL d   1     -38.940  13.661  22.207  0.00  0.00     0.021 A 
ENDBRANCH  13  16
ENDBRANCH  12  13
ENDBRANCH   1  12
TORSDOF 4
ENDMDL
MODEL 5
REMARK VINA RESULT:      -4.6      9.155      9.869
REMARK  4 active torsions:
REMARK  status: ('A' for Active; 'I' for Inactive)
REMARK    1  A    between atoms: C_2  and  S_1 
REMARK    2  A    between atoms: N_11  and  S_1 
REMARK    3  A    between atoms: C_7  and  C_19 
REMARK    4  A    between atoms: C_19  and  N_11 
ROOT
ATOM      1  C   UNL d   1     -38.585  14.452  19.555  0.00  0.00     0.133 C 
ENDROOT
BRANCH   1   2
ATOM      2  C   UNL d   1     -38.623  14.353  20.378  0.00  0.00     0.120 A 
ATOM      3  N   UNL d   1     -38.439  13.670  20.771  0.00  0.00    -0.225 NA
ATOM      4  C   UNL d   1     -38.551  13.806  21.589  0.00  0.00     0.148 A 
ATOM      5  C   UNL d   1     -38.453  13.321  22.250  0.00  0.00     0.037 A 
ATOM      6  N   UNL d   1     -38.805  14.584  21.682  0.00  0.00    -0.288 N 
ATOM      7  C   UNL d   1     -38.609  13.615  23.003  0.00  0.00     0.004 A 
ATOM      8  C   UNL d   1     -38.509  13.124  23.659  0.00  0.00     0.000 C 
ATOM      9  C   UNL d   1     -38.863  14.392  23.096  0.00  0.00     0.019 A 
ATOM     10  C   UNL d   1     -38.961  14.877  22.435  0.00  0.00     0.082 A 
ATOM     11  C   UNL d   1     -38.851  14.929  20.928  0.00  0.00     0.102 A 
ENDBRANCH   1   2
BRANCH   1  12
ATOM     12  N   UNL d   1     -38.799  13.831  19.056  0.00  0.00    -0.155 NA
BRANCH  12  13
ATOM     13  S   UNL d   1     -38.778  13.939  18.235  0.00  0.00     0.291 S 
ATOM     14  O   UNL d   1     -37.948  14.009  18.266  0.00  0.00    -0.198 OA
ATOM     15  O   UNL d   1     -39.610  13.868  18.209  0.00  0.00    -0.198 OA
BRANCH  13  16
ATOM     16  C   UNL d   1     -38.761  14.046  17.417  0.00  0.00     0.135 A 
ATOM     17  S   UNL d   1     -38.316  13.618  16.883  0.00  0.00    -0.062 SA
ATOM     18  C   UNL d   1     -38.464  13.906  16.124  0.00  0.00     0.088 A 
ATOM     19 CL   UNL d   1     -38.128  13.628  15.427  0.00  0.00    -0.075 Cl
ATOM     20  C   UNL d   1     -39.014  14.528  16.196  0.00  0.00     0.019 A 
ATOM     21  C   UNL d   1     -39.196  14.614  16.994  0.00  0.00     0.021 A 
ENDBRANCH  13  16
ENDBRANCH  12  13
ENDBRANCH   1  12
TORSDOF 4
ENDMDL
MODEL 6
REMARK VINA RESULT:      -4.5      8.958     10.204
REMARK  4 active torsions:
REMARK  status: ('A' for Active; 'I' for Inactive)
REMARK    1  A    between atoms: C_2  and  S_1 
REMARK    2  A    between atoms: N_11  and  S_1 
REMARK    3  A    between atoms: C_7  and  C_19 
REMARK    4  A    between atoms: C_19  and  N_11 
ROOT
ATOM      1  C   UNL d   1     -39.057  14.281  19.149  0.00  0.00     0.133 C 
ENDROOT
BRANCH   1   2
ATOM      2  C   UNL d   1     -38.888  14.312  18.337  0.00  0.00     0.120 A 
ATOM      3  N   UNL d   1     -38.605  13.694  17.899  0.00  0.00    -0.225 NA
ATOM      4  C   UNL d   1     -38.511  13.958  17.110  0.00  0.00     0.148 A 
ATOM      5  C   UNL d   1     -38.246  13.580  16.427  0.00  0.00     0.037 A 
ATOM      6  N   UNL d   1     -38.743  14.748  17.082  0.00  0.00    -0.288 N 
ATOM      7  C   UNL d   1     -38.213  13.992  15.714  0.00  0.00     0.004 A 
ATOM      8  C   UNL d   1     -37.947  13.606  15.035  0.00  0.00     0.000 C 
ATOM      9  C   UNL d   1     -38.445  14.781  15.686  0.00  0.00     0.019 A 
ATOM     10  C   UNL d   1     -38.710  15.159  16.369  0.00  0.00     0.082 A 
ATOM     11  C   UNL d   1     -38.979  14.973  17.846  0.00  0.00     0.102 A 
ENDBRANCH   1   2
BRANCH   1  12
ATOM     12  N   UNL d   1     -38.841  14.909  19.639  0.00  0.00    -0.155 NA
BRANCH  12  13
ATOM     13  S   UNL d   1     -38.901  14.827  20.461  0.00  0.00     0.291 S 
ATOM     14  O   UNL d   1     -39.723  14.713  20.388  0.00  0.00    -0.198 OA
ATOM     15  O   UNL d   1     -38.076  14.941  20.528  0.00  0.00    -0.198 OA
BRANCH  13  16
ATOM     16  C   UNL d   1     -38.957  14.746  21.280  0.00  0.00     0.135 A 
ATOM     17  S   UNL d   1     -38.741  15.302  21.836  0.00  0.00    -0.062 SA
ATOM     18  C   UNL d   1     -38.889  14.997  22.588  0.00  0.00     0.088 A 
ATOM     19 CL   UNL d   1     -38.750  15.379  23.302  0.00  0.00    -0.075 Cl
ATOM     20  C   UNL d   1     -39.204  14.232  22.489  0.00  0.00     0.019 A 
ATOM     21  C   UNL d   1     -39.246  14.078  21.681  0.00  0.00     0.021 A 
ENDBRANCH  13  16
ENDBRANCH  12  13
ENDBRANCH   1  12
TORSDOF 4
ENDMDL
MODEL 7
REMARK VINA RESULT:      -4.4      9.178     10.390
REMARK  4 active torsions:
REMARK  status: ('A' for Active; 'I' for Inactive)
REMARK    1  A    between atoms: C_2  and  S_1 
REMARK    2  A    between atoms: N_11  and  S_1 
REMARK    3  A    between atoms: C_7  and  C_19 
REMARK    4  A    between atoms: C_19  and  N_11 
ROOT
ATOM      1  C   UNL d   1     -39.478  14.332  18.031  0.00  0.00     0.133 C 
ENDROOT
BRANCH   1   2
ATOM      2  C   UNL d   1     -39.689  14.568  18.798  0.00  0.00     0.120 A 
ATOM      3  N   UNL d   1     -39.204  14.965  19.309  0.00  0.00    -0.225 NA
ATOM      4  C   UNL d   1     -39.629  15.095  20.019  0.00  0.00     0.148 A 
ATOM      5  C   UNL d   1     -39.426  15.466  20.727  0.00  0.00     0.037 A 
ATOM      6  N   UNL d   1     -40.380  14.768  19.925  0.00  0.00    -0.288 N 
ATOM      7  C   UNL d   1     -39.973  15.510  21.341  0.00  0.00     0.004 A 
ATOM      8  C   UNL d   1     -39.761  15.882  22.046  0.00  0.00     0.000 C 
ATOM      9  C   UNL d   1     -40.722  15.184  21.247  0.00  0.00     0.019 A 
ATOM     10  C   UNL d   1     -40.926  14.813  20.539  0.00  0.00     0.082 A 
ATOM     11  C   UNL d   1     -40.421  14.438  19.163  0.00  0.00     0.102 A 
ENDBRANCH   1   2
BRANCH   1  12
ATOM     12  N   UNL d   1     -38.692  14.381  17.787  0.00  0.00    -0.155 NA
BRANCH  12  13
ATOM     13  S   UNL d   1     -38.495  14.211  17.000  0.00  0.00     0.291 S 
ATOM     14  O   UNL d   1     -38.387  13.410  17.201  0.00  0.00    -0.198 OA
ATOM     15  O   UNL d   1     -38.605  15.015  16.804  0.00  0.00    -0.198 OA
BRANCH  13  16
ATOM     16  C   UNL d   1     -38.300  14.045  16.216  0.00  0.00     0.135 A 
ATOM     17  S   UNL d   1     -38.258  14.584  15.604  0.00  0.00    -0.062 SA
ATOM     18  C   UNL d   1     -38.044  14.186  14.915  0.00  0.00     0.088 A 
ATOM     19 CL   UNL d   1     -37.941  14.524  14.172  0.00  0.00    -0.075 Cl
ATOM     20  C   UNL d   1     -37.953  13.381  15.109  0.00  0.00     0.019 A 
ATOM     21  C   UNL d   1     -38.111  13.295  15.912  0.00  0.00     0.021 A 
ENDBRANCH  13  16
ENDBRANCH  12  13
ENDBRANCH   1  12
TORSDOF 4
ENDMDL
