MODEL 1
REMARK VINA RESULT:      26.2      0.000      0.000
REMARK  5 active torsions:
REMARK  status: ('A' for Active; 'I' for Inactive)
REMARK    1  A    between atoms: N_3  and  C_1 
REMARK       I    between atoms: C_6  and  N_3 
REMARK    2  A    between atoms: C_9  and  C_6 
REMARK    3  A    between atoms: C_12  and  C_7 
REMARK    4  A    between atoms: S_8  and  C_9 
REMARK    5  A    between atoms: C_11  and  S_8 
ROOT
ATOM      1  N   UNL d   1      13.201  12.913  -3.208  0.00  0.00    -0.181 NA
ATOM      2  C   UNL d   1      13.604  12.218  -3.023  0.00  0.00     0.287 C 
ATOM      3  O   UNL d   1      14.020  11.822  -3.611  0.00  0.00    -0.265 OA
ENDROOT
BRANCH   2   4
ATOM      4  C   UNL d   1      13.588  11.925  -2.254  0.00  0.00     0.087 C 
ATOM      5  C   UNL d   1      12.870  11.782  -1.884  0.00  0.00     0.012 C 
BRANCH   4   6
ATOM      6  S   UNL d   1      14.302  11.779  -1.860  0.00  0.00    -0.082 SA
BRANCH   6   7
ATOM      7  C   UNL d   1      14.543  12.266  -1.256  0.00  0.00     0.030 A 
ATOM      8  C   UNL d   1      15.297  12.601  -1.276  0.00  0.00     0.006 A 
ATOM      9  C   UNL d   1      15.543  13.098  -0.659  0.00  0.00     0.001 A 
ATOM     10  C   UNL d   1      15.026  13.253  -0.031  0.00  0.00     0.000 A 
ATOM     11  C   UNL d   1      14.280  12.919  -0.017  0.00  0.00     0.001 A 
ATOM     12  C   UNL d   1      14.026  12.421  -0.627  0.00  0.00     0.006 A 
ENDBRANCH   6   7
ENDBRANCH   4   6
ENDBRANCH   2   4
BRANCH   1  13
ATOM     13  C   UNL d   1      13.213  13.210  -3.973  0.00  0.00     0.219 A 
ATOM     14  S   UNL d   1      13.430  13.972  -4.197  0.00  0.00    -0.026 SA
ATOM     15  C   UNL d   1      13.360  14.030  -5.018  0.00  0.00     0.135 A 
ATOM     16  N   UNL d   1      13.097  13.298  -5.300  0.00  0.00    -0.139 NA
ATOM     17  N   UNL d   1      13.006  12.793  -4.655  0.00  0.00    -0.121 NA
BRANCH  15  18
ATOM     18  C   UNL d   1      13.521  14.695  -5.479  0.00  0.00     0.028 C 
ATOM     19  C   UNL d   1      14.128  14.661  -6.041  0.00  0.00     0.002 C 
ENDBRANCH  15  18
ENDBRANCH   1  13
TORSDOF 5
ENDMDL
MODEL 2
REMARK VINA RESULT:      29.0      2.808      3.713
REMARK  5 active torsions:
REMARK  status: ('A' for Active; 'I' for Inactive)
REMARK    1  A    between atoms: N_3  and  C_1 
REMARK       I    between atoms: C_6  and  N_3 
REMARK    2  A    between atoms: C_9  and  C_6 
REMARK    3  A    between atoms: C_12  and  C_7 
REMARK    4  A    between atoms: S_8  and  C_9 
REMARK    5  A    between atoms: C_11  and  S_8 
ROOT
ATOM      1  N   UNL d   1      15.409  14.232  -0.677  0.00  0.00    -0.181 NA
ATOM      2  C   UNL d   1      14.852  13.742  -0.318  0.00  0.00     0.287 C 
ATOM      3  O   UNL d   1      14.161  14.068  -0.015  0.00  0.00    -0.265 OA
ENDROOT
BRANCH   2   4
ATOM      4  C   UNL d   1      14.990  12.932  -0.264  0.00  0.00     0.087 C 
ATOM      5  C   UNL d   1      15.728  12.656  -0.035  0.00  0.00     0.012 C 
BRANCH   4   6
ATOM      6  S   UNL d   1      14.379  12.403  -0.442  0.00  0.00    -0.082 SA
BRANCH   6   7
ATOM      7  C   UNL d   1      14.224  12.202  -1.214  0.00  0.00     0.030 A 
ATOM      8  C   UNL d   1      14.846  12.132  -1.751  0.00  0.00     0.006 A 
ATOM      9  C   UNL d   1      14.688  11.926  -2.540  0.00  0.00     0.001 A 
ATOM     10  C   UNL d   1      13.905  11.794  -2.776  0.00  0.00     0.000 A 
ATOM     11  C   UNL d   1      13.292  11.865  -2.239  0.00  0.00     0.001 A 
ATOM     12  C   UNL d   1      13.441  12.069  -1.451  0.00  0.00     0.006 A 
ENDBRANCH   6   7
ENDBRANCH   4   6
ENDBRANCH   2   4
BRANCH   1  13
ATOM     13  C   UNL d   1      15.278  15.040  -0.734  0.00  0.00     0.219 A 
ATOM     14  S   UNL d   1      15.171  15.469  -1.428  0.00  0.00    -0.026 SA
ATOM     15  C   UNL d   1      15.057  16.262  -1.228  0.00  0.00     0.135 A 
ATOM     16  N   UNL d   1      15.094  16.320  -0.404  0.00  0.00    -0.139 NA
ATOM     17  N   UNL d   1      15.230  15.566  -0.099  0.00  0.00    -0.121 NA
BRANCH  15  18
ATOM     18  C   UNL d   1      14.928  16.887  -1.751  0.00  0.00     0.028 C 
ATOM     19  C   UNL d   1      15.474  17.509  -1.780  0.00  0.00     0.002 C 
ENDBRANCH  15  18
ENDBRANCH   1  13
TORSDOF 5
ENDMDL
