MODEL 1
REMARK VINA RESULT:      -4.9      0.000      0.000
REMARK  5 active torsions:
REMARK  status: ('A' for Active; 'I' for Inactive)
REMARK    1  A    between atoms: N_2  and  S_1 
REMARK    2  A    between atoms: C_3  and  S_1 
REMARK    3  A    between atoms: C_6  and  O_7 
REMARK    4  A    between atoms: O_7  and  C_11 
REMARK    5  A    between atoms: O_16  and  C_8 
ROOT
ATOM      1  C   UNL d   1      56.787   0.066  32.034  0.00  0.00     0.104 A 
ATOM      2  C   UNL d   1      57.032  -0.692  31.851  0.00  0.00     0.015 A 
ATOM      3  C   UNL d   1      56.897   0.682  31.484  0.00  0.00     0.015 A 
ATOM      4  C   UNL d   1      57.494  -0.230  30.580  0.00  0.00     0.100 A 
ATOM      5  C   UNL d   1      57.249   0.530  30.761  0.00  0.00     0.025 A 
ATOM      6  C   UNL d   1      57.384  -0.847  31.130  0.00  0.00     0.025 A 
ENDROOT
BRANCH   4   7
ATOM      7  O   UNL d   1      57.854  -0.394  29.846  0.00  0.00    -0.305 OA
BRANCH   7   8
ATOM      8  C   UNL d   1      58.674  -0.323  29.745  0.00  0.00     0.122 A 
ATOM      9  C   UNL d   1      59.083  -0.874  29.293  0.00  0.00     0.117 A 
ATOM     10  C   UNL d   1      59.902  -0.799  29.196  0.00  0.00     0.026 A 
ATOM     11  C   UNL d   1      60.299  -0.173  29.552  0.00  0.00     0.002 A 
ATOM     12  C   UNL d   1      59.887   0.380  30.005  0.00  0.00     0.002 A 
ATOM     13  C   UNL d   1      59.071   0.303  30.101  0.00  0.00     0.027 A 
BRANCH   9  14
ATOM     14  O   UNL d   1      58.677  -1.497  28.942  0.00  0.00    -0.326 OA
ATOM     15  C   UNL d   1      59.073  -2.016  28.456  0.00  0.00     0.181 C 
ENDBRANCH   9  14
ENDBRANCH   7   8
ENDBRANCH   4   7
BRANCH   1  16
ATOM     16  S   UNL d   1      56.432   0.215  32.765  0.00  0.00     0.271 S 
ATOM     17  O   UNL d   1      56.901   0.342  33.441  0.00  0.00    -0.200 OA
ATOM     18  O   UNL d   1      55.609   0.238  32.830  0.00  0.00    -0.200 OA
BRANCH  16  19
ATOM     19  N   UNL d   1      55.899   0.343  33.383  0.00  0.00    -0.229 N 
ATOM     20  C   UNL d   1      56.087   0.624  34.143  0.00  0.00     0.092 A 
ATOM     21  C   UNL d   1      55.393   0.673  34.591  0.00  0.00     0.021 A 
ATOM     22  C   UNL d   1      54.768   0.424  34.116  0.00  0.00     0.021 A 
ATOM     23  C   UNL d   1      55.072   0.219  33.368  0.00  0.00     0.092 A 
ENDBRANCH  16  19
ENDBRANCH   1  16
TORSDOF 5
ENDMDL
MODEL 2
REMARK VINA RESULT:      -4.1      1.452      4.922
REMARK  5 active torsions:
REMARK  status: ('A' for Active; 'I' for Inactive)
REMARK    1  A    between atoms: N_2  and  S_1 
REMARK    2  A    between atoms: C_3  and  S_1 
REMARK    3  A    between atoms: C_6  and  O_7 
REMARK    4  A    between atoms: O_7  and  C_11 
REMARK    5  A    between atoms: O_16  and  C_8 
ROOT
ATOM      1  C   UNL d   1      57.785  -0.195  30.544  0.00  0.00     0.104 A 
ATOM      2  C   UNL d   1      57.452   0.546  30.627  0.00  0.00     0.015 A 
ATOM      3  C   UNL d   1      57.558  -0.814  31.054  0.00  0.00     0.015 A 
ATOM      4  C   UNL d   1      56.669   0.064  31.721  0.00  0.00     0.100 A 
ATOM      5  C   UNL d   1      57.001  -0.680  31.639  0.00  0.00     0.025 A 
ATOM      6  C   UNL d   1      56.896   0.682  31.211  0.00  0.00     0.025 A 
ENDROOT
BRANCH   4   7
ATOM      7  O   UNL d   1      56.101   0.209  32.314  0.00  0.00    -0.305 OA
BRANCH   7   8
ATOM      8  C   UNL d   1      56.329   0.367  33.096  0.00  0.00     0.122 A 
ATOM      9  C   UNL d   1      55.763   0.400  33.691  0.00  0.00     0.117 A 
ATOM     10  C   UNL d   1      55.995   0.559  34.470  0.00  0.00     0.026 A 
ATOM     11  C   UNL d   1      56.790   0.682  34.642  0.00  0.00     0.002 A 
ATOM     12  C   UNL d   1      57.357   0.649  34.043  0.00  0.00     0.002 A 
ATOM     13  C   UNL d   1      57.123   0.490  33.267  0.00  0.00     0.027 A 
BRANCH   9  14
ATOM     14  O   UNL d   1      54.971   0.276  33.510  0.00  0.00    -0.326 OA
ATOM     15  C   UNL d   1      54.406   0.338  34.093  0.00  0.00     0.181 C 
ENDBRANCH   9  14
ENDBRANCH   7   8
ENDBRANCH   4   7
BRANCH   1  16
ATOM     16  S   UNL d   1      58.346  -0.326  29.952  0.00  0.00     0.271 S 
ATOM     17  O   UNL d   1      58.106  -0.557  29.189  0.00  0.00    -0.200 OA
ATOM     18  O   UNL d   1      59.151  -0.227  30.113  0.00  0.00    -0.200 OA
BRANCH  16  19
ATOM     19  N   UNL d   1      59.043  -0.403  29.514  0.00  0.00    -0.229 N 
ATOM     20  C   UNL d   1      59.664   0.149  29.477  0.00  0.00     0.092 A 
ATOM     21  C   UNL d   1      60.255  -0.144  28.977  0.00  0.00     0.021 A 
ATOM     22  C   UNL d   1      60.008  -0.878  28.698  0.00  0.00     0.021 A 
ATOM     23  C   UNL d   1      59.261  -1.046  29.025  0.00  0.00     0.092 A 
ENDBRANCH  16  19
ENDBRANCH   1  16
TORSDOF 5
ENDMDL
MODEL 3
REMARK VINA RESULT:      -3.4      1.394      5.099
REMARK  5 active torsions:
REMARK  status: ('A' for Active; 'I' for Inactive)
REMARK    1  A    between atoms: N_2  and  S_1 
REMARK    2  A    between atoms: C_3  and  S_1 
REMARK    3  A    between atoms: C_6  and  O_7 
REMARK    4  A    between atoms: O_7  and  C_11 
REMARK    5  A    between atoms: O_16  and  C_8 
ROOT
ATOM      1  C   UNL d   1      57.582  -0.129  31.214  0.00  0.00     0.104 A 
ATOM      2  C   UNL d   1      57.695   0.566  31.629  0.00  0.00     0.015 A 
ATOM      3  C   UNL d   1      57.194  -0.771  31.576  0.00  0.00     0.015 A 
ATOM      4  C   UNL d   1      57.041  -0.010  32.761  0.00  0.00     0.100 A 
ATOM      5  C   UNL d   1      56.926  -0.708  32.347  0.00  0.00     0.025 A 
ATOM      6  C   UNL d   1      57.428   0.632  32.399  0.00  0.00     0.025 A 
ENDROOT
BRANCH   4   7
ATOM      7  O   UNL d   1      56.771   0.063  33.547  0.00  0.00    -0.305 OA
BRANCH   7   8
ATOM      8  C   UNL d   1      55.975   0.230  33.713  0.00  0.00     0.122 A 
ATOM      9  C   UNL d   1      55.760   0.516  34.453  0.00  0.00     0.117 A 
ATOM     10  C   UNL d   1      54.965   0.681  34.614  0.00  0.00     0.026 A 
ATOM     11  C   UNL d   1      54.397   0.558  34.033  0.00  0.00     0.002 A 
ATOM     12  C   UNL d   1      54.614   0.271  33.291  0.00  0.00     0.002 A 
ATOM     13  C   UNL d   1      55.407   0.107  33.132  0.00  0.00     0.027 A 
BRANCH   9  14
ATOM     14  O   UNL d   1      56.336   0.635  35.028  0.00  0.00    -0.326 OA
ATOM     15  C   UNL d   1      56.179   0.446  35.805  0.00  0.00     0.181 C 
ENDBRANCH   9  14
ENDBRANCH   7   8
ENDBRANCH   4   7
BRANCH   1  16
ATOM     16  S   UNL d   1      57.854  -0.189  30.436  0.00  0.00     0.271 S 
ATOM     17  O   UNL d   1      57.404   0.125  29.810  0.00  0.00    -0.200 OA
ATOM     18  O   UNL d   1      58.574  -0.560  30.275  0.00  0.00    -0.200 OA
BRANCH  16  19
ATOM     19  N   UNL d   1      58.288  -0.346  29.752  0.00  0.00    -0.229 N 
ATOM     20  C   UNL d   1      58.608   0.219  29.231  0.00  0.00     0.092 A 
ATOM     21  C   UNL d   1      59.001  -0.173  28.618  0.00  0.00     0.021 A 
ATOM     22  C   UNL d   1      58.931  -0.983  28.750  0.00  0.00     0.021 A 
ATOM     23  C   UNL d   1      58.492  -1.099  29.448  0.00  0.00     0.092 A 
ENDBRANCH  16  19
ENDBRANCH   1  16
TORSDOF 5
ENDMDL
