MODEL 1
REMARK VINA RESULT:       6.7      0.000      0.000
REMARK  4 active torsions:
REMARK  status: ('A' for Active; 'I' for Inactive)
REMARK    1  A    between atoms: C_6  and  C_1 
REMARK    2  A    between atoms: C_4  and  C_11 
REMARK    3  A    between atoms: N_8  and  C_6 
REMARK    4  A    between atoms: C_13  and  C_6 
ROOT
ATOM      1  C   UNL d   1      31.528  18.078 -24.062  0.00  0.00     0.067 C 
ENDROOT
BRANCH   1   2
ATOM      2  C   UNL d   1      31.919  18.749 -23.752  0.00  0.00     0.057 A 
ATOM      3  C   UNL d   1      32.092  19.379 -24.233  0.00  0.00     0.214 A 
ATOM      4  C   UNL d   1      32.480  20.053 -23.940  0.00  0.00     0.121 A 
ATOM      5  O   UNL d   1      31.869  19.334 -25.048  0.00  0.00    -0.285 OA
ATOM      6  N   UNL d   1      32.653  20.683 -24.420  0.00  0.00    -0.241 NA
ATOM      7  C   UNL d   1      32.690  20.078 -23.142  0.00  0.00     0.032 A 
ATOM      8  C   UNL d   1      33.031  21.335 -24.124  0.00  0.00     0.099 A 
ATOM      9  C   UNL d   1      33.241  21.359 -23.326  0.00  0.00     0.021 A 
ATOM     10  C   UNL d   1      33.072  20.731 -22.829  0.00  0.00     0.004 A 
ATOM     11  C   UNL d   1      32.511  19.427 -22.642  0.00  0.00     0.059 A 
ATOM     12  C   UNL d   1      32.128  18.774 -22.955  0.00  0.00     0.016 A 
ATOM     13 CL   UNL d   1      32.713  19.432 -21.841  0.00  0.00    -0.082 Cl
ENDBRANCH   1   2
BRANCH   1  14
ATOM     14  N   UNL d   1      31.954  17.414 -24.319  0.00  0.00    -0.301 N 
ATOM     15  C   UNL d   1      31.719  16.647 -24.139  0.00  0.00     0.100 A 
ATOM     16  C   UNL d   1      32.151  16.000 -24.401  0.00  0.00     0.100 A 
ATOM     17  N   UNL d   1      32.820  16.116 -24.843  0.00  0.00    -0.299 N 
ATOM     18  C   UNL d   1      33.067  16.889 -25.032  0.00  0.00     0.100 A 
ATOM     19  C   UNL d   1      33.240  15.453 -25.097  0.00  0.00     0.100 C 
ATOM     20  C   UNL d   1      32.644  17.523 -24.775  0.00  0.00     0.100 A 
ENDBRANCH   1  14
BRANCH   1  21
ATOM     21  C   UNL d   1      30.696  18.070 -24.117  0.00  0.00     0.016 A 
ATOM     22  C   UNL d   1      30.326  18.254 -24.831  0.00  0.00     0.001 A 
ATOM     23  C   UNL d   1      29.510  18.249 -24.893  0.00  0.00     0.004 A 
ATOM     24  C   UNL d   1      29.043  18.059 -24.235  0.00  0.00     0.071 A 
ATOM     25  C   UNL d   1      29.411  17.876 -23.524  0.00  0.00     0.004 A 
ATOM     26  C   UNL d   1      30.230  17.880 -23.459  0.00  0.00     0.001 A 
BRANCH  24  27
ATOM     27  C   UNL d   1      28.233  18.050 -24.282  0.00  0.00     0.419 C 
ATOM     28  F   UNL d   1      27.427  18.076 -24.388  0.00  0.00    -0.166 F 
ATOM     29  F   UNL d   1      27.732  17.678 -23.678  0.00  0.00    -0.166 F 
ATOM     30  F   UNL d   1      27.914  18.394 -24.900  0.00  0.00    -0.166 F 
ENDBRANCH  24  27
ENDBRANCH   1  21
TORSDOF 4
ENDMDL
MODEL 2
REMARK VINA RESULT:       7.2      2.442      4.055
REMARK  4 active torsions:
REMARK  status: ('A' for Active; 'I' for Inactive)
REMARK    1  A    between atoms: C_6  and  C_1 
REMARK    2  A    between atoms: C_4  and  C_11 
REMARK    3  A    between atoms: N_8  and  C_6 
REMARK    4  A    between atoms: C_13  and  C_6 
ROOT
ATOM      1  C   UNL d   1      31.368  17.888 -23.882  0.00  0.00     0.067 C 
ENDROOT
BRANCH   1   2
ATOM      2  C   UNL d   1      30.534  17.832 -23.892  0.00  0.00     0.057 A 
ATOM      3  C   UNL d   1      30.154  17.312 -23.399  0.00  0.00     0.214 A 
ATOM      4  C   UNL d   1      29.325  17.244 -23.397  0.00  0.00     0.121 A 
ATOM      5  O   UNL d   1      30.623  16.835 -22.880  0.00  0.00    -0.285 OA
ATOM      6  N   UNL d   1      28.946  16.725 -22.904  0.00  0.00    -0.241 NA
ATOM      7  C   UNL d   1      28.885  17.718 -23.910  0.00  0.00     0.032 A 
ATOM      8  C   UNL d   1      28.138  16.667 -22.911  0.00  0.00     0.099 A 
ATOM      9  C   UNL d   1      27.698  17.140 -23.423  0.00  0.00     0.021 A 
ATOM     10  C   UNL d   1      28.067  17.669 -23.927  0.00  0.00     0.004 A 
ATOM     11  C   UNL d   1      29.276  18.257 -24.422  0.00  0.00     0.059 A 
ATOM     12  C   UNL d   1      30.094  18.305 -24.405  0.00  0.00     0.016 A 
ATOM     13 CL   UNL d   1      28.853  18.739 -24.942  0.00  0.00    -0.082 Cl
ENDBRANCH   1   2
BRANCH   1  14
ATOM     14  N   UNL d   1      31.844  17.278 -24.180  0.00  0.00    -0.301 N 
ATOM     15  C   UNL d   1      32.598  17.129 -23.889  0.00  0.00     0.100 A 
ATOM     16  C   UNL d   1      33.057  16.521 -24.195  0.00  0.00     0.100 A 
ATOM     17  N   UNL d   1      32.764  16.059 -24.793  0.00  0.00    -0.299 N 
ATOM     18  C   UNL d   1      32.001  16.201 -25.096  0.00  0.00     0.100 A 
ATOM     19  C   UNL d   1      33.241  15.453 -25.087  0.00  0.00     0.100 C 
ATOM     20  C   UNL d   1      31.552  16.796 -24.796  0.00  0.00     0.100 A 
ENDBRANCH   1  14
BRANCH   1  21
ATOM     21  C   UNL d   1      31.733  18.569 -23.568  0.00  0.00     0.016 A 
ATOM     22  C   UNL d   1      31.982  18.580 -22.781  0.00  0.00     0.001 A 
ATOM     23  C   UNL d   1      32.342  19.243 -22.465  0.00  0.00     0.004 A 
ATOM     24  C   UNL d   1      32.460  19.917 -22.933  0.00  0.00     0.071 A 
ATOM     25  C   UNL d   1      32.213  19.906 -23.716  0.00  0.00     0.004 A 
ATOM     26  C   UNL d   1      31.852  19.241 -24.036  0.00  0.00     0.001 A 
BRANCH  24  27
ATOM     27  C   UNL d   1      32.815  20.581 -22.633  0.00  0.00     0.419 C 
ATOM     28  F   UNL d   1      33.163  21.220 -22.270  0.00  0.00    -0.166 F 
ATOM     29  F   UNL d   1      33.083  21.238 -23.135  0.00  0.00    -0.166 F 
ATOM     30  F   UNL d   1      32.909  20.612 -21.864  0.00  0.00    -0.166 F 
ENDBRANCH  24  27
ENDBRANCH   1  21
TORSDOF 4
ENDMDL
