MODEL 1
REMARK VINA RESULT:      65.9      0.000      0.000
REMARK  6 active torsions:
REMARK  status: ('A' for Active; 'I' for Inactive)
REMARK    1  A    between atoms: O_4  and  C_1 
REMARK    2  A    between atoms: C_9  and  C_2 
REMARK    3  A    between atoms: C_5  and  O_4 
REMARK    4  A    between atoms: C_11  and  C_5 
REMARK    5  A    between atoms: N_10  and  C_9 
REMARK    6  A    between atoms: O_19  and  C_17 
ROOT
ATOM      1  C   UNL d   1      44.998 -16.127  37.660  0.00  0.00     0.122 A 
ATOM      2  C   UNL d   1      44.450 -16.023  37.053  0.00  0.00     0.043 A 
ATOM      3  C   UNL d   1      45.548 -15.535  37.823  0.00  0.00     0.105 A 
ATOM      4  C   UNL d   1      45.551 -14.840  37.380  0.00  0.00     0.030 A 
ATOM      5  C   UNL d   1      45.003 -14.745  36.778  0.00  0.00     0.059 A 
ATOM      6  C   UNL d   1      44.452 -15.328  36.609  0.00  0.00     0.015 A 
ATOM      7  N   UNL d   1      46.090 -15.642  38.426  0.00  0.00    -0.242 NA
ATOM      8 CL   UNL d   1      45.025 -14.032  36.342  0.00  0.00    -0.082 Cl
ATOM      9  C   UNL d   1      46.095 -14.260  37.544  0.00  0.00     0.004 A 
ATOM     10  C   UNL d   1      46.641 -15.050  38.589  0.00  0.00     0.099 A 
ATOM     11  C   UNL d   1      46.644 -14.355  38.146  0.00  0.00     0.021 A 
ENDROOT
BRANCH   1  12
ATOM     12  O   UNL d   1      45.004 -16.753  38.068  0.00  0.00    -0.271 OA
BRANCH  12  13
ATOM     13  C   UNL d   1      44.716 -17.091  38.924  0.00  0.00     0.300 C 
ATOM     14  O   UNL d   1      43.798 -16.789  39.196  0.00  0.00    -0.259 OA
BRANCH  13  15
ATOM     15  C   UNL d   1      45.198 -17.583  39.374  0.00  0.00     0.066 A 
ATOM     16  C   UNL d   1      45.133 -17.581  40.203  0.00  0.00     0.029 A 
ATOM     17  C   UNL d   1      45.623 -18.081  40.657  0.00  0.00     0.094 A 
ATOM     18  C   UNL d   1      46.177 -18.583  40.284  0.00  0.00     0.024 A 
ATOM     19  C   UNL d   1      46.239 -18.582  39.456  0.00  0.00     0.002 A 
ATOM     20  C   UNL d   1      45.749 -18.082  39.004  0.00  0.00     0.005 A 
BRANCH  17  21
ATOM     21  O   UNL d   1      45.491 -18.013  41.481  0.00  0.00    -0.328 OA
ATOM     22  C   UNL d   1      46.063 -18.567  41.767  0.00  0.00     0.181 C 
ENDBRANCH  17  21
ENDBRANCH  13  15
ENDBRANCH  12  13
ENDBRANCH   1  12
BRANCH   2  23
ATOM     23  C   UNL d   1      43.781 -16.550  36.732  0.00  0.00     0.082 C 
BRANCH  23  24
ATOM     24  N   UNL d   1      43.020 -16.247  36.673  0.00  0.00    -0.299 N 
ATOM     25  C   UNL d   1      42.412 -16.708  36.393  0.00  0.00     0.107 A 
ATOM     26  C   UNL d   1      41.652 -16.408  36.333  0.00  0.00     0.142 A 
ATOM     27  O   UNL d   1      41.506 -15.625  36.563  0.00  0.00    -0.300 OA
ATOM     28  C   UNL d   1      42.112 -15.157  36.846  0.00  0.00     0.142 A 
ATOM     29  C   UNL d   1      42.873 -15.476  36.899  0.00  0.00     0.107 A 
ENDBRANCH  23  24
ENDBRANCH   2  23
TORSDOF 6
ENDMDL
