MODEL 1
REMARK VINA RESULT:      54.7      0.000      0.000
REMARK  3 active torsions:
REMARK  status: ('A' for Active; 'I' for Inactive)
REMARK    1  A    between atoms: C_2  and  C_1 
REMARK    2  A    between atoms: C_13  and  N_4 
REMARK    3  A    between atoms: C_12  and  C_15 
ROOT
ATOM      1  C   UNL d   1     -54.766-101.684 -40.833  0.00  0.00     0.106 A 
ATOM      2  C   UNL d   1     -54.758-102.206 -42.065  0.00  0.00     0.206 A 
ATOM      3  N   UNL d   1     -54.815-101.387 -42.140  0.00  0.00    -0.281 N 
ATOM      4  N   UNL d   1     -54.727-102.398 -41.259  0.00  0.00    -0.217 NA
ATOM      5  C   UNL d   1     -54.820-101.063 -41.380  0.00  0.00     0.102 A 
ATOM      6  S   UNL d   1     -54.736-102.748 -42.686  0.00  0.00    -0.038 SA
ENDROOT
BRANCH   1   7
ATOM      7  C   UNL d   1     -54.753-101.610 -40.016  0.00  0.00     0.083 A 
ATOM      8  C   UNL d   1     -54.729-100.855 -39.671  0.00  0.00     0.302 A 
ATOM      9  O   UNL d   1     -54.715-100.783 -38.841  0.00  0.00    -0.273 OA
ATOM     10  O   UNL d   1     -54.719-100.179 -40.143  0.00  0.00    -0.259 OA
ATOM     11  C   UNL d   1     -54.726-101.455 -38.363  0.00  0.00     0.103 A 
ATOM     12  C   UNL d   1     -54.749-102.209 -38.708  0.00  0.00     0.023 A 
ATOM     13  C   UNL d   1     -54.712-101.377 -37.545  0.00  0.00     0.025 A 
ATOM     14  C   UNL d   1     -54.763-102.290 -39.540  0.00  0.00     0.009 A 
ATOM     15  C   UNL d   1     -54.759-102.880 -38.233  0.00  0.00     0.002 A 
ATOM     16  C   UNL d   1     -54.746-102.802 -37.414  0.00  0.00     0.000 A 
ATOM     17  C   UNL d   1     -54.722-102.048 -37.069  0.00  0.00     0.002 A 
ENDBRANCH   1   7
BRANCH   3  18
ATOM     18  C   UNL d   1     -54.859-100.972 -42.842  0.00  0.00     0.066 A 
ATOM     19  C   UNL d   1     -54.735-100.150 -42.850  0.00  0.00     0.018 A 
ATOM     20  C   UNL d   1     -54.778 -99.729 -43.556  0.00  0.00     0.008 A 
ATOM     21  C   UNL d   1     -54.947-100.127 -44.265  0.00  0.00     0.065 A 
ATOM     22  C   UNL d   1     -55.069-100.940 -44.257  0.00  0.00     0.008 A 
ATOM     23  C   UNL d   1     -55.026-101.363 -43.548  0.00  0.00     0.018 A 
BRANCH  21  24
ATOM     24  C   UNL d   1     -54.990 -99.709 -44.972  0.00  0.00     0.211 C 
ATOM     25  O   UNL d   1     -55.316 -98.947 -44.981  0.00  0.00    -0.644 OA
ATOM     26  O   UNL d   1     -54.712-100.043 -45.671  0.00  0.00    -0.644 OA
ENDBRANCH  21  24
ENDBRANCH   3  18
TORSDOF 3
ENDMDL
