MODEL 1
REMARK VINA RESULT:      53.3      0.000      0.000
REMARK  4 active torsions:
REMARK  status: ('A' for Active; 'I' for Inactive)
REMARK    1  A    between atoms: C_10  and  C_1 
REMARK       I    between atoms: C_5  and  N_3 
REMARK    2  A    between atoms: O_18  and  C_5 
REMARK    3  A    between atoms: N_9  and  C_10 
REMARK    4  A    between atoms: C_22  and  O_18 
ROOT
ATOM      1  C   UNL d   1      58.957  49.706  50.547  0.00  0.00     0.059 A 
ATOM      2  C   UNL d   1      57.751  49.706  49.785  0.00  0.00     0.121 A 
ATOM      3  C   UNL d   1      58.578  49.706  49.815  0.00  0.00     0.214 A 
ATOM      4  C   UNL d   1      57.306  49.705  50.488  0.00  0.00     0.032 A 
ATOM      5  C   UNL d   1      57.686  49.704  51.220  0.00  0.00     0.059 A 
ATOM      6  C   UNL d   1      58.513  49.705  51.250  0.00  0.00     0.016 A 
ATOM      7  N   UNL d   1      57.368  49.707  49.067  0.00  0.00    -0.241 NA
ATOM      8 CL   UNL d   1      57.242  49.703  51.924  0.00  0.00    -0.082 Cl
ATOM      9  O   UNL d   1      59.015  49.708  49.123  0.00  0.00    -0.285 OA
ATOM     10  C   UNL d   1      56.489  49.705  50.459  0.00  0.00     0.004 A 
ATOM     11  C   UNL d   1      56.541  49.707  49.021  0.00  0.00     0.099 A 
ATOM     12  C   UNL d   1      56.093  49.706  49.722  0.00  0.00     0.021 A 
ENDROOT
BRANCH   1  13
ATOM     13  C   UNL d   1      59.781  49.706  50.590  0.00  0.00     0.084 C 
BRANCH  13  14
ATOM     14  N   UNL d   1      60.205  49.007  50.603  0.00  0.00    -0.300 N 
ATOM     15  C   UNL d   1      60.098  48.457  51.204  0.00  0.00     0.100 A 
ATOM     16  C   UNL d   1      60.522  47.758  51.216  0.00  0.00     0.104 A 
ATOM     17  N   UNL d   1      61.071  47.600  50.611  0.00  0.00    -0.249 N 
ATOM     18  C   UNL d   1      61.181  48.156  50.000  0.00  0.00     0.104 A 
ATOM     19  C   UNL d   1      61.502  46.893  50.620  0.00  0.00     0.378 C 
ATOM     20  C   UNL d   1      60.753  48.849  49.997  0.00  0.00     0.100 A 
ATOM     21  O   UNL d   1      61.387  46.355  51.222  0.00  0.00    -0.237 OA
BRANCH  19  22
ATOM     22  O   UNL d   1      62.039  46.738  50.027  0.00  0.00    -0.257 OA
BRANCH  22  23
ATOM     23  C   UNL d   1      62.103  45.972  49.707  0.00  0.00     0.128 C 
ATOM     24  C   UNL d   1      62.616  45.587  49.289  0.00  0.00     0.029 C 
ENDBRANCH  22  23
ENDBRANCH  19  22
ENDBRANCH  13  14
ENDBRANCH   1  13
TORSDOF 4
ENDMDL
