MODEL 1
REMARK VINA RESULT:      -5.5      0.000      0.000
REMARK  5 active torsions:
REMARK  status: ('A' for Active; 'I' for Inactive)
REMARK    1  A    between atoms: C_9  and  N_1 
REMARK    2  A    between atoms: C_10  and  C_2 
REMARK    3  A    between atoms: C_3  and  C_11 
REMARK    4  A    between atoms: O_14  and  C_9 
REMARK    5  A    between atoms: C_11  and  O_14 
ROOT
ATOM      1  C   UNL d   1     -48.180  12.706  22.911  0.00  0.00     0.305 C 
ATOM      2  O   UNL d   1     -48.290  12.944  23.697  0.00  0.00    -0.259 OA
ENDROOT
BRANCH   1   3
ATOM      3  C   UNL d   1     -48.833  12.533  22.442  0.00  0.00     0.108 A 
ATOM      4  C   UNL d   1     -49.409  13.069  22.188  0.00  0.00     0.116 A 
ATOM      5  N   UNL d   1     -49.950  12.660  21.737  0.00  0.00    -0.126 NA
ATOM      6  O   UNL d   1     -49.721  11.875  21.704  0.00  0.00    -0.211 OA
ATOM      7  C   UNL d   1     -49.028  11.798  22.142  0.00  0.00     0.132 A 
ATOM      8  C   UNL d   1     -48.600  11.099  22.260  0.00  0.00     0.029 C 
BRANCH   4   9
ATOM      9  C   UNL d   1     -49.429  13.875  22.363  0.00  0.00     0.031 A 
ATOM     10  C   UNL d   1     -49.330  14.423  21.760  0.00  0.00     0.059 A 
ATOM     11 CL   UNL d   1     -49.213  14.177  20.998  0.00  0.00    -0.082 Cl
ATOM     12  C   UNL d   1     -49.351  15.220  21.935  0.00  0.00     0.011 A 
ATOM     13  C   UNL d   1     -49.470  15.478  22.713  0.00  0.00     0.001 A 
ATOM     14  C   UNL d   1     -49.569  14.931  23.316  0.00  0.00     0.000 A 
ATOM     15  C   UNL d   1     -49.549  14.124  23.142  0.00  0.00     0.002 A 
ENDBRANCH   4   9
ENDBRANCH   1   3
BRANCH   1  16
ATOM     16  O   UNL d   1     -47.416  12.643  22.601  0.00  0.00    -0.252 OA
BRANCH  16  17
ATOM     17  C   UNL d   1     -46.762  12.813  23.079  0.00  0.00     0.216 C 
BRANCH  17  18
ATOM     18  N   UNL d   1     -45.997  12.740  22.773  0.00  0.00    -0.218 N 
ATOM     19  C   UNL d   1     -45.466  12.140  22.945  0.00  0.00     0.269 A 
ATOM     20  C   UNL d   1     -44.769  12.281  22.520  0.00  0.00     0.061 A 
ATOM     21  O   UNL d   1     -45.598  11.501  23.456  0.00  0.00    -0.267 OA
ATOM     22  C   UNL d   1     -44.055  11.874  22.472  0.00  0.00     0.005 A 
ATOM     23  C   UNL d   1     -44.878  12.974  22.084  0.00  0.00     0.061 A 
ATOM     24  C   UNL d   1     -43.453  12.155  21.992  0.00  0.00     0.000 A 
ATOM     25  C   UNL d   1     -43.561  12.848  21.556  0.00  0.00     0.000 A 
ATOM     26  C   UNL d   1     -44.272  13.262  21.599  0.00  0.00     0.005 A 
ATOM     27  C   UNL d   1     -45.642  13.265  22.238  0.00  0.00     0.269 A 
ATOM     28  O   UNL d   1     -45.980  13.943  21.920  0.00  0.00    -0.267 OA
ENDBRANCH  17  18
ENDBRANCH  16  17
ENDBRANCH   1  16
TORSDOF 5
ENDMDL
MODEL 2
REMARK VINA RESULT:      -4.8      1.248      1.634
REMARK  5 active torsions:
REMARK  status: ('A' for Active; 'I' for Inactive)
REMARK    1  A    between atoms: C_9  and  N_1 
REMARK    2  A    between atoms: C_10  and  C_2 
REMARK    3  A    between atoms: C_3  and  C_11 
REMARK    4  A    between atoms: O_14  and  C_9 
REMARK    5  A    between atoms: C_11  and  O_14 
ROOT
ATOM      1  C   UNL d   1     -48.391  13.223  22.019  0.00  0.00     0.305 C 
ATOM      2  O   UNL d   1     -48.018  13.941  21.838  0.00  0.00    -0.259 OA
ENDROOT
BRANCH   1   3
ATOM      3  C   UNL d   1     -49.167  13.095  21.782  0.00  0.00     0.108 A 
ATOM      4  C   UNL d   1     -49.828  13.536  22.011  0.00  0.00     0.116 A 
ATOM      5  N   UNL d   1     -50.482  13.216  21.646  0.00  0.00    -0.126 NA
ATOM      6  O   UNL d   1     -50.240  12.580  21.190  0.00  0.00    -0.211 OA
ATOM      7  C   UNL d   1     -49.424  12.506  21.276  0.00  0.00     0.132 A 
ATOM      8  C   UNL d   1     -48.944  11.936  20.915  0.00  0.00     0.029 C 
BRANCH   4   9
ATOM      9  C   UNL d   1     -49.823  14.185  22.520  0.00  0.00     0.031 A 
ATOM     10  C   UNL d   1     -50.289  14.175  23.195  0.00  0.00     0.059 A 
ATOM     11 CL   UNL d   1     -50.753  13.533  23.362  0.00  0.00    -0.082 Cl
ATOM     12  C   UNL d   1     -50.282  14.818  23.697  0.00  0.00     0.011 A 
ATOM     13  C   UNL d   1     -49.809  15.478  23.531  0.00  0.00     0.001 A 
ATOM     14  C   UNL d   1     -49.343  15.489  22.856  0.00  0.00     0.000 A 
ATOM     15  C   UNL d   1     -49.348  14.839  22.346  0.00  0.00     0.002 A 
ENDBRANCH   4   9
ENDBRANCH   1   3
BRANCH   1  16
ATOM     16  O   UNL d   1     -47.981  12.638  22.436  0.00  0.00    -0.252 OA
BRANCH  16  17
ATOM     17  C   UNL d   1     -47.345  12.848  22.925  0.00  0.00     0.216 C 
BRANCH  17  18
ATOM     18  N   UNL d   1     -46.727  12.313  23.050  0.00  0.00    -0.218 N 
ATOM     19  C   UNL d   1     -46.794  11.577  23.403  0.00  0.00     0.269 A 
ATOM     20  C   UNL d   1     -46.043  11.228  23.417  0.00  0.00     0.061 A 
ATOM     21  O   UNL d   1     -47.490  11.235  23.696  0.00  0.00    -0.267 OA
ATOM     22  C   UNL d   1     -45.772  10.502  23.698  0.00  0.00     0.005 A 
ATOM     23  C   UNL d   1     -45.514  11.758  23.069  0.00  0.00     0.061 A 
ATOM     24  C   UNL d   1     -44.979  10.307  23.633  0.00  0.00     0.000 A 
ATOM     25  C   UNL d   1     -44.450  10.837  23.284  0.00  0.00     0.000 A 
ATOM     26  C   UNL d   1     -44.712  11.564  23.001  0.00  0.00     0.005 A 
ATOM     27  C   UNL d   1     -45.935  12.437  22.838  0.00  0.00     0.269 A 
ATOM     28  O   UNL d   1     -45.626  13.103  22.470  0.00  0.00    -0.267 OA
ENDBRANCH  17  18
ENDBRANCH  16  17
ENDBRANCH   1  16
TORSDOF 5
ENDMDL
MODEL 3
REMARK VINA RESULT:      -4.2      1.473      2.408
REMARK  5 active torsions:
REMARK  status: ('A' for Active; 'I' for Inactive)
REMARK    1  A    between atoms: C_9  and  N_1 
REMARK    2  A    between atoms: C_10  and  C_2 
REMARK    3  A    between atoms: C_3  and  C_11 
REMARK    4  A    between atoms: O_14  and  C_9 
REMARK    5  A    between atoms: C_11  and  O_14 
ROOT
ATOM      1  C   UNL d   1     -47.259  13.352  22.187  0.00  0.00     0.305 C 
ATOM      2  O   UNL d   1     -47.207  13.309  21.361  0.00  0.00    -0.259 OA
ENDROOT
BRANCH   1   3
ATOM      3  C   UNL d   1     -47.790  13.875  22.536  0.00  0.00     0.108 A 
ATOM      4  C   UNL d   1     -48.603  13.759  22.628  0.00  0.00     0.116 A 
ATOM      5  N   UNL d   1     -48.909  14.415  23.001  0.00  0.00    -0.126 NA
ATOM      6  O   UNL d   1     -48.299  14.941  23.145  0.00  0.00    -0.211 OA
ATOM      7  C   UNL d   1     -47.605  14.604  22.856  0.00  0.00     0.132 A 
ATOM      8  C   UNL d   1     -46.850  14.943  22.883  0.00  0.00     0.029 C 
BRANCH   4   9
ATOM      9  C   UNL d   1     -49.027  13.095  22.383  0.00  0.00     0.031 A 
ATOM     10  C   UNL d   1     -49.489  12.687  22.925  0.00  0.00     0.059 A 
ATOM     11 CL   UNL d   1     -49.531  12.932  23.694  0.00  0.00    -0.082 Cl
ATOM     12  C   UNL d   1     -49.907  12.030  22.680  0.00  0.00     0.011 A 
ATOM     13  C   UNL d   1     -49.868  11.773  21.893  0.00  0.00     0.001 A 
ATOM     14  C   UNL d   1     -49.406  12.181  21.352  0.00  0.00     0.000 A 
ATOM     15  C   UNL d   1     -48.982  12.846  21.596  0.00  0.00     0.002 A 
ENDBRANCH   4   9
ENDBRANCH   1   3
BRANCH   1  16
ATOM     16  O   UNL d   1     -46.779  12.871  22.658  0.00  0.00    -0.252 OA
BRANCH  16  17
ATOM     17  C   UNL d   1     -45.956  12.894  22.567  0.00  0.00     0.216 C 
BRANCH  17  18
ATOM     18  N   UNL d   1     -45.498  12.243  22.789  0.00  0.00    -0.218 N 
ATOM     19  C   UNL d   1     -45.762  11.591  23.209  0.00  0.00     0.269 A 
ATOM     20  C   UNL d   1     -45.124  11.073  23.311  0.00  0.00     0.061 A 
ATOM     21  O   UNL d   1     -46.534  11.466  23.486  0.00  0.00    -0.267 OA
ATOM     22  C   UNL d   1     -45.056  10.340  23.683  0.00  0.00     0.005 A 
ATOM     23  C   UNL d   1     -44.465  11.413  22.949  0.00  0.00     0.061 A 
ATOM     24  C   UNL d   1     -44.335   9.951  23.694  0.00  0.00     0.000 A 
ATOM     25  C   UNL d   1     -43.676  10.291  23.332  0.00  0.00     0.000 A 
ATOM     26  C   UNL d   1     -43.735  11.022  22.958  0.00  0.00     0.005 A 
ATOM     27  C   UNL d   1     -44.692  12.143  22.622  0.00  0.00     0.269 A 
ATOM     28  O   UNL d   1     -44.209  12.666  22.211  0.00  0.00    -0.267 OA
ENDBRANCH  17  18
ENDBRANCH  16  17
ENDBRANCH   1  16
TORSDOF 5
ENDMDL
