MODEL 1
REMARK VINA RESULT:      -5.2      0.000      0.000
REMARK  3 active torsions:
REMARK  status: ('A' for Active; 'I' for Inactive)
REMARK    1  A    between atoms: C_7  and  C_3 
REMARK    2  A    between atoms: N_5  and  C_8 
REMARK    3  A    between atoms: C_13  and  C_7 
ROOT
ATOM      1  C   UNL d   1     -41.738-122.819 -51.028  0.00  0.00     0.127 A 
ATOM      2  C   UNL d   1     -41.302-122.565 -52.383  0.00  0.00     0.002 A 
ATOM      3  C   UNL d   1     -41.556-123.111 -51.778  0.00  0.00     0.024 A 
ATOM      4  C   UNL d   1     -41.676-122.023 -50.867  0.00  0.00     0.024 A 
ATOM      5  C   UNL d   1     -41.423-121.494 -51.475  0.00  0.00     0.002 A 
ATOM      6  C   UNL d   1     -41.240-121.787 -52.229  0.00  0.00     0.000 A 
ENDROOT
BRANCH   2   7
ATOM      7  C   UNL d   1     -41.122-122.865 -53.127  0.00  0.00     0.011 C 
BRANCH   7   8
ATOM      8  C   UNL d   1     -41.616-122.655 -53.772  0.00  0.00     0.092 A 
ATOM      9  C   UNL d   1     -41.621-123.086 -54.423  0.00  0.00     0.288 A 
ATOM     10  N   UNL d   1     -42.156-122.740 -54.947  0.00  0.00    -0.163 NA
ATOM     11  O   UNL d   1     -41.162-123.780 -54.566  0.00  0.00    -0.265 OA
ATOM     12  C   UNL d   1     -42.472-122.087 -54.588  0.00  0.00     0.313 A 
ATOM     13  S   UNL d   1     -42.155-122.010 -53.857  0.00  0.00    -0.021 SA
ATOM     14  O   UNL d   1     -43.047-121.558 -54.915  0.00  0.00    -0.258 OA
ENDBRANCH   7   8
ENDBRANCH   2   7
BRANCH   1  15
ATOM     15  N   UNL d   1     -41.984-123.326 -50.433  0.00  0.00    -0.114 N 
ATOM     16  O   UNL d   1     -42.787-123.481 -50.322  0.00  0.00    -0.532 OA
ATOM     17  O   UNL d   1     -41.432-123.679 -49.950  0.00  0.00    -0.532 OA
ENDBRANCH   1  15
TORSDOF 3
ENDMDL
MODEL 2
REMARK VINA RESULT:      -4.6      1.352      2.007
REMARK  3 active torsions:
REMARK  status: ('A' for Active; 'I' for Inactive)
REMARK    1  A    between atoms: C_7  and  C_3 
REMARK    2  A    between atoms: N_5  and  C_8 
REMARK    3  A    between atoms: C_13  and  C_7 
ROOT
ATOM      1  C   UNL d   1     -42.420-122.850 -49.900  0.00  0.00     0.127 A 
ATOM      2  C   UNL d   1     -41.473-122.651 -50.975  0.00  0.00     0.002 A 
ATOM      3  C   UNL d   1     -42.142-122.380 -50.519  0.00  0.00     0.024 A 
ATOM      4  C   UNL d   1     -42.063-123.562 -49.728  0.00  0.00     0.024 A 
ATOM      5  C   UNL d   1     -41.403-123.817 -50.188  0.00  0.00     0.002 A 
ATOM      6  C   UNL d   1     -41.123-123.345 -50.809  0.00  0.00     0.000 A 
ENDROOT
BRANCH   2   7
ATOM      7  C   UNL d   1     -41.203-122.176 -51.589  0.00  0.00     0.011 C 
BRANCH   7   8
ATOM      8  C   UNL d   1     -41.296-122.449 -52.377  0.00  0.00     0.092 A 
ATOM      9  C   UNL d   1     -41.424-121.945 -52.958  0.00  0.00     0.288 A 
ATOM     10  N   UNL d   1     -41.490-122.380 -53.656  0.00  0.00    -0.163 NA
ATOM     11  O   UNL d   1     -41.485-121.107 -52.887  0.00  0.00    -0.265 OA
ATOM     12  C   UNL d   1     -41.396-123.163 -53.473  0.00  0.00     0.313 A 
ATOM     13  S   UNL d   1     -41.274-123.236 -52.685  0.00  0.00    -0.021 SA
ATOM     14  O   UNL d   1     -41.420-123.816 -54.013  0.00  0.00    -0.258 OA
ENDBRANCH   7   8
ENDBRANCH   2   7
BRANCH   1  15
ATOM     15  N   UNL d   1     -43.060-122.608 -49.450  0.00  0.00    -0.114 N 
ATOM     16  O   UNL d   1     -43.764-122.380 -49.815  0.00  0.00    -0.532 OA
ATOM     17  O   UNL d   1     -43.000-122.593 -48.638  0.00  0.00    -0.532 OA
ENDBRANCH   1  15
TORSDOF 3
ENDMDL
MODEL 3
REMARK VINA RESULT:      -4.3      2.210      2.947
REMARK  3 active torsions:
REMARK  status: ('A' for Active; 'I' for Inactive)
REMARK    1  A    between atoms: C_7  and  C_3 
REMARK    2  A    between atoms: N_5  and  C_8 
REMARK    3  A    between atoms: C_13  and  C_7 
ROOT
ATOM      1  C   UNL d   1     -42.086-123.202 -48.445  0.00  0.00     0.127 A 
ATOM      2  C   UNL d   1     -41.910-123.362 -49.872  0.00  0.00     0.002 A 
ATOM      3  C   UNL d   1     -41.578-123.311 -49.086  0.00  0.00     0.024 A 
ATOM      4  C   UNL d   1     -42.890-123.144 -48.559  0.00  0.00     0.024 A 
ATOM      5  C   UNL d   1     -43.204-123.196 -49.341  0.00  0.00     0.002 A 
ATOM      6  C   UNL d   1     -42.695-123.305 -49.986  0.00  0.00     0.000 A 
ENDROOT
BRANCH   2   7
ATOM      7  C   UNL d   1     -41.396-123.471 -50.505  0.00  0.00     0.011 C 
BRANCH   7   8
ATOM      8  C   UNL d   1     -41.299-122.843 -51.053  0.00  0.00     0.092 A 
ATOM      9  C   UNL d   1     -41.204-122.993 -51.813  0.00  0.00     0.288 A 
ATOM     10  N   UNL d   1     -41.124-122.270 -52.202  0.00  0.00    -0.163 NA
ATOM     11  O   UNL d   1     -41.186-123.756 -52.172  0.00  0.00    -0.265 OA
ATOM     12  C   UNL d   1     -41.174-121.681 -51.648  0.00  0.00     0.313 A 
ATOM     13  S   UNL d   1     -41.283-122.008 -50.925  0.00  0.00    -0.021 SA
ATOM     14  O   UNL d   1     -41.123-120.847 -51.790  0.00  0.00    -0.258 OA
ENDBRANCH   7   8
ENDBRANCH   2   7
BRANCH   1  15
ATOM     15  N   UNL d   1     -41.788-123.151 -47.684  0.00  0.00    -0.114 N 
ATOM     16  O   UNL d   1     -41.245-123.708 -47.410  0.00  0.00    -0.532 OA
ATOM     17  O   UNL d   1     -42.030-122.547 -47.195  0.00  0.00    -0.532 OA
ENDBRANCH   1  15
TORSDOF 3
ENDMDL
