MODEL 1
REMARK VINA RESULT:      95.2      0.000      0.000
REMARK  5 active torsions:
REMARK  status: ('A' for Active; 'I' for Inactive)
REMARK    1  A    between atoms: C_6  and  N_1 
REMARK    2  A    between atoms: C_7  and  C_2 
REMARK    3  A    between atoms: C_14  and  C_5 
REMARK    4  A    between atoms: C_11  and  C_7 
REMARK    5  A    between atoms: O_26  and  C_23 
ROOT
ATOM      1  N   UNL d   1      57.458  49.324  51.889  0.00  0.00    -0.250 N 
ATOM      2  C   UNL d   1      58.006  49.442  53.092  0.00  0.00     0.099 A 
ATOM      3  C   UNL d   1      56.856  49.475  52.451  0.00  0.00     0.305 A 
ATOM      4  C   UNL d   1      57.170  49.545  53.162  0.00  0.00     0.256 A 
ATOM      5  C   UNL d   1      58.167  49.304  52.287  0.00  0.00     0.075 A 
ATOM      6  O   UNL d   1      56.041  49.542  52.293  0.00  0.00    -0.263 OA
ATOM      7  O   UNL d   1      56.734  49.698  53.865  0.00  0.00    -0.281 OA
ENDROOT
BRANCH   5   8
ATOM      8  C   UNL d   1      58.900  49.173  51.956  0.00  0.00     0.017 A 
ATOM      9  C   UNL d   1      59.009  48.517  51.470  0.00  0.00     0.004 A 
ATOM     10  C   UNL d   1      59.770  48.386  51.129  0.00  0.00     0.024 A 
ATOM     11  C   UNL d   1      60.393  48.904  51.281  0.00  0.00     0.094 A 
ATOM     12  C   UNL d   1      60.266  49.558  51.772  0.00  0.00     0.024 A 
ATOM     13  C   UNL d   1      59.519  49.694  52.110  0.00  0.00     0.004 A 
BRANCH  11  14
ATOM     14  O   UNL d   1      61.129  48.775  50.951  0.00  0.00    -0.328 OA
ATOM     15  C   UNL d   1      61.469  49.354  50.478  0.00  0.00     0.181 C 
ENDBRANCH  11  14
ENDBRANCH   5   8
BRANCH   2  16
ATOM     16  C   UNL d   1      58.561  49.471  53.703  0.00  0.00     0.206 C 
ATOM     17  O   UNL d   1      59.383  49.474  53.510  0.00  0.00    -0.286 OA
BRANCH  16  18
ATOM     18  C   UNL d   1      58.307  49.495  54.476  0.00  0.00     0.069 A 
ATOM     19  S   UNL d   1      58.775  49.653  55.163  0.00  0.00    -0.083 SA
ATOM     20  C   UNL d   1      58.300  49.621  55.802  0.00  0.00     0.035 A 
ATOM     21  C   UNL d   1      57.534  49.447  55.564  0.00  0.00     0.008 A 
ATOM     22  C   UNL d   1      57.537  49.367  54.721  0.00  0.00     0.010 A 
ENDBRANCH  16  18
ENDBRANCH   2  16
BRANCH   1  23
ATOM     23  C   UNL d   1      57.316  49.219  51.078  0.00  0.00     0.204 A 
ATOM     24  S   UNL d   1      56.574  49.377  50.727  0.00  0.00    -0.025 SA
ATOM     25  C   UNL d   1      56.641  49.211  49.921  0.00  0.00     0.161 A 
ATOM     26  N   UNL d   1      57.407  48.957  49.784  0.00  0.00    -0.137 NA
ATOM     27  N   UNL d   1      57.830  48.960  50.500  0.00  0.00    -0.122 NA
ENDBRANCH   1  23
TORSDOF 5
ENDMDL
