MODEL 1
REMARK VINA RESULT:      64.7      0.000      0.000
REMARK  3 active torsions:
REMARK  status: ('A' for Active; 'I' for Inactive)
REMARK    1  A    between atoms: N_9  and  C_3 
REMARK    2  A    between atoms: C_12  and  C_4 
REMARK    3  A    between atoms: C_17  and  N_10 
ROOT
ATOM      1  N   UNL d   1      13.874  13.808  -3.157  0.00  0.00    -0.196 N 
ATOM      2  C   UNL d   1      13.860  13.118  -2.714  0.00  0.00     0.167 A 
ATOM      3  C   UNL d   1      13.523  13.831  -3.904  0.00  0.00     0.152 A 
ATOM      4  C   UNL d   1      14.248  13.261  -2.004  0.00  0.00     0.057 A 
ATOM      5  N   UNL d   1      14.271  14.382  -2.723  0.00  0.00    -0.161 NA
ATOM      6  N   UNL d   1      13.495  12.439  -3.010  0.00  0.00    -0.227 NA
ATOM      7  C   UNL d   1      13.156  13.150  -4.204  0.00  0.00     0.057 A 
ATOM      8  C   UNL d   1      14.500  14.036  -2.009  0.00  0.00     0.124 A 
ATOM      9  C   UNL d   1      13.142  12.460  -3.761  0.00  0.00     0.086 A 
ATOM     10  C   UNL d   1      12.770  11.779  -4.069  0.00  0.00     0.021 C 
ENDROOT
BRANCH   3  11
ATOM     11  N   UNL d   1      13.537  14.522  -4.347  0.00  0.00    -0.286 N 
ATOM     12  C   UNL d   1      12.862  14.763  -4.764  0.00  0.00     0.101 A 
ATOM     13  C   UNL d   1      12.877  15.457  -5.210  0.00  0.00     0.100 A 
ATOM     14  N   UNL d   1      13.566  15.913  -5.241  0.00  0.00    -0.301 N 
ATOM     15  C   UNL d   1      14.237  15.675  -4.828  0.00  0.00     0.100 A 
ATOM     16  C   UNL d   1      14.223  14.981  -4.382  0.00  0.00     0.101 A 
BRANCH  14  17
ATOM     17  C   UNL d   1      13.580  16.615  -5.691  0.00  0.00     0.064 A 
ATOM     18  C   UNL d   1      12.877  16.948  -5.950  0.00  0.00     0.018 A 
ATOM     19  C   UNL d   1      13.065  17.637  -6.382  0.00  0.00     0.002 A 
ATOM     20  C   UNL d   1      13.880  17.717  -6.381  0.00  0.00     0.002 A 
ATOM     21  C   UNL d   1      14.204  17.091  -5.958  0.00  0.00     0.018 A 
ENDBRANCH  14  17
ENDBRANCH   3  11
BRANCH   4  22
ATOM     22  C   UNL d   1      14.404  12.782  -1.351  0.00  0.00     0.004 A 
ATOM     23  C   UNL d   1      13.899  12.804  -0.691  0.00  0.00     0.000 A 
ATOM     24  C   UNL d   1      14.054  12.324  -0.037  0.00  0.00     0.000 A 
ATOM     25  C   UNL d   1      14.711  11.823  -0.037  0.00  0.00     0.000 A 
ATOM     26  C   UNL d   1      15.214  11.801  -0.692  0.00  0.00     0.000 A 
ATOM     27  C   UNL d   1      15.059  12.280  -1.345  0.00  0.00     0.000 A 
ENDBRANCH   4  22
TORSDOF 3
ENDMDL
