MODEL 1
REMARK VINA RESULT:      52.4      0.000      0.000
REMARK  8 active torsions:
REMARK  status: ('A' for Active; 'I' for Inactive)
REMARK    1  A    between atoms: C_2  and  C_1 
REMARK    2  A    between atoms: C_5  and  C_1 
REMARK    3  A    between atoms: O_11  and  C_2 
REMARK    4  A    between atoms: C_13  and  C_3 
REMARK    5  A    between atoms: C_6  and  C_5 
REMARK    6  A    between atoms: C_23  and  O_11 
REMARK    7  A    between atoms: C_12  and  S_14 
REMARK    8  A    between atoms: S_14  and  C_18 
ROOT
ATOM      1  C   UNL d   1     -50.570  25.984  33.374  0.00  0.00     0.134 C 
ATOM      2  C   UNL d   1     -49.928  25.467  33.340  0.00  0.00     0.106 C 
ATOM      3  N   UNL d   1     -49.283  24.954  33.307  0.00  0.00    -0.191 NA
ENDROOT
BRANCH   1   4
ATOM      4  C   UNL d   1     -51.339  25.681  33.342  0.00  0.00     0.310 C 
ATOM      5  O   UNL d   1     -51.984  26.193  33.306  0.00  0.00    -0.258 OA
BRANCH   4   6
ATOM      6  O   UNL d   1     -51.464  24.863  33.347  0.00  0.00    -0.273 OA
BRANCH   6   7
ATOM      7  C   UNL d   1     -52.227  24.567  33.345  0.00  0.00     0.103 C 
ATOM      8  C   UNL d   1     -52.873  25.080  33.380  0.00  0.00     0.027 C 
ATOM      9  C   UNL d   1     -52.353  23.751  33.308  0.00  0.00     0.027 C 
ENDBRANCH   6   7
ENDBRANCH   4   6
ENDBRANCH   1   4
BRANCH   1  10
ATOM     10  C   UNL d   1     -50.453  26.793  33.438  0.00  0.00     0.040 C 
BRANCH  10  11
ATOM     11  C   UNL d   1     -50.165  27.105  34.138  0.00  0.00     0.101 A 
ATOM     12  O   UNL d   1     -49.535  27.628  34.075  0.00  0.00    -0.307 OA
ATOM     13  C   UNL d   1     -49.331  27.876  34.832  0.00  0.00     0.100 A 
ATOM     14  C   UNL d   1     -49.838  27.505  35.367  0.00  0.00     0.027 A 
ATOM     15  C   UNL d   1     -50.350  27.033  34.951  0.00  0.00     0.027 A 
BRANCH  13  16
ATOM     16  C   UNL d   1     -48.732  28.398  35.027  0.00  0.00     0.023 A 
ATOM     17  C   UNL d   1     -48.774  29.045  34.505  0.00  0.00     0.003 A 
ATOM     18  C   UNL d   1     -48.229  29.666  34.574  0.00  0.00     0.007 A 
ATOM     19  C   UNL d   1     -47.648  29.643  35.156  0.00  0.00     0.034 A 
ATOM     20  C   UNL d   1     -47.606  29.003  35.673  0.00  0.00     0.007 A 
ATOM     21  C   UNL d   1     -48.145  28.379  35.613  0.00  0.00     0.003 A 
BRANCH  19  22
ATOM     22  S   UNL d   1     -47.109  30.261  35.221  0.00  0.00    -0.028 SA
BRANCH  22  23
ATOM     23  C   UNL d   1     -47.122  30.747  35.885  0.00  0.00     0.309 C 
ATOM     24  F   UNL d   1     -46.683  30.545  36.553  0.00  0.00    -0.165 F 
ATOM     25  F   UNL d   1     -47.573  31.437  35.882  0.00  0.00    -0.165 F 
ENDBRANCH  22  23
ENDBRANCH  19  22
ENDBRANCH  13  16
ENDBRANCH  10  11
ENDBRANCH   1  10
TORSDOF 8
ENDMDL
MODEL 2
REMARK VINA RESULT:      54.9      3.292      5.905
REMARK  8 active torsions:
REMARK  status: ('A' for Active; 'I' for Inactive)
REMARK    1  A    between atoms: C_2  and  C_1 
REMARK    2  A    between atoms: C_5  and  C_1 
REMARK    3  A    between atoms: O_11  and  C_2 
REMARK    4  A    between atoms: C_13  and  C_3 
REMARK    5  A    between atoms: C_6  and  C_5 
REMARK    6  A    between atoms: C_23  and  O_11 
REMARK    7  A    between atoms: C_12  and  S_14 
REMARK    8  A    between atoms: S_14  and  C_18 
ROOT
ATOM      1  C   UNL d   1     -47.482  30.802  35.206  0.00  0.00     0.134 C 
ATOM      2  C   UNL d   1     -47.357  30.598  35.995  0.00  0.00     0.106 C 
ATOM      3  N   UNL d   1     -47.232  30.389  36.783  0.00  0.00    -0.191 NA
ENDROOT
BRANCH   1   4
ATOM      4  C   UNL d   1     -47.539  31.599  34.996  0.00  0.00     0.310 C 
ATOM      5  O   UNL d   1     -47.389  32.186  35.556  0.00  0.00    -0.258 OA
BRANCH   4   6
ATOM      6  O   UNL d   1     -47.746  31.813  34.224  0.00  0.00    -0.273 OA
BRANCH   6   7
ATOM      7  C   UNL d   1     -47.821  32.603  34.024  0.00  0.00     0.103 C 
ATOM      8  C   UNL d   1     -47.153  33.052  33.845  0.00  0.00     0.027 C 
ATOM      9  C   UNL d   1     -48.569  32.953  34.003  0.00  0.00     0.027 C 
ENDBRANCH   6   7
ENDBRANCH   4   6
ENDBRANCH   1   4
BRANCH   1  10
ATOM     10  C   UNL d   1     -47.550  30.222  34.630  0.00  0.00     0.040 C 
BRANCH  10  11
ATOM     11  C   UNL d   1     -47.935  29.521  34.805  0.00  0.00     0.101 A 
ATOM     12  O   UNL d   1     -48.484  29.257  34.254  0.00  0.00    -0.307 OA
ATOM     13  C   UNL d   1     -48.806  28.553  34.530  0.00  0.00     0.100 A 
ATOM     14  C   UNL d   1     -48.456  28.380  35.256  0.00  0.00     0.027 A 
ATOM     15  C   UNL d   1     -47.923  28.967  35.431  0.00  0.00     0.027 A 
BRANCH  13  16
ATOM     16  C   UNL d   1     -49.375  28.099  34.155  0.00  0.00     0.023 A 
ATOM     17  C   UNL d   1     -49.308  27.319  34.435  0.00  0.00     0.003 A 
ATOM     18  C   UNL d   1     -49.821  26.733  34.148  0.00  0.00     0.007 A 
ATOM     19  C   UNL d   1     -50.392  26.922  33.588  0.00  0.00     0.034 A 
ATOM     20  C   UNL d   1     -50.458  27.696  33.310  0.00  0.00     0.007 A 
ATOM     21  C   UNL d   1     -49.953  28.287  33.591  0.00  0.00     0.003 A 
BRANCH  19  22
ATOM     22  S   UNL d   1     -50.898  26.339  33.306  0.00  0.00    -0.028 SA
BRANCH  22  23
ATOM     23  C   UNL d   1     -51.599  26.177  33.704  0.00  0.00     0.309 C 
ATOM     24  F   UNL d   1     -51.767  26.559  34.416  0.00  0.00    -0.165 F 
ATOM     25  F   UNL d   1     -52.135  25.634  33.392  0.00  0.00    -0.165 F 
ENDBRANCH  22  23
ENDBRANCH  19  22
ENDBRANCH  13  16
ENDBRANCH  10  11
ENDBRANCH   1  10
TORSDOF 8
ENDMDL
