MODEL 1
REMARK VINA RESULT:      -2.2      0.000      0.000
REMARK  5 active torsions:
REMARK  status: ('A' for Active; 'I' for Inactive)
REMARK    1  A    between atoms: C_6  and  C_1 
REMARK    2  A    between atoms: C_9  and  C_5 
REMARK       I    between atoms: N_13  and  C_6 
REMARK    3  A    between atoms: C_7  and  C_15 
REMARK    4  A    between atoms: N_10  and  N_13 
REMARK    5  A    between atoms: C_15  and  N_10 
ROOT
ATOM      1  C   UNL d   1      32.872  19.600 -22.497  0.00  0.00     0.316 C 
ATOM      2  N   UNL d   1      32.870  20.522 -22.793  0.00  0.00    -0.104 NA
ATOM      3  O   UNL d   1      33.237  19.451 -21.776  0.00  0.00    -0.262 OA
ENDROOT
BRANCH   1   4
ATOM      4  C   UNL d   1      32.539  18.978 -22.913  0.00  0.00     0.164 A 
ATOM      5  C   UNL d   1      31.725  18.873 -22.904  0.00  0.00     0.047 A 
ATOM      6  C   UNL d   1      31.856  17.741 -23.739  0.00  0.00     0.105 A 
ATOM      7  N   UNL d   1      32.671  17.846 -23.748  0.00  0.00    -0.148 NA
ATOM      8  N   UNL d   1      33.014  18.466 -23.334  0.00  0.00    -0.143 NA
BRANCH   6   9
ATOM      9  C   UNL d   1      31.336  17.206 -24.073  0.00  0.00     0.019 A 
ATOM     10  C   UNL d   1      30.532  17.297 -23.951  0.00  0.00     0.002 A 
ATOM     11  C   UNL d   1      30.006  16.761 -24.285  0.00  0.00     0.000 A 
ATOM     12  C   UNL d   1      29.203  16.848 -24.166  0.00  0.00     0.000 A 
ATOM     13  C   UNL d   1      30.293  16.136 -24.741  0.00  0.00     0.000 A 
ATOM     14  C   UNL d   1      28.681  16.318 -24.497  0.00  0.00     0.000 A 
ATOM     15  C   UNL d   1      28.959  15.691 -24.953  0.00  0.00     0.000 A 
ATOM     16  C   UNL d   1      29.762  15.601 -25.074  0.00  0.00     0.000 A 
ATOM     17  C   UNL d   1      31.090  16.057 -24.854  0.00  0.00     0.000 A 
ATOM     18  C   UNL d   1      31.612  16.592 -24.520  0.00  0.00     0.002 A 
ENDBRANCH   6   9
ENDBRANCH   1   4
BRANCH   2  19
ATOM     19  N   UNL d   1      33.238  21.359 -22.382  0.00  0.00    -0.143 NA
BRANCH  19  20
ATOM     20  C   UNL d   1      33.122  21.521 -21.547  0.00  0.00     0.126 C 
BRANCH  20  21
ATOM     21  C   UNL d   1      32.716  22.243 -21.298  0.00  0.00     0.060 A 
ATOM     22  C   UNL d   1      32.688  22.461 -20.467  0.00  0.00     0.005 A 
ATOM     23  C   UNL d   1      32.282  23.183 -20.219  0.00  0.00     0.000 A 
ATOM     24  C   UNL d   1      33.069  21.956 -19.873  0.00  0.00     0.000 A 
ATOM     25  C   UNL d   1      32.255  23.403 -19.378  0.00  0.00     0.000 A 
ATOM     26  C   UNL d   1      31.899  23.694 -20.804  0.00  0.00     0.003 A 
ATOM     27  C   UNL d   1      32.635  22.897 -18.788  0.00  0.00     0.000 A 
ATOM     28  C   UNL d   1      33.041  22.176 -19.032  0.00  0.00     0.000 A 
ATOM     29  C   UNL d   1      31.932  23.467 -21.639  0.00  0.00     0.042 A 
ATOM     30  C   UNL d   1      32.338  22.745 -21.887  0.00  0.00     0.197 A 
ATOM     31  O   UNL d   1      32.366  22.528 -22.715  0.00  0.00    -0.286 OA
ENDBRANCH  20  21
ENDBRANCH  19  20
ENDBRANCH   2  19
TORSDOF 5
ENDMDL
MODEL 2
REMARK VINA RESULT:      -1.7      2.067      7.222
REMARK  5 active torsions:
REMARK  status: ('A' for Active; 'I' for Inactive)
REMARK    1  A    between atoms: C_6  and  C_1 
REMARK    2  A    between atoms: C_9  and  C_5 
REMARK       I    between atoms: N_13  and  C_6 
REMARK    3  A    between atoms: C_7  and  C_15 
REMARK    4  A    between atoms: N_10  and  N_13 
REMARK    5  A    between atoms: C_15  and  N_10 
ROOT
ATOM      1  C   UNL d   1      32.466  21.372 -21.623  0.00  0.00     0.316 C 
ATOM      2  N   UNL d   1      32.562  20.413 -21.728  0.00  0.00    -0.104 NA
ATOM      3  O   UNL d   1      32.256  21.792 -22.297  0.00  0.00    -0.262 OA
ENDROOT
BRANCH   1   4
ATOM      4  C   UNL d   1      32.578  21.775 -20.919  0.00  0.00     0.164 A 
ATOM      5  C   UNL d   1      32.595  21.360 -20.211  0.00  0.00     0.047 A 
ATOM      6  C   UNL d   1      32.802  22.564 -19.503  0.00  0.00     0.105 A 
ATOM      7  N   UNL d   1      32.785  22.980 -20.211  0.00  0.00    -0.148 NA
ATOM      8  N   UNL d   1      32.673  22.585 -20.922  0.00  0.00    -0.143 NA
BRANCH   6   9
ATOM      9  C   UNL d   1      32.899  22.762 -18.715  0.00  0.00     0.019 A 
ATOM     10  C   UNL d   1      32.744  22.203 -18.139  0.00  0.00     0.002 A 
ATOM     11  C   UNL d   1      32.840  22.398 -17.345  0.00  0.00     0.000 A 
ATOM     12  C   UNL d   1      32.686  21.844 -16.766  0.00  0.00     0.000 A 
ATOM     13  C   UNL d   1      33.091  23.156 -17.138  0.00  0.00     0.000 A 
ATOM     14  C   UNL d   1      32.781  22.037 -15.981  0.00  0.00     0.000 A 
ATOM     15  C   UNL d   1      33.031  22.791 -15.765  0.00  0.00     0.000 A 
ATOM     16  C   UNL d   1      33.186  23.348 -16.342  0.00  0.00     0.000 A 
ATOM     17  C   UNL d   1      33.241  23.700 -17.718  0.00  0.00     0.000 A 
ATOM     18  C   UNL d   1      33.145  23.503 -18.507  0.00  0.00     0.002 A 
ENDBRANCH   6   9
ENDBRANCH   1   4
BRANCH   2  19
ATOM     19  N   UNL d   1      32.453  19.812 -22.522  0.00  0.00    -0.143 NA
BRANCH  19  20
ATOM     20  C   UNL d   1      32.823  19.037 -22.536  0.00  0.00     0.126 C 
BRANCH  20  21
ATOM     21  C   UNL d   1      32.827  18.572 -23.264  0.00  0.00     0.060 A 
ATOM     22  C   UNL d   1      32.943  17.721 -23.236  0.00  0.00     0.005 A 
ATOM     23  C   UNL d   1      32.948  17.256 -23.965  0.00  0.00     0.000 A 
ATOM     24  C   UNL d   1      33.057  17.324 -22.472  0.00  0.00     0.000 A 
ATOM     25  C   UNL d   1      33.065  16.395 -23.935  0.00  0.00     0.000 A 
ATOM     26  C   UNL d   1      32.835  17.642 -24.732  0.00  0.00     0.003 A 
ATOM     27  C   UNL d   1      33.179  16.003 -23.172  0.00  0.00     0.000 A 
ATOM     28  C   UNL d   1      33.175  16.463 -22.442  0.00  0.00     0.000 A 
ATOM     29  C   UNL d   1      32.718  18.500 -24.752  0.00  0.00     0.042 A 
ATOM     30  C   UNL d   1      32.714  18.965 -24.022  0.00  0.00     0.197 A 
ATOM     31  O   UNL d   1      32.598  19.813 -24.051  0.00  0.00    -0.286 OA
ENDBRANCH  20  21
ENDBRANCH  19  20
ENDBRANCH   2  19
TORSDOF 5
ENDMDL
MODEL 3
REMARK VINA RESULT:      -0.6      1.359      6.746
REMARK  5 active torsions:
REMARK  status: ('A' for Active; 'I' for Inactive)
REMARK    1  A    between atoms: C_6  and  C_1 
REMARK    2  A    between atoms: C_9  and  C_5 
REMARK       I    between atoms: N_13  and  C_6 
REMARK    3  A    between atoms: C_7  and  C_15 
REMARK    4  A    between atoms: N_10  and  N_13 
REMARK    5  A    between atoms: C_15  and  N_10 
ROOT
ATOM      1  C   UNL d   1      32.483  18.352 -22.561  0.00  0.00     0.316 C 
ATOM      2  N   UNL d   1      31.599  17.957 -22.612  0.00  0.00    -0.104 NA
ATOM      3  O   UNL d   1      33.112  17.857 -22.743  0.00  0.00    -0.262 OA
ENDROOT
BRANCH   1   4
ATOM      4  C   UNL d   1      32.632  19.130 -22.353  0.00  0.00     0.164 A 
ATOM      5  C   UNL d   1      32.429  19.395 -21.603  0.00  0.00     0.047 A 
ATOM      6  C   UNL d   1      32.923  20.680 -21.919  0.00  0.00     0.105 A 
ATOM      7  N   UNL d   1      33.126  20.414 -22.669  0.00  0.00    -0.148 NA
ATOM      8  N   UNL d   1      32.981  19.637 -22.887  0.00  0.00    -0.143 NA
BRANCH   6   9
ATOM      9  C   UNL d   1      32.981  21.392 -21.519  0.00  0.00     0.019 A 
ATOM     10  C   UNL d   1      33.052  21.390 -20.705  0.00  0.00     0.002 A 
ATOM     11  C   UNL d   1      33.111  22.103 -20.299  0.00  0.00     0.000 A 
ATOM     12  C   UNL d   1      33.182  22.107 -19.486  0.00  0.00     0.000 A 
ATOM     13  C   UNL d   1      33.097  22.814 -20.718  0.00  0.00     0.000 A 
ATOM     14  C   UNL d   1      33.240  22.812 -19.085  0.00  0.00     0.000 A 
ATOM     15  C   UNL d   1      33.227  23.527 -19.494  0.00  0.00     0.000 A 
ATOM     16  C   UNL d   1      33.156  23.527 -20.308  0.00  0.00     0.000 A 
ATOM     17  C   UNL d   1      33.026  22.802 -21.524  0.00  0.00     0.000 A 
ATOM     18  C   UNL d   1      32.968  22.090 -21.925  0.00  0.00     0.002 A 
ENDBRANCH   6   9
ENDBRANCH   1   4
BRANCH   2  19
ATOM     19  N   UNL d   1      31.290  17.033 -22.850  0.00  0.00    -0.143 NA
BRANCH  19  20
ATOM     20  C   UNL d   1      31.103  16.833 -23.663  0.00  0.00     0.126 C 
BRANCH  20  21
ATOM     21  C   UNL d   1      30.279  16.793 -23.920  0.00  0.00     0.060 A 
ATOM     22  C   UNL d   1      29.702  16.349 -23.461  0.00  0.00     0.005 A 
ATOM     23  C   UNL d   1      28.878  16.309 -23.718  0.00  0.00     0.000 A 
ATOM     24  C   UNL d   1      29.947  15.940 -22.736  0.00  0.00     0.000 A 
ATOM     25  C   UNL d   1      28.295  15.860 -23.254  0.00  0.00     0.000 A 
ATOM     26  C   UNL d   1      28.623  16.714 -24.440  0.00  0.00     0.003 A 
ATOM     27  C   UNL d   1      28.543  15.453 -22.531  0.00  0.00     0.000 A 
ATOM     28  C   UNL d   1      29.364  15.491 -22.271  0.00  0.00     0.000 A 
ATOM     29  C   UNL d   1      29.210  17.158 -24.897  0.00  0.00     0.042 A 
ATOM     30  C   UNL d   1      30.035  17.199 -24.639  0.00  0.00     0.197 A 
ATOM     31  O   UNL d   1      30.609  17.640 -25.096  0.00  0.00    -0.286 OA
ENDBRANCH  20  21
ENDBRANCH  19  20
ENDBRANCH   2  19
TORSDOF 5
ENDMDL
