MODEL 1
REMARK VINA RESULT:      22.3      0.000      0.000
REMARK  1 active torsions:
REMARK  status: ('A' for Active; 'I' for Inactive)
REMARK    1  A    between atoms: C_12  and  N_4 
ROOT
ATOM      1  C   UNL d   1      58.692  49.707  50.544  0.00  0.00     0.081 A 
ATOM      2  C   UNL d   1      59.035  49.707  49.830  0.00  0.00     0.118 A 
ATOM      3  C   UNL d   1      59.157  49.707  51.232  0.00  0.00     0.268 A 
ATOM      4  N   UNL d   1      59.973  49.707  51.159  0.00  0.00    -0.249 N 
ATOM      5  N   UNL d   1      59.844  49.707  49.763  0.00  0.00    -0.212 NA
ATOM      6  C   UNL d   1      60.329  49.707  50.454  0.00  0.00     0.209 A 
ATOM      7  S   UNL d   1      58.475  49.708  49.223  0.00  0.00    -0.068 SA
ATOM      8  C   UNL d   1      57.869  49.707  50.409  0.00  0.00     0.013 A 
ATOM      9  C   UNL d   1      57.728  49.707  49.582  0.00  0.00     0.031 A 
ATOM     10  S   UNL d   1      61.159  49.707  50.424  0.00  0.00    -0.038 SA
ATOM     11  O   UNL d   1      58.821  49.706  51.988  0.00  0.00    -0.267 OA
ATOM     12  C   UNL d   1      57.373  49.707  51.044  0.00  0.00     0.001 A 
ATOM     13  C   UNL d   1      56.989  49.708  49.228  0.00  0.00     0.006 A 
ATOM     14  C   UNL d   1      56.532  49.707  51.016  0.00  0.00     0.000 A 
ATOM     15  C   UNL d   1      56.248  49.707  49.560  0.00  0.00     0.001 A 
ATOM     16  C   UNL d   1      56.035  49.707  50.357  0.00  0.00     0.000 A 
ENDROOT
BRANCH   4  17
ATOM     17  C   UNL d   1      60.457  49.706  51.857  0.00  0.00     0.085 C 
ATOM     18  C   UNL d   1      61.273  49.688  51.784  0.00  0.00     0.021 C 
ENDBRANCH   4  17
TORSDOF 1
ENDMDL
MODEL 2
REMARK VINA RESULT:      22.8      1.082      3.239
REMARK  1 active torsions:
REMARK  status: ('A' for Active; 'I' for Inactive)
REMARK    1  A    between atoms: C_12  and  N_4 
ROOT
ATOM      1  C   UNL d   1      58.509  49.703  50.516  0.00  0.00     0.081 A 
ATOM      2  C   UNL d   1      58.617  49.703  49.731  0.00  0.00     0.118 A 
ATOM      3  C   UNL d   1      57.740  49.705  50.832  0.00  0.00     0.268 A 
ATOM      4  N   UNL d   1      57.101  49.706  50.319  0.00  0.00    -0.249 N 
ATOM      5  N   UNL d   1      57.981  49.705  49.228  0.00  0.00    -0.212 NA
ATOM      6  C   UNL d   1      57.195  49.706  49.535  0.00  0.00     0.209 A 
ATOM      7  S   UNL d   1      59.420  49.701  49.535  0.00  0.00    -0.068 SA
ATOM      8  C   UNL d   1      59.269  49.701  50.859  0.00  0.00     0.013 A 
ATOM      9  C   UNL d   1      59.843  49.700  50.248  0.00  0.00     0.031 A 
ATOM     10  S   UNL d   1      56.519  49.708  49.051  0.00  0.00    -0.038 SA
ATOM     11  O   UNL d   1      57.603  49.705  51.647  0.00  0.00    -0.267 OA
ATOM     12  C   UNL d   1      59.331  49.701  51.662  0.00  0.00     0.001 A 
ATOM     13  C   UNL d   1      60.655  49.698  50.362  0.00  0.00     0.006 A 
ATOM     14  C   UNL d   1      60.046  49.699  52.104  0.00  0.00     0.000 A 
ATOM     15  C   UNL d   1      61.089  49.697  51.048  0.00  0.00     0.001 A 
ATOM     16  C   UNL d   1      60.825  49.697  51.830  0.00  0.00     0.000 A 
ENDROOT
BRANCH   4  17
ATOM     17  C   UNL d   1      56.312  49.708  50.633  0.00  0.00     0.085 C 
ATOM     18  C   UNL d   1      56.054  49.074  51.084  0.00  0.00     0.021 C 
ENDBRANCH   4  17
TORSDOF 1
ENDMDL
