MODEL 1
REMARK VINA RESULT:      -1.8      0.000      0.000
REMARK  5 active torsions:
REMARK  status: ('A' for Active; 'I' for Inactive)
REMARK    1  A    between atoms: C_6  and  N_1 
REMARK    2  A    between atoms: C_8  and  C_3 
REMARK    3  A    between atoms: C_7  and  C_6 
REMARK    4  A    between atoms: C_9  and  C_7 
REMARK    5  A    between atoms: C_14  and  C_8 
ROOT
ATOM      1  N   UNL d   1      31.197  17.043 -24.627  0.00  0.00    -0.289 N 
ATOM      2  N   UNL d   1      30.791  15.840 -24.190  0.00  0.00    -0.227 NA
ATOM      3  C   UNL d   1      31.459  16.305 -24.355  0.00  0.00     0.148 A 
ATOM      4  C   UNL d   1      30.369  17.034 -24.630  0.00  0.00     0.083 A 
ATOM      5  C   UNL d   1      30.117  16.296 -24.361  0.00  0.00     0.099 A 
ATOM      6  C   UNL d   1      29.803  17.604 -24.842  0.00  0.00     0.019 A 
ATOM      7  C   UNL d   1      29.313  16.124 -24.304  0.00  0.00     0.021 A 
ATOM      8  C   UNL d   1      29.003  17.430 -24.785  0.00  0.00     0.002 A 
ATOM      9  C   UNL d   1      28.757  16.690 -24.516  0.00  0.00     0.002 A 
ENDROOT
BRANCH   1  10
ATOM     10  C   UNL d   1      31.672  17.669 -24.852  0.00  0.00     0.082 C 
BRANCH  10  11
ATOM     11  C   UNL d   1      31.843  18.119 -24.178  0.00  0.00     0.019 C 
BRANCH  11  12
ATOM     12  C   UNL d   1      32.305  18.796 -24.246  0.00  0.00     0.002 A 
ATOM     13  C   UNL d   1      32.652  19.124 -23.572  0.00  0.00     0.000 A 
ATOM     14  C   UNL d   1      33.115  19.803 -23.641  0.00  0.00     0.000 A 
ATOM     15  C   UNL d   1      33.229  20.148 -24.377  0.00  0.00     0.000 A 
ATOM     16  C   UNL d   1      32.879  19.815 -25.047  0.00  0.00     0.000 A 
ATOM     17  C   UNL d   1      32.421  19.144 -24.977  0.00  0.00     0.000 A 
ENDBRANCH  11  12
ENDBRANCH  10  11
ENDBRANCH   1  10
BRANCH   3  18
ATOM     18  C   UNL d   1      32.239  16.072 -24.264  0.00  0.00     0.037 C 
BRANCH  18  19
ATOM     19  C   UNL d   1      32.438  15.513 -23.686  0.00  0.00     0.003 C 
ATOM     20  C   UNL d   1      33.211  15.453 -23.429  0.00  0.00     0.000 C 
ENDBRANCH  18  19
ENDBRANCH   3  18
TORSDOF 5
ENDMDL
MODEL 2
REMARK VINA RESULT:       0.5      1.745      3.060
REMARK  5 active torsions:
REMARK  status: ('A' for Active; 'I' for Inactive)
REMARK    1  A    between atoms: C_6  and  N_1 
REMARK    2  A    between atoms: C_8  and  C_3 
REMARK    3  A    between atoms: C_7  and  C_6 
REMARK    4  A    between atoms: C_9  and  C_7 
REMARK    5  A    between atoms: C_14  and  C_8 
ROOT
ATOM      1  N   UNL d   1      29.673  16.596 -24.230  0.00  0.00    -0.289 N 
ATOM      2  N   UNL d   1      28.617  17.426 -24.214  0.00  0.00    -0.227 NA
ATOM      3  C   UNL d   1      29.367  17.297 -24.548  0.00  0.00     0.148 A 
ATOM      4  C   UNL d   1      29.114  16.291 -23.700  0.00  0.00     0.083 A 
ATOM      5  C   UNL d   1      28.464  16.800 -23.689  0.00  0.00     0.099 A 
ATOM      6  C   UNL d   1      29.107  15.612 -23.221  0.00  0.00     0.019 A 
ATOM      7  C   UNL d   1      27.815  16.638 -23.208  0.00  0.00     0.021 A 
ATOM      8  C   UNL d   1      28.459  15.453 -22.743  0.00  0.00     0.002 A 
ATOM      9  C   UNL d   1      27.813  15.966 -22.736  0.00  0.00     0.002 A 
ENDROOT
BRANCH   1  10
ATOM     10  C   UNL d   1      30.398  16.263 -24.407  0.00  0.00     0.082 C 
BRANCH  10  11
ATOM     11  C   UNL d   1      30.960  16.577 -23.887  0.00  0.00     0.019 C 
BRANCH  11  12
ATOM     12  C   UNL d   1      31.720  16.261 -23.867  0.00  0.00     0.002 A 
ATOM     13  C   UNL d   1      32.207  16.407 -23.216  0.00  0.00     0.000 A 
ATOM     14  C   UNL d   1      32.968  16.089 -23.197  0.00  0.00     0.000 A 
ATOM     15  C   UNL d   1      33.236  15.631 -23.822  0.00  0.00     0.000 A 
ATOM     16  C   UNL d   1      32.744  15.488 -24.470  0.00  0.00     0.000 A 
ATOM     17  C   UNL d   1      31.991  15.803 -24.488  0.00  0.00     0.000 A 
ENDBRANCH  11  12
ENDBRANCH  10  11
ENDBRANCH   1  10
BRANCH   3  18
ATOM     18  C   UNL d   1      29.737  17.782 -25.096  0.00  0.00     0.037 C 
BRANCH  18  19
ATOM     19  C   UNL d   1      29.583  18.596 -25.097  0.00  0.00     0.003 C 
ATOM     20  C   UNL d   1      30.205  19.125 -25.051  0.00  0.00     0.000 C 
ENDBRANCH  18  19
ENDBRANCH   3  18
TORSDOF 5
ENDMDL
MODEL 3
REMARK VINA RESULT:       0.8      2.135      3.682
REMARK  5 active torsions:
REMARK  status: ('A' for Active; 'I' for Inactive)
REMARK    1  A    between atoms: C_6  and  N_1 
REMARK    2  A    between atoms: C_8  and  C_3 
REMARK    3  A    between atoms: C_7  and  C_6 
REMARK    4  A    between atoms: C_9  and  C_7 
REMARK    5  A    between atoms: C_14  and  C_8 
ROOT
ATOM      1  N   UNL d   1      32.940  19.862 -23.313  0.00  0.00    -0.289 N 
ATOM      2  N   UNL d   1      32.576  18.848 -22.512  0.00  0.00    -0.227 NA
ATOM      3  C   UNL d   1      32.934  19.598 -22.528  0.00  0.00     0.148 A 
ATOM      4  C   UNL d   1      32.588  19.277 -23.782  0.00  0.00     0.083 A 
ATOM      5  C   UNL d   1      32.363  18.653 -23.291  0.00  0.00     0.099 A 
ATOM      6  C   UNL d   1      32.438  19.227 -24.598  0.00  0.00     0.019 A 
ATOM      7  C   UNL d   1      31.995  17.986 -23.606  0.00  0.00     0.021 A 
ATOM      8  C   UNL d   1      32.071  18.561 -24.908  0.00  0.00     0.002 A 
ATOM      9  C   UNL d   1      31.849  17.941 -24.412  0.00  0.00     0.002 A 
ENDROOT
BRANCH   1  10
ATOM     10  C   UNL d   1      33.241  20.574 -23.579  0.00  0.00     0.082 C 
BRANCH  10  11
ATOM     11  C   UNL d   1      32.611  21.105 -23.665  0.00  0.00     0.019 C 
BRANCH  11  12
ATOM     12  C   UNL d   1      32.760  21.884 -23.881  0.00  0.00     0.002 A 
ATOM     13  C   UNL d   1      32.600  22.495 -23.349  0.00  0.00     0.000 A 
ATOM     14  C   UNL d   1      32.751  23.276 -23.568  0.00  0.00     0.000 A 
ATOM     15  C   UNL d   1      33.057  23.442 -24.311  0.00  0.00     0.000 A 
ATOM     16  C   UNL d   1      33.214  22.827 -24.838  0.00  0.00     0.000 A 
ATOM     17  C   UNL d   1      33.066  22.054 -24.621  0.00  0.00     0.000 A 
ENDBRANCH  11  12
ENDBRANCH  10  11
ENDBRANCH   1  10
BRANCH   3  18
ATOM     18  C   UNL d   1      33.228  20.002 -21.879  0.00  0.00     0.037 C 
BRANCH  18  19
ATOM     19  C   UNL d   1      33.186  19.660 -21.126  0.00  0.00     0.003 C 
ATOM     20  C   UNL d   1      33.023  20.127 -20.476  0.00  0.00     0.000 C 
ENDBRANCH  18  19
ENDBRANCH   3  18
TORSDOF 5
ENDMDL
