MODEL 1
REMARK VINA RESULT:      53.3      0.000      0.000
REMARK  6 active torsions:
REMARK  status: ('A' for Active; 'I' for Inactive)
REMARK    1  A    between atoms: C_9  and  N_1 
REMARK    2  A    between atoms: S_11  and  C_6 
REMARK    3  A    between atoms: C_24  and  S_11 
REMARK    4  A    between atoms: C_13  and  C_24 
REMARK       I    between atoms: N_18  and  C_13 
REMARK    5  A    between atoms: C_26  and  N_18 
REMARK    6  A    between atoms: C_25  and  C_26 
ROOT
ATOM      1  N   UNL d   1      46.195 -19.300  41.686  0.00  0.00    -0.212 N 
ATOM      2  C   UNL d   1      45.687 -18.711  41.424  0.00  0.00     0.169 A 
ATOM      3  N   UNL d   1      46.535 -19.659  41.044  0.00  0.00    -0.162 NA
ATOM      4  C   UNL d   1      45.714 -18.707  40.600  0.00  0.00     0.081 A 
ATOM      5  C   UNL d   1      46.239 -19.294  40.362  0.00  0.00     0.126 A 
ATOM      6  C   UNL d   1      45.258 -18.171  40.175  0.00  0.00     0.117 A 
ATOM      7  N   UNL d   1      45.204 -18.178  41.824  0.00  0.00    -0.205 NA
ATOM      8  N   UNL d   1      44.773 -17.636  40.574  0.00  0.00    -0.217 NA
ATOM      9  C   UNL d   1      44.746 -17.639  41.398  0.00  0.00     0.201 A 
ENDROOT
BRANCH   6  10
ATOM     10  S   UNL d   1      45.286 -18.167  39.350  0.00  0.00    -0.062 SA
BRANCH  10  11
ATOM     11  C   UNL d   1      44.814 -17.652  38.929  0.00  0.00     0.099 C 
BRANCH  11  12
ATOM     12  C   UNL d   1      44.717 -17.752  38.116  0.00  0.00     0.286 C 
ATOM     13  N   UNL d   1      44.600 -17.096  37.630  0.00  0.00    -0.206 NA
ATOM     14  O   UNL d   1      44.737 -18.510  37.788  0.00  0.00    -0.265 OA
BRANCH  13  15
ATOM     15  C   UNL d   1      44.580 -16.338  37.957  0.00  0.00     0.102 C 
BRANCH  15  16
ATOM     16  C   UNL d   1      44.866 -15.694  37.526  0.00  0.00     0.021 A 
ATOM     17  C   UNL d   1      45.629 -15.412  37.662  0.00  0.00     0.028 A 
ATOM     18  C   UNL d   1      45.913 -14.768  37.231  0.00  0.00     0.119 A 
ATOM     19  O   UNL d   1      46.642 -14.374  37.250  0.00  0.00    -0.300 OA
ATOM     20  C   UNL d   1      45.435 -14.408  36.662  0.00  0.00     0.119 A 
ATOM     21  C   UNL d   1      46.608 -13.776  36.695  0.00  0.00     0.304 A 
ATOM     22  O   UNL d   1      45.875 -13.789  36.333  0.00  0.00    -0.300 OA
ATOM     23  C   UNL d   1      44.672 -14.690  36.526  0.00  0.00     0.026 A 
ATOM     24  C   UNL d   1      44.387 -15.334  36.957  0.00  0.00     0.004 A 
ENDBRANCH  15  16
ENDBRANCH  13  15
ENDBRANCH  11  12
ENDBRANCH  10  11
ENDBRANCH   6  10
BRANCH   1  25
ATOM     25  C   UNL d   1      46.286 -19.438  42.500  0.00  0.00     0.085 A 
ATOM     26  C   UNL d   1      46.516 -18.825  42.997  0.00  0.00     0.020 A 
ATOM     27  C   UNL d   1      46.607 -18.959  43.799  0.00  0.00     0.013 A 
ATOM     28  C   UNL d   1      46.466 -19.718  44.113  0.00  0.00     0.058 A 
ATOM     29  C   UNL d   1      46.236 -20.326  43.602  0.00  0.00     0.013 A 
ATOM     30 CL   UNL d   1      46.557 -19.864  44.933  0.00  0.00    -0.082 Cl
ATOM     31  C   UNL d   1      46.148 -20.185  42.804  0.00  0.00     0.020 A 
ENDBRANCH   1  25
TORSDOF 6
ENDMDL
