MODEL 1
REMARK VINA RESULT:      45.3      0.000      0.000
REMARK  7 active torsions:
REMARK  status: ('A' for Active; 'I' for Inactive)
REMARK    1  A    between atoms: C_14  and  N_1 
REMARK    2  A    between atoms: C_2  and  C_5 
REMARK    3  A    between atoms: C_6  and  C_2 
REMARK    4  A    between atoms: C_7  and  C_3 
REMARK    5  A    between atoms: C_5  and  C_7 
REMARK    6  A    between atoms: O_15  and  C_6 
REMARK    7  A    between atoms: C_18  and  O_15 
ROOT
ATOM      1  C   UNL d   1     -52.420  24.418  33.843  0.00  0.00     0.132 C 
ATOM      2  C   UNL d   1     -51.859  23.853  33.654  0.00  0.00     0.106 C 
ATOM      3  N   UNL d   1     -51.306  23.307  33.468  0.00  0.00    -0.191 NA
ENDROOT
BRANCH   1   4
ATOM      4  C   UNL d   1     -52.228  25.219  33.874  0.00  0.00     0.017 C 
BRANCH   4   5
ATOM      5  C   UNL d   1     -51.765  25.533  33.314  0.00  0.00     0.018 C 
BRANCH   5   6
ATOM      6  C   UNL d   1     -51.595  26.335  33.330  0.00  0.00     0.064 A 
ATOM      7  N   UNL d   1     -50.795  26.600  33.327  0.00  0.00    -0.305 N 
ATOM      8  C   UNL d   1     -50.635  27.418  33.343  0.00  0.00     0.064 A 
ATOM      9  C   UNL d   1     -51.249  27.965  33.363  0.00  0.00     0.016 A 
ATOM     10  C   UNL d   1     -49.847  27.669  33.340  0.00  0.00     0.018 A 
ATOM     11  C   UNL d   1     -52.043  27.703  33.366  0.00  0.00     0.003 A 
ATOM     12  C   UNL d   1     -51.079  28.768  33.379  0.00  0.00     0.001 A 
ATOM     13  C   UNL d   1     -52.214  26.901  33.350  0.00  0.00     0.018 A 
ATOM     14  C   UNL d   1     -50.292  29.035  33.376  0.00  0.00     0.000 A 
ATOM     15  C   UNL d   1     -49.677  28.472  33.356  0.00  0.00     0.002 A 
BRANCH   7  16
ATOM     16  C   UNL d   1     -50.173  26.055  33.307  0.00  0.00     0.080 C 
ATOM     17  C   UNL d   1     -49.829  25.806  34.023  0.00  0.00     0.021 C 
ENDBRANCH   7  16
ENDBRANCH   5   6
ENDBRANCH   4   5
ENDBRANCH   1   4
BRANCH   1  18
ATOM     18  C   UNL d   1     -53.164  24.165  33.998  0.00  0.00     0.310 C 
ATOM     19  O   UNL d   1     -53.771  24.678  33.945  0.00  0.00    -0.258 OA
BRANCH  18  20
ATOM     20  O   UNL d   1     -53.301  23.480  34.186  0.00  0.00    -0.271 OA
BRANCH  20  21
ATOM     21  C   UNL d   1     -53.977  23.276  34.707  0.00  0.00     0.126 C 
ATOM     22  C   UNL d   1     -54.767  23.323  34.444  0.00  0.00     0.029 C 
ENDBRANCH  20  21
ENDBRANCH  18  20
ENDBRANCH   1  18
TORSDOF 7
ENDMDL
MODEL 2
REMARK VINA RESULT:      45.8      2.030      4.426
REMARK  7 active torsions:
REMARK  status: ('A' for Active; 'I' for Inactive)
REMARK    1  A    between atoms: C_14  and  N_1 
REMARK    2  A    between atoms: C_2  and  C_5 
REMARK    3  A    between atoms: C_6  and  C_2 
REMARK    4  A    between atoms: C_7  and  C_3 
REMARK    5  A    between atoms: C_5  and  C_7 
REMARK    6  A    between atoms: O_15  and  C_6 
REMARK    7  A    between atoms: C_18  and  O_15 
ROOT
ATOM      1  C   UNL d   1     -49.482  27.000  33.734  0.00  0.00     0.132 C 
ATOM      2  C   UNL d   1     -48.840  26.505  33.847  0.00  0.00     0.106 C 
ATOM      3  N   UNL d   1     -48.217  26.017  33.955  0.00  0.00    -0.191 NA
ENDROOT
BRANCH   1   4
ATOM      4  C   UNL d   1     -50.171  26.731  33.367  0.00  0.00     0.017 C 
BRANCH   4   5
ATOM      5  C   UNL d   1     -50.312  25.955  33.318  0.00  0.00     0.018 C 
BRANCH   5   6
ATOM      6  C   UNL d   1     -51.081  25.677  33.374  0.00  0.00     0.064 A 
ATOM      7  N   UNL d   1     -51.235  24.849  33.386  0.00  0.00    -0.305 N 
ATOM      8  C   UNL d   1     -52.021  24.580  33.443  0.00  0.00     0.064 A 
ATOM      9  C   UNL d   1     -52.646  25.113  33.488  0.00  0.00     0.016 A 
ATOM     10  C   UNL d   1     -52.163  23.765  33.454  0.00  0.00     0.018 A 
ATOM     11  C   UNL d   1     -52.495  25.936  33.476  0.00  0.00     0.003 A 
ATOM     12  C   UNL d   1     -53.417  24.836  33.544  0.00  0.00     0.001 A 
ATOM     13  C   UNL d   1     -51.724  26.214  33.420  0.00  0.00     0.018 A 
ATOM     14  C   UNL d   1     -53.574  24.020  33.556  0.00  0.00     0.000 A 
ATOM     15  C   UNL d   1     -52.933  23.487  33.510  0.00  0.00     0.002 A 
BRANCH   7  16
ATOM     16  C   UNL d   1     -50.612  24.307  33.342  0.00  0.00     0.080 C 
ATOM     17  C   UNL d   1     -50.143  24.170  34.016  0.00  0.00     0.021 C 
ENDBRANCH   7  16
ENDBRANCH   5   6
ENDBRANCH   4   5
ENDBRANCH   1   4
BRANCH   1  18
ATOM     18  C   UNL d   1     -49.419  27.755  33.993  0.00  0.00     0.310 C 
ATOM     19  O   UNL d   1     -49.943  28.300  33.742  0.00  0.00    -0.258 OA
BRANCH  18  20
ATOM     20  O   UNL d   1     -48.898  27.957  34.450  0.00  0.00    -0.271 OA
BRANCH  20  21
ATOM     21  C   UNL d   1     -48.544  28.759  34.414  0.00  0.00     0.126 C 
ATOM     22  C   UNL d   1     -48.824  29.388  34.885  0.00  0.00     0.029 C 
ENDBRANCH  20  21
ENDBRANCH  18  20
ENDBRANCH   1  18
TORSDOF 7
ENDMDL
