MODEL 1
REMARK VINA RESULT:      -5.3      0.000      0.000
REMARK  5 active torsions:
REMARK  status: ('A' for Active; 'I' for Inactive)
REMARK    1  A    between atoms: N_2  and  C_1 
REMARK    2  A    between atoms: C_8  and  C_5 
REMARK    3  A    between atoms: C_6  and  C_9 
REMARK       I    between atoms: N_12  and  C_6 
REMARK    4  A    between atoms: C_9  and  C_8 
REMARK    5  A    between atoms: C_14  and  N_12 
ROOT
ATOM      1  C   UNL d   1     -41.512-123.076 -52.281  0.00  0.00     0.279 C 
ATOM      2  N   UNL d   1     -41.439-122.355 -52.663  0.00  0.00    -0.208 NA
ATOM      3  O   UNL d   1     -41.756-123.740 -52.700  0.00  0.00    -0.265 OA
ENDROOT
BRANCH   1   4
ATOM      4  C   UNL d   1     -41.339-123.138 -51.471  0.00  0.00     0.063 C 
BRANCH   4   5
ATOM      5  C   UNL d   1     -41.781-123.639 -50.987  0.00  0.00     0.011 C 
BRANCH   5   6
ATOM      6  C   UNL d   1     -41.766-123.545 -50.148  0.00  0.00     0.031 A 
ATOM      7  S   UNL d   1     -42.306-123.210 -49.622  0.00  0.00    -0.064 SA
ATOM      8  C   UNL d   1     -41.991-123.278 -48.871  0.00  0.00     0.156 A 
ATOM      9  C   UNL d   1     -41.262-123.650 -48.911  0.00  0.00     0.031 A 
ATOM     10  C   UNL d   1     -41.122-123.817 -49.717  0.00  0.00     0.009 A 
BRANCH   8  11
ATOM     11  N   UNL d   1     -42.364-123.006 -48.183  0.00  0.00    -0.107 N 
ATOM     12  O   UNL d   1     -42.187-123.325 -47.445  0.00  0.00    -0.531 OA
ATOM     13  O   UNL d   1     -42.926-122.401 -48.252  0.00  0.00    -0.531 OA
ENDBRANCH   8  11
ENDBRANCH   5   6
ENDBRANCH   4   5
ENDBRANCH   1   4
BRANCH   2  14
ATOM     14  C   UNL d   1     -41.611-122.294 -53.472  0.00  0.00     0.085 A 
ATOM     15  C   UNL d   1     -41.131-122.684 -54.029  0.00  0.00     0.019 A 
ATOM     16  C   UNL d   1     -41.283-122.637 -54.825  0.00  0.00     0.002 A 
ATOM     17  C   UNL d   1     -41.953-122.172 -55.075  0.00  0.00     0.000 A 
ATOM     18  C   UNL d   1     -42.422-121.790 -54.518  0.00  0.00     0.002 A 
ATOM     19  C   UNL d   1     -42.143-122.098 -55.881  0.00  0.00     0.000 C 
ATOM     20  C   UNL d   1     -42.254-121.850 -53.726  0.00  0.00     0.019 A 
ENDBRANCH   2  14
TORSDOF 5
ENDMDL
