MODEL 1
REMARK VINA RESULT:      70.3      0.000      0.000
REMARK  9 active torsions:
REMARK  status: ('A' for Active; 'I' for Inactive)
REMARK    1  A    between atoms: C_2  and  N_1 
REMARK    2  A    between atoms: C_6  and  C_2 
REMARK    3  A    between atoms: C_8  and  C_2 
REMARK    4  A    between atoms: C_10  and  N_3 
REMARK       I    between atoms: C_4  and  N_7 
REMARK    5  A    between atoms: C_5  and  C_4 
REMARK       I    between atoms: N_9  and  C_5 
REMARK    6  A    between atoms: N_7  and  C_8 
REMARK    7  A    between atoms: C_24  and  N_9 
REMARK    8  A    between atoms: C_26  and  C_24 
REMARK    9  A    between atoms: O_29  and  C_25 
ROOT
ATOM      1  C   UNL d   1     -54.780-101.375 -40.058  0.00  0.00     0.106 C 
ENDROOT
BRANCH   1   2
ATOM      2  N   UNL d   1     -54.831-101.376 -40.890  0.00  0.00    -0.298 N 
ATOM      3  C   UNL d   1     -54.712-100.684 -41.309  0.00  0.00     0.100 A 
ATOM      4  C   UNL d   1     -54.763-100.685 -42.140  0.00  0.00     0.100 A 
ATOM      5  N   UNL d   1     -54.935-101.388 -42.537  0.00  0.00    -0.301 N 
ATOM      6  C   UNL d   1     -55.054-102.085 -42.101  0.00  0.00     0.100 A 
ATOM      7  C   UNL d   1     -55.002-102.079 -41.287  0.00  0.00     0.100 A 
BRANCH   5   8
ATOM      8  C   UNL d   1     -54.986-101.399 -43.343  0.00  0.00     0.064 A 
ATOM      9  C   UNL d   1     -55.317-100.754 -43.750  0.00  0.00     0.020 A 
ATOM     10  C   UNL d   1     -55.374-100.757 -44.571  0.00  0.00     0.026 A 
ATOM     11  C   UNL d   1     -55.099-101.407 -44.998  0.00  0.00     0.094 A 
ATOM     12  C   UNL d   1     -54.766-102.056 -44.594  0.00  0.00     0.026 A 
ATOM     13  C   UNL d   1     -54.711-102.049 -43.770  0.00  0.00     0.020 A 
BRANCH  11  14
ATOM     14  O   UNL d   1     -55.155-101.412 -45.825  0.00  0.00    -0.328 OA
ATOM     15  C   UNL d   1     -55.768-101.821 -46.197  0.00  0.00     0.181 C 
ENDBRANCH  11  14
ENDBRANCH   5   8
ENDBRANCH   1   2
BRANCH   1  16
ATOM     16  C   UNL d   1     -54.799-100.642 -39.650  0.00  0.00     0.118 A 
ATOM     17  O   UNL d   1     -54.861 -99.860 -39.914  0.00  0.00    -0.304 OA
ATOM     18  C   UNL d   1     -54.850 -99.373 -39.241  0.00  0.00     0.123 A 
ATOM     19  C   UNL d   1     -54.783 -99.844 -38.579  0.00  0.00     0.029 A 
ATOM     20  C   UNL d   1     -54.751-100.634 -38.830  0.00  0.00     0.028 A 
ENDBRANCH   1  16
BRANCH   1  21
ATOM     21  C   UNL d   1     -54.711-102.075 -39.632  0.00  0.00     0.122 C 
BRANCH  21  22
ATOM     22  N   UNL d   1     -54.747-102.055 -38.794  0.00  0.00    -0.201 NA
ATOM     23  C   UNL d   1     -55.358-102.436 -38.394  0.00  0.00     0.337 C 
ATOM     24  O   UNL d   1     -55.934-102.836 -38.810  0.00  0.00    -0.260 OA
BRANCH  23  25
ATOM     25  C   UNL d   1     -55.378-102.406 -37.575  0.00  0.00     0.337 C 
ATOM     26  N   UNL d   1     -54.778-102.009 -37.169  0.00  0.00    -0.200 NA
ATOM     27  O   UNL d   1     -55.983-102.762 -37.156  0.00  0.00    -0.260 OA
BRANCH  26  28
ATOM     28  C   UNL d   1     -54.791-101.974 -36.345  0.00  0.00     0.127 C 
BRANCH  28  29
ATOM     29  C   UNL d   1     -55.163-101.344 -35.965  0.00  0.00     0.119 A 
ATOM     30  O   UNL d   1     -55.957-101.187 -35.807  0.00  0.00    -0.304 OA
ATOM     31  C   UNL d   1     -55.992-100.463 -35.406  0.00  0.00     0.123 A 
ATOM     32  C   UNL d   1     -55.231-100.179 -35.320  0.00  0.00     0.029 A 
ATOM     33  C   UNL d   1     -54.714-100.720 -35.664  0.00  0.00     0.028 A 
ENDBRANCH  28  29
ENDBRANCH  26  28
ENDBRANCH  23  25
ENDBRANCH  21  22
ENDBRANCH   1  21
TORSDOF 9
ENDMDL
