MODEL 1
REMARK VINA RESULT:      49.9      0.000      0.000
REMARK  5 active torsions:
REMARK  status: ('A' for Active; 'I' for Inactive)
REMARK    1  A    between atoms: C_7  and  N_1 
REMARK    2  A    between atoms: C_23  and  C_5 
REMARK    3  A    between atoms: C_22  and  C_6 
REMARK    4  A    between atoms: C_8  and  C_7 
REMARK       I    between atoms: N_11  and  C_8 
REMARK    5  A    between atoms: C_17  and  N_11 
ROOT
ATOM      1  C   UNL d   1     -56.988 -98.771 -44.996  0.00  0.00     0.148 C 
ENDROOT
BRANCH   1   2
ATOM      2  N   UNL d   1     -57.811 -98.767 -44.928  0.00  0.00    -0.235 N 
ATOM      3  C   UNL d   1     -58.162 -98.765 -44.176  0.00  0.00     0.273 A 
ATOM      4  C   UNL d   1     -58.978 -98.760 -44.108  0.00  0.00     0.086 A 
ATOM      5  O   UNL d   1     -57.687 -98.767 -43.498  0.00  0.00    -0.266 OA
ATOM      6  S   UNL d   1     -59.457 -98.758 -44.773  0.00  0.00    -0.077 SA
ATOM      7  C   UNL d   1     -59.113 -98.760 -45.521  0.00  0.00     0.086 A 
ATOM      8  C   UNL d   1     -58.292 -98.764 -45.605  0.00  0.00     0.273 A 
ATOM      9  O   UNL d   1     -57.944 -98.766 -46.353  0.00  0.00    -0.266 OA
BRANCH   4  10
ATOM     10  C   UNL d   1     -59.329 -98.758 -43.352  0.00  0.00     0.011 C 
ATOM     11  C   UNL d   1     -59.821 -99.381 -43.125  0.00  0.00     0.001 C 
ENDBRANCH   4  10
BRANCH   7  12
ATOM     12  C   UNL d   1     -59.590 -98.757 -46.194  0.00  0.00     0.011 C 
ATOM     13  C   UNL d   1     -59.958 -99.454 -46.441  0.00  0.00     0.001 C 
ENDBRANCH   7  12
ENDBRANCH   1   2
BRANCH   1  14
ATOM     14  C   UNL d   1     -56.574 -99.479 -44.918  0.00  0.00     0.297 C 
ATOM     15  N   UNL d   1     -56.235 -99.670 -44.199  0.00  0.00    -0.207 NA
ATOM     16  O   UNL d   1     -56.509 -99.987 -45.566  0.00  0.00    -0.264 OA
BRANCH  15  17
ATOM     17  C   UNL d   1     -55.820-100.379 -44.120  0.00  0.00     0.087 A 
ATOM     18  C   UNL d   1     -56.058-100.933 -43.558  0.00  0.00     0.045 A 
ATOM     19  C   UNL d   1     -55.654-101.639 -43.471  0.00  0.00     0.121 A 
ATOM     20  O   UNL d   1     -55.761-102.288 -42.965  0.00  0.00    -0.299 OA
ATOM     21  C   UNL d   1     -55.002-101.801 -43.952  0.00  0.00     0.119 A 
ATOM     22  C   UNL d   1     -55.170-102.846 -43.139  0.00  0.00     0.304 A 
ATOM     23  O   UNL d   1     -54.711-102.537 -43.745  0.00  0.00    -0.300 OA
ATOM     24  C   UNL d   1     -54.768-101.239 -44.516  0.00  0.00     0.028 A 
ATOM     25  C   UNL d   1     -55.175-100.532 -44.599  0.00  0.00     0.021 A 
ENDBRANCH  15  17
ENDBRANCH   1  14
TORSDOF 5
ENDMDL
MODEL 2
REMARK VINA RESULT:      50.5      1.058      2.024
REMARK  5 active torsions:
REMARK  status: ('A' for Active; 'I' for Inactive)
REMARK    1  A    between atoms: C_7  and  N_1 
REMARK    2  A    between atoms: C_23  and  C_5 
REMARK    3  A    between atoms: C_22  and  C_6 
REMARK    4  A    between atoms: C_8  and  C_7 
REMARK       I    between atoms: N_11  and  C_8 
REMARK    5  A    between atoms: C_17  and  N_11 
ROOT
ATOM      1  C   UNL d   1     -56.846 -98.757 -43.708  0.00  0.00     0.148 C 
ENDROOT
BRANCH   1   2
ATOM      2  N   UNL d   1     -57.655 -98.757 -43.875  0.00  0.00    -0.235 N 
ATOM      3  C   UNL d   1     -57.914 -98.758 -44.663  0.00  0.00     0.273 A 
ATOM      4  C   UNL d   1     -58.715 -98.758 -44.829  0.00  0.00     0.086 A 
ATOM      5  O   UNL d   1     -57.361 -98.758 -45.279  0.00  0.00    -0.266 OA
ATOM      6  S   UNL d   1     -59.271 -98.758 -44.226  0.00  0.00    -0.077 SA
ATOM      7  C   UNL d   1     -59.019 -98.758 -43.443  0.00  0.00     0.086 A 
ATOM      8  C   UNL d   1     -58.214 -98.757 -43.260  0.00  0.00     0.273 A 
ATOM      9  O   UNL d   1     -57.958 -98.756 -42.476  0.00  0.00    -0.266 OA
BRANCH   4  10
ATOM     10  C   UNL d   1     -58.973 -98.759 -45.621  0.00  0.00     0.011 C 
ATOM     11  C   UNL d   1     -59.775 -98.854 -45.794  0.00  0.00     0.001 C 
ENDBRANCH   4  10
BRANCH   7  12
ATOM     12  C   UNL d   1     -59.573 -98.757 -42.831  0.00  0.00     0.011 C 
ATOM     13  C   UNL d   1     -59.900 -99.470 -42.570  0.00  0.00     0.001 C 
ENDBRANCH   7  12
ENDBRANCH   1   2
BRANCH   1  14
ATOM     14  C   UNL d   1     -56.417 -99.458 -43.762  0.00  0.00     0.297 C 
ATOM     15  N   UNL d   1     -56.338 -99.828 -44.486  0.00  0.00    -0.207 NA
ATOM     16  O   UNL d   1     -56.072 -99.777 -43.082  0.00  0.00    -0.264 OA
BRANCH  15  17
ATOM     17  C   UNL d   1     -55.908-100.530 -44.540  0.00  0.00     0.087 A 
ATOM     18  C   UNL d   1     -55.990-101.011 -45.203  0.00  0.00     0.045 A 
ATOM     19  C   UNL d   1     -55.568-101.710 -45.267  0.00  0.00     0.121 A 
ATOM     20  O   UNL d   1     -55.536-102.294 -45.855  0.00  0.00    -0.299 OA
ATOM     21  C   UNL d   1     -55.055-101.936 -44.661  0.00  0.00     0.119 A 
ATOM     22  C   UNL d   1     -55.001-102.878 -45.604  0.00  0.00     0.304 A 
ATOM     23  O   UNL d   1     -54.712-102.648 -44.871  0.00  0.00    -0.300 OA
ATOM     24  C   UNL d   1     -54.978-101.446 -43.995  0.00  0.00     0.028 A 
ATOM     25  C   UNL d   1     -55.402-100.748 -43.935  0.00  0.00     0.021 A 
ENDBRANCH  15  17
ENDBRANCH   1  14
TORSDOF 5
ENDMDL
