MODEL 1
REMARK VINA RESULT:      -1.1      0.000      0.000
REMARK  4 active torsions:
REMARK  status: ('A' for Active; 'I' for Inactive)
REMARK    1  A    between atoms: C_11  and  N_3 
REMARK    2  A    between atoms: C_10  and  C_5 
REMARK    3  A    between atoms: C_21  and  C_11 
REMARK    4  A    between atoms: N_12  and  C_21 
ROOT
ATOM      1  C   UNL d   1      57.965  -0.696  31.106  0.00  0.00     0.085 A 
ATOM      2  C   UNL d   1      57.441  -1.328  30.951  0.00  0.00     0.161 A 
ATOM      3  N   UNL d   1      58.451  -1.391  30.073  0.00  0.00    -0.268 N 
ATOM      4  C   UNL d   1      57.744  -1.753  30.314  0.00  0.00     0.288 A 
ATOM      5  C   UNL d   1      58.584  -0.740  30.563  0.00  0.00     0.095 A 
ATOM      6  C   UNL d   1      57.800  -0.167  31.727  0.00  0.00     0.201 A 
ATOM      7  O   UNL d   1      56.764  -1.423  31.413  0.00  0.00    -0.302 OA
ATOM      8  C   UNL d   1      57.118  -0.274  32.184  0.00  0.00     0.063 A 
ATOM      9  C   UNL d   1      56.596  -0.902  32.029  0.00  0.00     0.103 A 
ATOM     10  O   UNL d   1      57.404  -2.426  29.971  0.00  0.00    -0.264 OA
ATOM     11  O   UNL d   1      58.315   0.457  31.884  0.00  0.00    -0.286 OA
ATOM     12  C   UNL d   1      56.958   0.253  32.798  0.00  0.00     0.017 A 
ATOM     13  C   UNL d   1      55.925  -0.991  32.493  0.00  0.00     0.026 A 
ATOM     14  C   UNL d   1      56.283   0.156  33.257  0.00  0.00     0.058 A 
ATOM     15  C   UNL d   1      55.767  -0.466  33.104  0.00  0.00     0.013 A 
ATOM     16 CL   UNL d   1      56.126   0.682  33.869  0.00  0.00    -0.082 Cl
ENDROOT
BRANCH   3  17
ATOM     17  C   UNL d   1      58.933  -1.639  29.453  0.00  0.00     0.102 C 
BRANCH  17  18
ATOM     18  C   UNL d   1      58.923  -2.425  29.202  0.00  0.00     0.100 C 
BRANCH  18  19
ATOM     19  N   UNL d   1      59.615  -2.794  28.952  0.00  0.00    -0.298 N 
ATOM     20  C   UNL d   1      60.292  -2.350  28.845  0.00  0.00     0.107 A 
ATOM     21  C   UNL d   1      60.984  -2.719  28.595  0.00  0.00     0.142 A 
ATOM     22  O   UNL d   1      60.992  -3.528  28.455  0.00  0.00    -0.300 OA
ATOM     23  C   UNL d   1      60.307  -3.968  28.565  0.00  0.00     0.142 A 
ATOM     24  C   UNL d   1      59.615  -3.600  28.815  0.00  0.00     0.107 A 
ENDBRANCH  18  19
ENDBRANCH  17  18
ENDBRANCH   3  17
BRANCH   5  25
ATOM     25  C   UNL d   1      59.210  -0.201  30.550  0.00  0.00     0.116 A 
ATOM     26  O   UNL d   1      59.667   0.043  31.201  0.00  0.00    -0.304 OA
ATOM     27  C   UNL d   1      60.228   0.585  30.933  0.00  0.00     0.123 A 
ATOM     28  C   UNL d   1      60.127   0.682  30.119  0.00  0.00     0.029 A 
ATOM     29  C   UNL d   1      59.497   0.196  29.881  0.00  0.00     0.028 A 
ENDBRANCH   5  25
TORSDOF 4
ENDMDL
MODEL 2
REMARK VINA RESULT:      -0.4      1.868      2.623
REMARK  4 active torsions:
REMARK  status: ('A' for Active; 'I' for Inactive)
REMARK    1  A    between atoms: C_11  and  N_3 
REMARK    2  A    between atoms: C_10  and  C_5 
REMARK    3  A    between atoms: C_21  and  C_11 
REMARK    4  A    between atoms: N_12  and  C_21 
ROOT
ATOM      1  C   UNL d   1      57.087   0.613  32.669  0.00  0.00     0.085 A 
ATOM      2  C   UNL d   1      56.423   0.585  32.161  0.00  0.00     0.161 A 
ATOM      3  N   UNL d   1      57.533   0.587  31.408  0.00  0.00    -0.268 N 
ATOM      4  C   UNL d   1      56.703   0.569  31.386  0.00  0.00     0.288 A 
ATOM      5  C   UNL d   1      57.766   0.614  32.199  0.00  0.00     0.095 A 
ATOM      6  C   UNL d   1      56.974   0.634  33.492  0.00  0.00     0.201 A 
ATOM      7  O   UNL d   1      55.662   0.578  32.479  0.00  0.00    -0.302 OA
ATOM      8  C   UNL d   1      56.205   0.627  33.799  0.00  0.00     0.063 A 
ATOM      9  C   UNL d   1      55.545   0.599  33.295  0.00  0.00     0.103 A 
ATOM     10  O   UNL d   1      56.238   0.540  30.701  0.00  0.00    -0.264 OA
ATOM     11  O   UNL d   1      57.625   0.662  33.997  0.00  0.00    -0.286 OA
ATOM     12  C   UNL d   1      56.098   0.647  34.617  0.00  0.00     0.017 A 
ATOM     13  C   UNL d   1      54.791   0.592  33.618  0.00  0.00     0.026 A 
ATOM     14  C   UNL d   1      55.339   0.640  34.932  0.00  0.00     0.058 A 
ATOM     15  C   UNL d   1      54.685   0.613  34.432  0.00  0.00     0.013 A 
ATOM     16 CL   UNL d   1      55.234   0.661  35.746  0.00  0.00    -0.082 Cl
ENDROOT
BRANCH   3  17
ATOM     17  C   UNL d   1      58.033   0.579  30.755  0.00  0.00     0.102 C 
BRANCH  17  18
ATOM     18  C   UNL d   1      57.795   0.225  30.048  0.00  0.00     0.100 C 
BRANCH  18  19
ATOM     19  N   UNL d   1      58.352  -0.076  29.522  0.00  0.00    -0.298 N 
ATOM     20  C   UNL d   1      58.480  -0.882  29.490  0.00  0.00     0.107 A 
ATOM     21  C   UNL d   1      59.037  -1.184  28.964  0.00  0.00     0.142 A 
ATOM     22  O   UNL d   1      59.460  -0.677  28.476  0.00  0.00    -0.300 OA
ATOM     23  C   UNL d   1      59.325   0.133  28.514  0.00  0.00     0.142 A 
ATOM     24  C   UNL d   1      58.769   0.435  29.040  0.00  0.00     0.107 A 
ENDBRANCH  18  19
ENDBRANCH  17  18
ENDBRANCH   3  17
BRANCH   5  25
ATOM     25  C   UNL d   1      58.529   0.639  32.515  0.00  0.00     0.116 A 
ATOM     26  O   UNL d   1      58.732   0.647  33.321  0.00  0.00    -0.304 OA
ATOM     27  C   UNL d   1      59.554   0.673  33.379  0.00  0.00     0.123 A 
ATOM     28  C   UNL d   1      59.868   0.681  32.616  0.00  0.00     0.029 A 
ATOM     29  C   UNL d   1      59.235   0.660  32.079  0.00  0.00     0.028 A 
ENDBRANCH   5  25
TORSDOF 4
ENDMDL
