MODEL 1
REMARK VINA RESULT:      -0.1      0.000      0.000
REMARK  3 active torsions:
REMARK  status: ('A' for Active; 'I' for Inactive)
REMARK    1  A    between atoms: N_4  and  C_2 
REMARK    2  A    between atoms: C_12  and  C_10 
REMARK    3  A    between atoms: C_19  and  C_11 
ROOT
ATOM      1  C   UNL d   1      33.088  21.129 -22.437  0.00  0.00     0.152 A 
ATOM      2  C   UNL d   1      33.039  21.741 -21.916  0.00  0.00     0.174 A 
ATOM      3  C   UNL d   1      33.190  21.282 -23.244  0.00  0.00     0.111 A 
ATOM      4  O   UNL d   1      33.038  20.341 -22.169  0.00  0.00    -0.302 OA
ATOM      5  N   UNL d   1      33.088  22.514 -22.174  0.00  0.00    -0.207 NA
ATOM      6  C   UNL d   1      33.190  19.872 -23.513  0.00  0.00     0.043 A 
ATOM      7  N   UNL d   1      33.240  22.046 -23.518  0.00  0.00    -0.225 NA
ATOM      8  C   UNL d   1      33.090  19.720 -22.714  0.00  0.00     0.102 A 
ATOM      9  C   UNL d   1      33.189  22.668 -22.981  0.00  0.00     0.164 A 
ATOM     10  C   UNL d   1      33.241  19.250 -24.049  0.00  0.00     0.004 A 
ATOM     11  C   UNL d   1      33.040  18.940 -22.448  0.00  0.00     0.025 A 
ATOM     12  C   UNL d   1      33.191  18.471 -23.788  0.00  0.00     0.000 A 
ATOM     13  C   UNL d   1      33.090  18.309 -22.982  0.00  0.00     0.002 A 
ENDROOT
BRANCH   2  14
ATOM     14  N   UNL d   1      32.939  21.590 -21.117  0.00  0.00    -0.284 N 
ATOM     15  C   UNL d   1      32.529  22.049 -20.582  0.00  0.00     0.130 A 
ATOM     16  C   UNL d   1      32.570  21.692 -19.849  0.00  0.00     0.025 A 
ATOM     17  C   UNL d   1      33.009  21.004 -19.924  0.00  0.00     0.021 A 
ATOM     18  C   UNL d   1      33.241  20.936 -20.712  0.00  0.00     0.082 A 
BRANCH  15  19
ATOM     19  C   UNL d   1      32.124  22.781 -20.758  0.00  0.00     0.228 C 
ATOM     20  O   UNL d   1      32.532  23.520 -20.676  0.00  0.00    -0.643 OA
ATOM     21  O   UNL d   1      31.316  22.766 -21.014  0.00  0.00    -0.643 OA
ENDBRANCH  15  19
ENDBRANCH   2  14
BRANCH   9  22
ATOM     22  C   UNL d   1      33.241  23.479 -23.254  0.00  0.00     0.039 C 
ATOM     23  C   UNL d   1      33.216  23.647 -24.082  0.00  0.00     0.003 C 
ENDBRANCH   9  22
TORSDOF 3
ENDMDL
MODEL 2
REMARK VINA RESULT:      -0.1      4.252      5.788
REMARK  3 active torsions:
REMARK  status: ('A' for Active; 'I' for Inactive)
REMARK    1  A    between atoms: N_4  and  C_2 
REMARK    2  A    between atoms: C_12  and  C_10 
REMARK    3  A    between atoms: C_19  and  C_11 
ROOT
ATOM      1  C   UNL d   1      31.591  17.447 -24.565  0.00  0.00     0.152 A 
ATOM      2  C   UNL d   1      31.514  16.657 -24.425  0.00  0.00     0.174 A 
ATOM      3  C   UNL d   1      30.916  17.924 -24.611  0.00  0.00     0.111 A 
ATOM      4  O   UNL d   1      32.346  17.786 -24.665  0.00  0.00    -0.302 OA
ATOM      5  N   UNL d   1      30.777  16.320 -24.326  0.00  0.00    -0.207 NA
ATOM      6  C   UNL d   1      31.745  19.071 -24.854  0.00  0.00     0.043 A 
ATOM      7  N   UNL d   1      30.175  17.605 -24.515  0.00  0.00    -0.225 NA
ATOM      8  C   UNL d   1      32.412  18.599 -24.809  0.00  0.00     0.102 A 
ATOM      9  C   UNL d   1      30.102  16.798 -24.371  0.00  0.00     0.164 A 
ATOM     10  C   UNL d   1      31.818  19.878 -24.998  0.00  0.00     0.004 A 
ATOM     11  C   UNL d   1      33.160  18.934 -24.908  0.00  0.00     0.025 A 
ATOM     12  C   UNL d   1      32.561  20.217 -25.097  0.00  0.00     0.000 A 
ATOM     13  C   UNL d   1      33.241  19.746 -25.053  0.00  0.00     0.002 A 
ENDROOT
BRANCH   2  14
ATOM     14  N   UNL d   1      32.182  16.184 -24.380  0.00  0.00    -0.284 N 
ATOM     15  C   UNL d   1      32.532  15.899 -23.700  0.00  0.00     0.130 A 
ATOM     16  C   UNL d   1      33.182  15.453 -23.910  0.00  0.00     0.025 A 
ATOM     17  C   UNL d   1      33.241  15.458 -24.728  0.00  0.00     0.021 A 
ATOM     18  C   UNL d   1      32.620  15.912 -25.025  0.00  0.00     0.082 A 
BRANCH  15  19
ATOM     19  C   UNL d   1      32.263  16.043 -22.901  0.00  0.00     0.228 C 
ATOM     20  O   UNL d   1      32.600  16.676 -22.449  0.00  0.00    -0.643 OA
ATOM     21  O   UNL d   1      31.661  15.551 -22.563  0.00  0.00    -0.643 OA
ENDBRANCH  15  19
ENDBRANCH   2  14
BRANCH   9  22
ATOM     22  C   UNL d   1      29.327  16.446 -24.268  0.00  0.00     0.039 C 
ATOM     23  C   UNL d   1      28.704  16.896 -23.916  0.00  0.00     0.003 C 
ENDBRANCH   9  22
TORSDOF 3
ENDMDL
MODEL 3
REMARK VINA RESULT:       1.1      0.692      2.420
REMARK  3 active torsions:
REMARK  status: ('A' for Active; 'I' for Inactive)
REMARK    1  A    between atoms: N_4  and  C_2 
REMARK    2  A    between atoms: C_12  and  C_10 
REMARK    3  A    between atoms: C_19  and  C_11 
ROOT
ATOM      1  C   UNL d   1      32.983  21.115 -21.802  0.00  0.00     0.152 A 
ATOM      2  C   UNL d   1      32.977  21.893 -21.593  0.00  0.00     0.174 A 
ATOM      3  C   UNL d   1      33.074  20.533 -21.220  0.00  0.00     0.111 A 
ATOM      4  O   UNL d   1      32.897  20.891 -22.601  0.00  0.00    -0.302 OA
ATOM      5  N   UNL d   1      33.061  22.117 -20.813  0.00  0.00    -0.207 NA
ATOM      6  C   UNL d   1      32.995  19.513 -22.227  0.00  0.00     0.043 A 
ATOM      7  N   UNL d   1      33.159  20.739 -20.438  0.00  0.00    -0.225 NA
ATOM      8  C   UNL d   1      32.904  20.088 -22.803  0.00  0.00     0.102 A 
ATOM      9  C   UNL d   1      33.152  21.535 -20.231  0.00  0.00     0.164 A 
ATOM     10  C   UNL d   1      33.001  18.717 -22.434  0.00  0.00     0.004 A 
ATOM     11  C   UNL d   1      32.819  19.867 -23.593  0.00  0.00     0.025 A 
ATOM     12  C   UNL d   1      32.917  18.492 -23.221  0.00  0.00     0.000 A 
ATOM     13  C   UNL d   1      32.825  19.068 -23.810  0.00  0.00     0.002 A 
ENDROOT
BRANCH   2  14
ATOM     14  N   UNL d   1      32.886  22.469 -22.169  0.00  0.00    -0.284 N 
ATOM     15  C   UNL d   1      32.436  23.147 -22.113  0.00  0.00     0.130 A 
ATOM     16  C   UNL d   1      32.504  23.562 -22.813  0.00  0.00     0.025 A 
ATOM     17  C   UNL d   1      33.000  23.141 -23.312  0.00  0.00     0.021 A 
ATOM     18  C   UNL d   1      33.241  22.460 -22.915  0.00  0.00     0.082 A 
BRANCH  15  19
ATOM     19  C   UNL d   1      31.971  23.384 -21.436  0.00  0.00     0.228 C 
ATOM     20  O   UNL d   1      31.124  23.378 -21.481  0.00  0.00    -0.643 OA
ATOM     21  O   UNL d   1      32.358  23.625 -20.721  0.00  0.00    -0.643 OA
ENDBRANCH  15  19
ENDBRANCH   2  14
BRANCH   9  22
ATOM     22  C   UNL d   1      33.241  21.768 -19.410  0.00  0.00     0.039 C 
ATOM     23  C   UNL d   1      33.099  21.206 -18.795  0.00  0.00     0.003 C 
ENDBRANCH   9  22
TORSDOF 3
ENDMDL
