MODEL 1
REMARK VINA RESULT:      -2.6      0.000      0.000
REMARK  5 active torsions:
REMARK  status: ('A' for Active; 'I' for Inactive)
REMARK    1  A    between atoms: N_6  and  C_1 
REMARK    2  A    between atoms: C_10  and  C_2 
REMARK       I    between atoms: C_9  and  N_6 
REMARK    3  A    between atoms: C_14  and  C_9 
REMARK    4  A    between atoms: C_13  and  C_15 
REMARK    5  A    between atoms: C_19  and  C_13 
ROOT
ATOM      1  N   UNL d   1      56.826   0.470  32.567  0.00  0.00    -0.201 NA
ATOM      2  C   UNL d   1      56.628  -0.026  31.938  0.00  0.00     0.280 C 
ATOM      3  O   UNL d   1      55.945  -0.482  31.967  0.00  0.00    -0.265 OA
ENDROOT
BRANCH   1   4
ATOM      4  C   UNL d   1      56.335   0.511  33.233  0.00  0.00     0.118 A 
ATOM      5  C   UNL d   1      56.582   0.553  34.019  0.00  0.00     0.083 A 
ATOM      6  C   UNL d   1      55.910   0.584  34.489  0.00  0.00     0.008 A 
ATOM      7  C   UNL d   1      55.823   0.631  35.311  0.00  0.00    -0.004 A 
ATOM      8  C   UNL d   1      55.253   0.561  34.007  0.00  0.00     0.028 A 
ATOM      9  C   UNL d   1      55.064   0.654  35.638  0.00  0.00     0.099 A 
ATOM     10  C   UNL d   1      55.731   0.677  36.128  0.00  0.00     0.029 C 
ATOM     11  C   UNL d   1      54.310   0.678  35.971  0.00  0.00     0.029 C 
ATOM     12  N   UNL d   1      54.397   0.631  35.149  0.00  0.00    -0.294 NA
ATOM     13  C   UNL d   1      54.490   0.585  34.333  0.00  0.00     0.104 A 
ATOM     14  C   UNL d   1      53.673   0.598  34.463  0.00  0.00     0.029 C 
ATOM     15  C   UNL d   1      54.368   0.540  33.518  0.00  0.00     0.029 C 
ATOM     16  S   UNL d   1      55.510   0.516  33.221  0.00  0.00    -0.070 SA
BRANCH   5  17
ATOM     17  C   UNL d   1      57.361   0.562  34.270  0.00  0.00     0.299 C 
ATOM     18  O   UNL d   1      57.965   0.497  33.708  0.00  0.00    -0.264 OA
ATOM     19  N   UNL d   1      57.546   0.635  35.072  0.00  0.00    -0.102 N 
ENDBRANCH   5  17
ENDBRANCH   1   4
BRANCH   2  20
ATOM     20  C   UNL d   1      57.110  -0.066  31.282  0.00  0.00     0.058 A 
ATOM     21  C   UNL d   1      57.325   0.624  30.883  0.00  0.00     0.005 A 
ATOM     22  C   UNL d   1      57.815   0.584  30.217  0.00  0.00     0.003 A 
ATOM     23  C   UNL d   1      58.090  -0.147  29.951  0.00  0.00     0.039 A 
ATOM     24  C   UNL d   1      57.875  -0.825  30.348  0.00  0.00     0.003 A 
ATOM     25  C   UNL d   1      57.385  -0.784  31.014  0.00  0.00     0.005 A 
BRANCH  23  26
ATOM     26  C   UNL d   1      58.577  -0.183  29.288  0.00  0.00     0.196 C 
ATOM     27  O   UNL d   1      58.252  -0.154  28.538  0.00  0.00    -0.287 OA
BRANCH  26  28
ATOM     28  C   UNL d   1      59.391  -0.249  29.382  0.00  0.00     0.039 A 
ATOM     29  C   UNL d   1      59.873   0.409  29.324  0.00  0.00     0.003 A 
ATOM     30  C   UNL d   1      60.687   0.344  29.418  0.00  0.00     0.000 A 
ATOM     31  C   UNL d   1      61.021  -0.397  29.574  0.00  0.00     0.000 A 
ATOM     32  C   UNL d   1      60.538  -1.065  29.633  0.00  0.00     0.000 A 
ATOM     33  C   UNL d   1      59.725  -0.989  29.537  0.00  0.00     0.003 A 
ENDBRANCH  26  28
ENDBRANCH  23  26
ENDBRANCH   2  20
TORSDOF 5
ENDMDL
MODEL 2
REMARK VINA RESULT:      -0.5      1.818      6.152
REMARK  5 active torsions:
REMARK  status: ('A' for Active; 'I' for Inactive)
REMARK    1  A    between atoms: N_6  and  C_1 
REMARK    2  A    between atoms: C_10  and  C_2 
REMARK       I    between atoms: C_9  and  N_6 
REMARK    3  A    between atoms: C_14  and  C_9 
REMARK    4  A    between atoms: C_13  and  C_15 
REMARK    5  A    between atoms: C_19  and  C_13 
ROOT
ATOM      1  N   UNL d   1      57.308  -0.726  30.944  0.00  0.00    -0.201 NA
ATOM      2  C   UNL d   1      57.390  -0.753  31.764  0.00  0.00     0.280 C 
ATOM      3  O   UNL d   1      58.063  -1.079  32.105  0.00  0.00    -0.265 OA
ENDROOT
BRANCH   1   4
ATOM      4  C   UNL d   1      57.905  -1.030  30.457  0.00  0.00     0.118 A 
ATOM      5  C   UNL d   1      58.408  -0.593  29.970  0.00  0.00     0.083 A 
ATOM      6  C   UNL d   1      58.909  -1.122  29.592  0.00  0.00     0.008 A 
ATOM      7  C   UNL d   1      59.518  -0.997  29.046  0.00  0.00    -0.004 A 
ATOM      8  C   UNL d   1      58.725  -1.877  29.837  0.00  0.00     0.028 A 
ATOM      9  C   UNL d   1      59.939  -1.646  28.752  0.00  0.00     0.099 A 
ATOM     10  C   UNL d   1      60.126  -0.879  28.503  0.00  0.00     0.029 C 
ATOM     11  C   UNL d   1      60.362  -2.288  28.455  0.00  0.00     0.029 C 
ATOM     12  N   UNL d   1      59.752  -2.413  29.001  0.00  0.00    -0.294 NA
ATOM     13  C   UNL d   1      59.145  -2.530  29.544  0.00  0.00     0.104 A 
ATOM     14  C   UNL d   1      59.438  -3.284  29.373  0.00  0.00     0.029 C 
ATOM     15  C   UNL d   1      58.592  -2.854  30.063  0.00  0.00     0.029 C 
ATOM     16  S   UNL d   1      58.099  -1.829  30.377  0.00  0.00    -0.070 SA
BRANCH   5  17
ATOM     17  C   UNL d   1      58.396   0.222  29.888  0.00  0.00     0.299 C 
ATOM     18  O   UNL d   1      58.918   0.678  30.341  0.00  0.00    -0.264 OA
ATOM     19  N   UNL d   1      57.873   0.586  29.363  0.00  0.00    -0.102 N 
ENDBRANCH   5  17
ENDBRANCH   1   4
BRANCH   2  20
ATOM     20  C   UNL d   1      56.803  -0.454  32.243  0.00  0.00     0.058 A 
ATOM     21  C   UNL d   1      56.048  -0.788  32.230  0.00  0.00     0.005 A 
ATOM     22  C   UNL d   1      55.451  -0.484  32.717  0.00  0.00     0.003 A 
ATOM     23  C   UNL d   1      55.609   0.153  33.216  0.00  0.00     0.039 A 
ATOM     24  C   UNL d   1      56.356   0.479  33.226  0.00  0.00     0.003 A 
ATOM     25  C   UNL d   1      56.953   0.175  32.739  0.00  0.00     0.005 A 
BRANCH  23  26
ATOM     26  C   UNL d   1      55.013   0.452  33.699  0.00  0.00     0.196 C 
ATOM     27  O   UNL d   1      54.295   0.673  33.375  0.00  0.00    -0.287 OA
BRANCH  26  28
ATOM     28  C   UNL d   1      55.141   0.528  34.508  0.00  0.00     0.039 A 
ATOM     29  C   UNL d   1      55.899   0.536  34.812  0.00  0.00     0.003 A 
ATOM     30  C   UNL d   1      56.027   0.612  35.620  0.00  0.00     0.000 A 
ATOM     31  C   UNL d   1      55.380   0.680  36.130  0.00  0.00     0.000 A 
ATOM     32  C   UNL d   1      54.612   0.673  35.828  0.00  0.00     0.000 A 
ATOM     33  C   UNL d   1      54.494   0.597  35.018  0.00  0.00     0.003 A 
ENDBRANCH  26  28
ENDBRANCH  23  26
ENDBRANCH   2  20
TORSDOF 5
ENDMDL
