MODEL 1
REMARK VINA RESULT:      -3.0      0.000      0.000
REMARK  2 active torsions:
REMARK  status: ('A' for Active; 'I' for Inactive)
REMARK    1  A    between atoms: C_6  and  C_1 
REMARK    2  A    between atoms: O_12  and  C_9 
ROOT
ATOM      1  C   UNL d   1      32.963  20.093 -22.210  0.00  0.00     0.162 A 
ATOM      2  N   UNL d   1      33.107  19.326 -21.869  0.00  0.00    -0.225 NA
ATOM      3  N   UNL d   1      32.902  19.988 -23.026  0.00  0.00    -0.225 NA
ATOM      4  C   UNL d   1      33.129  18.790 -22.469  0.00  0.00     0.101 A 
ATOM      5  C   UNL d   1      32.999  19.209 -23.202  0.00  0.00     0.101 A 
ATOM      6  C   UNL d   1      33.241  17.975 -22.537  0.00  0.00     0.021 A 
ATOM      7  C   UNL d   1      32.992  18.797 -23.917  0.00  0.00     0.021 A 
ATOM      8  C   UNL d   1      33.108  18.004 -23.911  0.00  0.00     0.002 A 
ATOM      9  C   UNL d   1      33.233  17.599 -23.202  0.00  0.00     0.002 A 
ENDROOT
BRANCH   1  10
ATOM     10  C   UNL d   1      32.899  20.802 -21.793  0.00  0.00     0.036 A 
ATOM     11  C   UNL d   1      33.241  21.490 -22.093  0.00  0.00     0.005 A 
ATOM     12  C   UNL d   1      33.177  22.199 -21.676  0.00  0.00     0.024 A 
ATOM     13  C   UNL d   1      32.770  22.220 -20.959  0.00  0.00     0.094 A 
ATOM     14  C   UNL d   1      32.425  21.531 -20.655  0.00  0.00     0.024 A 
ATOM     15  C   UNL d   1      32.489  20.822 -21.072  0.00  0.00     0.005 A 
BRANCH  13  16
ATOM     16  O   UNL d   1      32.706  22.929 -20.543  0.00  0.00    -0.328 OA
ATOM     17  C   UNL d   1      32.532  23.335 -19.845  0.00  0.00     0.181 C 
ENDBRANCH  13  16
ENDBRANCH   1  10
TORSDOF 2
ENDMDL
MODEL 2
REMARK VINA RESULT:      -3.0      1.692      4.139
REMARK  2 active torsions:
REMARK  status: ('A' for Active; 'I' for Inactive)
REMARK    1  A    between atoms: C_6  and  C_1 
REMARK    2  A    between atoms: O_12  and  C_9 
ROOT
ATOM      1  C   UNL d   1      32.939  20.180 -22.184  0.00  0.00     0.162 A 
ATOM      2  N   UNL d   1      32.565  20.335 -21.436  0.00  0.00    -0.225 NA
ATOM      3  N   UNL d   1      33.241  20.898 -22.457  0.00  0.00    -0.225 NA
ATOM      4  C   UNL d   1      32.646  21.120 -21.277  0.00  0.00     0.101 A 
ATOM      5  C   UNL d   1      33.074  21.477 -21.924  0.00  0.00     0.101 A 
ATOM      6  C   UNL d   1      32.424  21.632 -20.668  0.00  0.00     0.021 A 
ATOM      7  C   UNL d   1      33.240  22.285 -21.913  0.00  0.00     0.021 A 
ATOM      8  C   UNL d   1      32.994  22.724 -21.289  0.00  0.00     0.002 A 
ATOM      9  C   UNL d   1      32.580  22.379 -20.663  0.00  0.00     0.002 A 
ENDROOT
BRANCH   1  10
ATOM     10  C   UNL d   1      32.986  19.446 -22.558  0.00  0.00     0.036 A 
ATOM     11  C   UNL d   1      33.194  18.775 -22.126  0.00  0.00     0.005 A 
ATOM     12  C   UNL d   1      33.241  18.041 -22.500  0.00  0.00     0.024 A 
ATOM     13  C   UNL d   1      33.081  17.978 -23.306  0.00  0.00     0.094 A 
ATOM     14  C   UNL d   1      32.872  18.651 -23.743  0.00  0.00     0.024 A 
ATOM     15  C   UNL d   1      32.825  19.385 -23.369  0.00  0.00     0.005 A 
BRANCH  13  16
ATOM     16  O   UNL d   1      33.128  17.245 -23.680  0.00  0.00    -0.328 OA
ATOM     17  C   UNL d   1      32.792  16.513 -23.864  0.00  0.00     0.181 C 
ENDBRANCH  13  16
ENDBRANCH   1  10
TORSDOF 2
ENDMDL
MODEL 3
REMARK VINA RESULT:      -2.9      1.672      4.149
REMARK  2 active torsions:
REMARK  status: ('A' for Active; 'I' for Inactive)
REMARK    1  A    between atoms: C_6  and  C_1 
REMARK    2  A    between atoms: O_12  and  C_9 
ROOT
ATOM      1  C   UNL d   1      32.915  20.543 -22.117  0.00  0.00     0.162 A 
ATOM      2  N   UNL d   1      33.240  21.288 -22.371  0.00  0.00    -0.225 NA
ATOM      3  N   UNL d   1      32.509  20.684 -21.413  0.00  0.00    -0.225 NA
ATOM      4  C   UNL d   1      33.030  21.846 -21.830  0.00  0.00     0.101 A 
ATOM      5  C   UNL d   1      32.566  21.463 -21.222  0.00  0.00     0.101 A 
ATOM      6  C   UNL d   1      33.151  22.657 -21.731  0.00  0.00     0.021 A 
ATOM      7  C   UNL d   1      32.272  21.902 -20.590  0.00  0.00     0.021 A 
ATOM      8  C   UNL d   1      32.428  22.688 -20.556  0.00  0.00     0.002 A 
ATOM      9  C   UNL d   1      32.876  23.058 -21.143  0.00  0.00     0.002 A 
ENDROOT
BRANCH   1  10
ATOM     10  C   UNL d   1      32.997  19.822 -22.510  0.00  0.00     0.036 A 
ATOM     11  C   UNL d   1      32.916  19.787 -23.330  0.00  0.00     0.005 A 
ATOM     12  C   UNL d   1      32.997  19.066 -23.722  0.00  0.00     0.024 A 
ATOM     13  C   UNL d   1      33.159  18.380 -23.295  0.00  0.00     0.094 A 
ATOM     14  C   UNL d   1      33.241  18.412 -22.471  0.00  0.00     0.024 A 
ATOM     15  C   UNL d   1      33.159  19.133 -22.078  0.00  0.00     0.005 A 
BRANCH  13  16
ATOM     16  O   UNL d   1      33.241  17.659 -23.687  0.00  0.00    -0.328 OA
ATOM     17  C   UNL d   1      32.909  17.038 -24.118  0.00  0.00     0.181 C 
ENDBRANCH  13  16
ENDBRANCH   1  10
TORSDOF 2
ENDMDL
MODEL 4
REMARK VINA RESULT:      -2.9      3.004      5.126
REMARK  2 active torsions:
REMARK  status: ('A' for Active; 'I' for Inactive)
REMARK    1  A    between atoms: C_6  and  C_1 
REMARK    2  A    between atoms: O_12  and  C_9 
ROOT
ATOM      1  C   UNL d   1      32.691  22.909 -19.451  0.00  0.00     0.162 A 
ATOM      2  N   UNL d   1      33.241  22.674 -18.845  0.00  0.00    -0.225 NA
ATOM      3  N   UNL d   1      32.084  23.326 -19.079  0.00  0.00    -0.225 NA
ATOM      4  C   UNL d   1      32.962  22.947 -18.140  0.00  0.00     0.101 A 
ATOM      5  C   UNL d   1      32.229  23.360 -18.288  0.00  0.00     0.101 A 
ATOM      6  C   UNL d   1      33.206  22.921 -17.351  0.00  0.00     0.021 A 
ATOM      7  C   UNL d   1      31.814  23.701 -17.663  0.00  0.00     0.021 A 
ATOM      8  C   UNL d   1      32.109  23.639 -16.920  0.00  0.00     0.002 A 
ATOM      9  C   UNL d   1      32.817  23.239 -16.776  0.00  0.00     0.002 A 
ENDROOT
BRANCH   1  10
ATOM     10  C   UNL d   1      32.762  22.745 -20.256  0.00  0.00     0.036 A 
ATOM     11  C   UNL d   1      33.090  23.306 -20.764  0.00  0.00     0.005 A 
ATOM     12  C   UNL d   1      33.161  23.142 -21.570  0.00  0.00     0.024 A 
ATOM     13  C   UNL d   1      32.903  22.417 -21.867  0.00  0.00     0.094 A 
ATOM     14  C   UNL d   1      32.573  21.852 -21.359  0.00  0.00     0.024 A 
ATOM     15  C   UNL d   1      32.502  22.016 -20.553  0.00  0.00     0.005 A 
BRANCH  13  16
ATOM     16  O   UNL d   1      32.974  22.253 -22.672  0.00  0.00    -0.328 OA
ATOM     17  C   UNL d   1      33.181  22.492 -23.435  0.00  0.00     0.181 C 
ENDBRANCH  13  16
ENDBRANCH   1  10
TORSDOF 2
ENDMDL
MODEL 5
REMARK VINA RESULT:      -2.8      1.642      4.192
REMARK  2 active torsions:
REMARK  status: ('A' for Active; 'I' for Inactive)
REMARK    1  A    between atoms: C_6  and  C_1 
REMARK    2  A    between atoms: O_12  and  C_9 
ROOT
ATOM      1  C   UNL d   1      32.753  21.290 -21.327  0.00  0.00     0.162 A 
ATOM      2  N   UNL d   1      33.048  21.462 -20.548  0.00  0.00    -0.225 NA
ATOM      3  N   UNL d   1      32.327  21.952 -21.576  0.00  0.00    -0.225 NA
ATOM      4  C   UNL d   1      32.803  22.202 -20.348  0.00  0.00     0.101 A 
ATOM      5  C   UNL d   1      32.345  22.513 -21.000  0.00  0.00     0.101 A 
ATOM      6  C   UNL d   1      32.884  22.703 -19.697  0.00  0.00     0.021 A 
ATOM      7  C   UNL d   1      32.019  23.268 -20.952  0.00  0.00     0.021 A 
ATOM      8  C   UNL d   1      32.138  23.702 -20.288  0.00  0.00     0.002 A 
ATOM      9  C   UNL d   1      32.580  23.402 -19.658  0.00  0.00     0.002 A 
ENDROOT
BRANCH   1  10
ATOM     10  C   UNL d   1      32.875  20.590 -21.746  0.00  0.00     0.036 A 
ATOM     11  C   UNL d   1      32.780  20.577 -22.566  0.00  0.00     0.005 A 
ATOM     12  C   UNL d   1      32.902  19.877 -22.985  0.00  0.00     0.024 A 
ATOM     13  C   UNL d   1      33.119  19.189 -22.584  0.00  0.00     0.094 A 
ATOM     14  C   UNL d   1      33.215  19.199 -21.761  0.00  0.00     0.024 A 
ATOM     15  C   UNL d   1      33.093  19.899 -21.342  0.00  0.00     0.005 A 
BRANCH  13  16
ATOM     16  O   UNL d   1      33.241  18.489 -23.003  0.00  0.00    -0.328 OA
ATOM     17  C   UNL d   1      33.005  17.723 -23.199  0.00  0.00     0.181 C 
ENDBRANCH  13  16
ENDBRANCH   1  10
TORSDOF 2
ENDMDL
MODEL 6
REMARK VINA RESULT:      -2.6      2.957      4.249
REMARK  2 active torsions:
REMARK  status: ('A' for Active; 'I' for Inactive)
REMARK    1  A    between atoms: C_6  and  C_1 
REMARK    2  A    between atoms: O_12  and  C_9 
ROOT
ATOM      1  C   UNL d   1      32.860  22.980 -19.796  0.00  0.00     0.162 A 
ATOM      2  N   UNL d   1      32.802  23.641 -20.328  0.00  0.00    -0.225 NA
ATOM      3  N   UNL d   1      32.910  22.299 -20.259  0.00  0.00    -0.225 NA
ATOM      4  C   UNL d   1      32.818  23.354 -21.081  0.00  0.00     0.101 A 
ATOM      5  C   UNL d   1      32.887  22.503 -21.037  0.00  0.00     0.101 A 
ATOM      6  C   UNL d   1      32.786  23.672 -21.842  0.00  0.00     0.021 A 
ATOM      7  C   UNL d   1      32.916  22.055 -21.728  0.00  0.00     0.021 A 
ATOM      8  C   UNL d   1      32.880  22.430 -22.437  0.00  0.00     0.002 A 
ATOM      9  C   UNL d   1      32.814  23.252 -22.479  0.00  0.00     0.002 A 
ENDROOT
BRANCH   1  10
ATOM     10  C   UNL d   1      32.864  23.023 -18.972  0.00  0.00     0.036 A 
ATOM     11  C   UNL d   1      33.237  22.435 -18.529  0.00  0.00     0.005 A 
ATOM     12  C   UNL d   1      33.241  22.478 -17.705  0.00  0.00     0.024 A 
ATOM     13  C   UNL d   1      32.872  23.109 -17.324  0.00  0.00     0.094 A 
ATOM     14  C   UNL d   1      32.496  23.701 -17.766  0.00  0.00     0.024 A 
ATOM     15  C   UNL d   1      32.492  23.658 -18.589  0.00  0.00     0.005 A 
BRANCH  13  16
ATOM     16  O   UNL d   1      32.875  23.152 -16.500  0.00  0.00    -0.328 OA
ATOM     17  C   UNL d   1      33.196  22.925 -15.774  0.00  0.00     0.181 C 
ENDBRANCH  13  16
ENDBRANCH   1  10
TORSDOF 2
ENDMDL
MODEL 7
REMARK VINA RESULT:      -2.5      3.962      5.579
REMARK  2 active torsions:
REMARK  status: ('A' for Active; 'I' for Inactive)
REMARK    1  A    between atoms: C_6  and  C_1 
REMARK    2  A    between atoms: O_12  and  C_9 
ROOT
ATOM      1  C   UNL d   1      30.844  17.104 -24.094  0.00  0.00     0.162 A 
ATOM      2  N   UNL d   1      31.432  17.221 -23.490  0.00  0.00    -0.225 NA
ATOM      3  N   UNL d   1      31.118  17.479 -24.775  0.00  0.00    -0.225 NA
ATOM      4  C   UNL d   1      32.032  17.652 -23.811  0.00  0.00     0.101 A 
ATOM      5  C   UNL d   1      31.833  17.815 -24.626  0.00  0.00     0.101 A 
ATOM      6  C   UNL d   1      32.755  17.955 -23.551  0.00  0.00     0.021 A 
ATOM      7  C   UNL d   1      32.350  18.252 -25.097  0.00  0.00     0.021 A 
ATOM      8  C   UNL d   1      33.037  18.517 -24.779  0.00  0.00     0.002 A 
ATOM      9  C   UNL d   1      33.230  18.359 -23.992  0.00  0.00     0.002 A 
ENDROOT
BRANCH   1  10
ATOM     10  C   UNL d   1      30.135  16.691 -24.003  0.00  0.00     0.036 A 
ATOM     11  C   UNL d   1      29.418  17.099 -23.997  0.00  0.00     0.005 A 
ATOM     12  C   UNL d   1      28.709  16.686 -23.907  0.00  0.00     0.024 A 
ATOM     13  C   UNL d   1      28.718  15.866 -23.822  0.00  0.00     0.094 A 
ATOM     14  C   UNL d   1      29.437  15.454 -23.828  0.00  0.00     0.024 A 
ATOM     15  C   UNL d   1      30.145  15.866 -23.919  0.00  0.00     0.005 A 
BRANCH  13  16
ATOM     16  O   UNL d   1      28.009  15.453 -23.732  0.00  0.00    -0.328 OA
ATOM     17  C   UNL d   1      27.189  15.453 -23.635  0.00  0.00     0.181 C 
ENDBRANCH  13  16
ENDBRANCH   1  10
TORSDOF 2
ENDMDL
MODEL 8
REMARK VINA RESULT:      -2.5      1.367      2.106
REMARK  2 active torsions:
REMARK  status: ('A' for Active; 'I' for Inactive)
REMARK    1  A    between atoms: C_6  and  C_1 
REMARK    2  A    between atoms: O_12  and  C_9 
ROOT
ATOM      1  C   UNL d   1      32.846  18.344 -23.210  0.00  0.00     0.162 A 
ATOM      2  N   UNL d   1      33.240  17.647 -22.922  0.00  0.00    -0.225 NA
ATOM      3  N   UNL d   1      32.355  18.107 -23.829  0.00  0.00    -0.225 NA
ATOM      4  C   UNL d   1      32.986  17.021 -23.361  0.00  0.00     0.101 A 
ATOM      5  C   UNL d   1      32.425  17.313 -23.936  0.00  0.00     0.101 A 
ATOM      6  C   UNL d   1      33.133  16.209 -23.384  0.00  0.00     0.021 A 
ATOM      7  C   UNL d   1      32.070  16.792 -24.467  0.00  0.00     0.021 A 
ATOM      8  C   UNL d   1      32.259  16.013 -24.434  0.00  0.00     0.002 A 
ATOM      9  C   UNL d   1      32.801  15.731 -23.878  0.00  0.00     0.002 A 
ENDROOT
BRANCH   1  10
ATOM     10  C   UNL d   1      32.944  19.109 -22.917  0.00  0.00     0.036 A 
ATOM     11  C   UNL d   1      33.136  19.727 -23.430  0.00  0.00     0.005 A 
ATOM     12  C   UNL d   1      33.234  20.492 -23.137  0.00  0.00     0.024 A 
ATOM     13  C   UNL d   1      33.140  20.639 -22.331  0.00  0.00     0.094 A 
ATOM     14  C   UNL d   1      32.948  20.021 -21.813  0.00  0.00     0.024 A 
ATOM     15  C   UNL d   1      32.850  19.256 -22.106  0.00  0.00     0.005 A 
BRANCH  13  16
ATOM     16  O   UNL d   1      33.238  21.404 -22.038  0.00  0.00    -0.328 OA
ATOM     17  C   UNL d   1      32.914  22.120 -21.785  0.00  0.00     0.181 C 
ENDBRANCH  13  16
ENDBRANCH   1  10
TORSDOF 2
ENDMDL
MODEL 9
REMARK VINA RESULT:      -2.2      1.422      2.453
REMARK  2 active torsions:
REMARK  status: ('A' for Active; 'I' for Inactive)
REMARK    1  A    between atoms: C_6  and  C_1 
REMARK    2  A    between atoms: O_12  and  C_9 
ROOT
ATOM      1  C   UNL d   1      32.911  21.546 -20.680  0.00  0.00     0.162 A 
ATOM      2  N   UNL d   1      32.861  21.771 -21.499  0.00  0.00    -0.225 NA
ATOM      3  N   UNL d   1      33.036  20.730 -20.660  0.00  0.00    -0.225 NA
ATOM      4  C   UNL d   1      32.954  21.106 -21.944  0.00  0.00     0.101 A 
ATOM      5  C   UNL d   1      33.065  20.446 -21.412  0.00  0.00     0.101 A 
ATOM      6  C   UNL d   1      32.967  20.923 -22.749  0.00  0.00     0.021 A 
ATOM      7  C   UNL d   1      33.175  19.687 -21.714  0.00  0.00     0.021 A 
ATOM      8  C   UNL d   1      33.177  19.580 -22.509  0.00  0.00     0.002 A 
ATOM      9  C   UNL d   1      33.070  20.218 -23.023  0.00  0.00     0.002 A 
ENDROOT
BRANCH   1  10
ATOM     10  C   UNL d   1      32.846  22.055 -20.034  0.00  0.00     0.036 A 
ATOM     11  C   UNL d   1      33.241  21.884 -19.331  0.00  0.00     0.005 A 
ATOM     12  C   UNL d   1      33.175  22.393 -18.686  0.00  0.00     0.024 A 
ATOM     13  C   UNL d   1      32.715  23.075 -18.743  0.00  0.00     0.094 A 
ATOM     14  C   UNL d   1      32.316  23.250 -19.449  0.00  0.00     0.024 A 
ATOM     15  C   UNL d   1      32.382  22.740 -20.094  0.00  0.00     0.005 A 
BRANCH  13  16
ATOM     16  O   UNL d   1      32.649  23.584 -18.098  0.00  0.00    -0.328 OA
ATOM     17  C   UNL d   1      32.528  23.702 -17.290  0.00  0.00     0.181 C 
ENDBRANCH  13  16
ENDBRANCH   1  10
TORSDOF 2
ENDMDL
