MODEL 1
REMARK VINA RESULT:      -1.0      0.000      0.000
REMARK  4 active torsions:
REMARK  status: ('A' for Active; 'I' for Inactive)
REMARK    1  A    between atoms: N_9  and  C_3 
REMARK    2  A    between atoms: C_11  and  C_4 
REMARK    3  A    between atoms: C_15  and  C_10 
REMARK    4  A    between atoms: C_20  and  C_15 
ROOT
ATOM      1  N   UNL d   1      32.840  20.515 -22.365  0.00  0.00    -0.196 N 
ATOM      2  C   UNL d   1      32.818  21.288 -22.043  0.00  0.00     0.167 A 
ATOM      3  C   UNL d   1      32.991  20.431 -23.153  0.00  0.00     0.153 A 
ATOM      4  C   UNL d   1      32.668  21.397 -21.257  0.00  0.00     0.057 A 
ATOM      5  N   UNL d   1      32.558  19.989 -21.085  0.00  0.00    -0.161 NA
ATOM      6  N   UNL d   1      32.948  21.933 -22.528  0.00  0.00    -0.227 NA
ATOM      7  C   UNL d   1      33.123  21.070 -23.648  0.00  0.00     0.057 A 
ATOM      8  C   UNL d   1      32.536  20.750 -20.769  0.00  0.00     0.124 A 
ATOM      9  C   UNL d   1      33.102  21.832 -23.331  0.00  0.00     0.086 A 
ENDROOT
BRANCH   3  10
ATOM     10  N   UNL d   1      33.014  19.644 -23.480  0.00  0.00    -0.285 N 
ATOM     11  C   UNL d   1      33.218  19.525 -24.301  0.00  0.00     0.108 A 
ATOM     12  C   UNL d   1      33.238  18.744 -24.617  0.00  0.00     0.142 A 
ATOM     13  O   UNL d   1      33.056  18.071 -24.125  0.00  0.00    -0.300 OA
ATOM     14  C   UNL d   1      32.855  18.203 -23.311  0.00  0.00     0.142 A 
ATOM     15  C   UNL d   1      32.833  18.981 -22.987  0.00  0.00     0.108 A 
ENDBRANCH   3  10
BRANCH   9  16
ATOM     16  C   UNL d   1      33.237  22.508 -23.833  0.00  0.00     0.019 C 
BRANCH  16  17
ATOM     17  C   UNL d   1      33.016  22.489 -24.651  0.00  0.00     0.002 C 
ATOM     18  C   UNL d   1      32.885  23.206 -25.087  0.00  0.00     0.000 C 
ENDBRANCH  16  17
ENDBRANCH   9  16
BRANCH   4  19
ATOM     19  C   UNL d   1      32.649  22.167 -20.950  0.00  0.00     0.004 A 
ATOM     20  C   UNL d   1      33.215  22.383 -20.400  0.00  0.00     0.000 A 
ATOM     21  C   UNL d   1      33.206  23.146 -20.087  0.00  0.00     0.000 A 
ATOM     22  C   UNL d   1      32.631  23.678 -20.332  0.00  0.00     0.000 A 
ATOM     23  C   UNL d   1      32.079  23.455 -20.874  0.00  0.00     0.000 A 
ATOM     24  C   UNL d   1      32.088  22.691 -21.186  0.00  0.00     0.000 A 
ENDBRANCH   4  19
TORSDOF 4
ENDMDL
MODEL 2
REMARK VINA RESULT:      -0.1      1.753      4.371
REMARK  4 active torsions:
REMARK  status: ('A' for Active; 'I' for Inactive)
REMARK    1  A    between atoms: N_9  and  C_3 
REMARK    2  A    between atoms: C_11  and  C_4 
REMARK    3  A    between atoms: C_15  and  C_10 
REMARK    4  A    between atoms: C_20  and  C_15 
ROOT
ATOM      1  N   UNL d   1      32.757  20.505 -23.790  0.00  0.00    -0.196 N 
ATOM      2  C   UNL d   1      32.732  19.718 -23.503  0.00  0.00     0.167 A 
ATOM      3  C   UNL d   1      32.940  21.097 -23.273  0.00  0.00     0.153 A 
ATOM      4  C   UNL d   1      32.551  19.109 -24.003  0.00  0.00     0.057 A 
ATOM      5  N   UNL d   1      32.416  20.033 -25.076  0.00  0.00    -0.161 NA
ATOM      6  N   UNL d   1      32.891  19.568 -22.716  0.00  0.00    -0.227 NA
ATOM      7  C   UNL d   1      33.101  20.957 -22.482  0.00  0.00     0.057 A 
ATOM      8  C   UNL d   1      32.391  19.258 -24.794  0.00  0.00     0.124 A 
ATOM      9  C   UNL d   1      33.076  20.183 -22.199  0.00  0.00     0.086 A 
ENDROOT
BRANCH   3  10
ATOM     10  N   UNL d   1      32.965  21.897 -23.565  0.00  0.00    -0.285 N 
ATOM     11  C   UNL d   1      32.741  22.548 -23.059  0.00  0.00     0.108 A 
ATOM     12  C   UNL d   1      32.769  23.337 -23.355  0.00  0.00     0.142 A 
ATOM     13  O   UNL d   1      33.020  23.491 -24.156  0.00  0.00    -0.300 OA
ATOM     14  C   UNL d   1      33.240  22.836 -24.649  0.00  0.00     0.142 A 
ATOM     15  C   UNL d   1      33.214  22.045 -24.360  0.00  0.00     0.108 A 
ENDBRANCH   3  10
BRANCH   9  16
ATOM     16  C   UNL d   1      33.241  20.021 -21.378  0.00  0.00     0.019 C 
BRANCH  16  17
ATOM     17  C   UNL d   1      32.842  20.451 -20.766  0.00  0.00     0.002 C 
ATOM     18  C   UNL d   1      33.202  20.568 -20.005  0.00  0.00     0.000 C 
ENDBRANCH  16  17
ENDBRANCH   9  16
BRANCH   4  19
ATOM     19  C   UNL d   1      32.529  18.335 -23.707  0.00  0.00     0.004 A 
ATOM     20  C   UNL d   1      33.237  17.945 -23.581  0.00  0.00     0.000 A 
ATOM     21  C   UNL d   1      33.229  17.174 -23.287  0.00  0.00     0.000 A 
ATOM     22  C   UNL d   1      32.512  16.809 -23.125  0.00  0.00     0.000 A 
ATOM     23  C   UNL d   1      31.821  17.203 -23.252  0.00  0.00     0.000 A 
ATOM     24  C   UNL d   1      31.830  17.974 -23.546  0.00  0.00     0.000 A 
ENDBRANCH   4  19
TORSDOF 4
ENDMDL
MODEL 3
REMARK VINA RESULT:       1.2      1.554      3.851
REMARK  4 active torsions:
REMARK  status: ('A' for Active; 'I' for Inactive)
REMARK    1  A    between atoms: N_9  and  C_3 
REMARK    2  A    between atoms: C_11  and  C_4 
REMARK    3  A    between atoms: C_15  and  C_10 
REMARK    4  A    between atoms: C_20  and  C_15 
ROOT
ATOM      1  N   UNL d   1      32.837  20.936 -21.731  0.00  0.00    -0.196 N 
ATOM      2  C   UNL d   1      32.944  20.551 -22.467  0.00  0.00     0.167 A 
ATOM      3  C   UNL d   1      32.866  21.741 -21.710  0.00  0.00     0.153 A 
ATOM      4  C   UNL d   1      32.919  19.744 -22.512  0.00  0.00     0.057 A 
ATOM      5  N   UNL d   1      32.685  19.677 -21.110  0.00  0.00    -0.161 NA
ATOM      6  N   UNL d   1      33.073  20.994 -23.142  0.00  0.00    -0.227 NA
ATOM      7  C   UNL d   1      32.995  22.196 -22.380  0.00  0.00     0.057 A 
ATOM      8  C   UNL d   1      32.789  19.298 -21.835  0.00  0.00     0.124 A 
ATOM      9  C   UNL d   1      33.100  21.817 -23.106  0.00  0.00     0.086 A 
ENDROOT
BRANCH   3  10
ATOM     10  N   UNL d   1      32.758  22.132 -20.961  0.00  0.00    -0.285 N 
ATOM     11  C   UNL d   1      32.167  22.744 -20.875  0.00  0.00     0.108 A 
ATOM     12  C   UNL d   1      32.066  23.127 -20.131  0.00  0.00     0.142 A 
ATOM     13  O   UNL d   1      32.549  22.908 -19.462  0.00  0.00    -0.300 OA
ATOM     14  C   UNL d   1      33.132  22.299 -19.560  0.00  0.00     0.142 A 
ATOM     15  C   UNL d   1      33.239  21.913 -20.300  0.00  0.00     0.108 A 
ENDBRANCH   3  10
BRANCH   9  16
ATOM     16  C   UNL d   1      33.235  22.275 -23.812  0.00  0.00     0.019 C 
BRANCH  16  17
ATOM     17  C   UNL d   1      32.686  22.877 -24.047  0.00  0.00     0.002 C 
ATOM     18  C   UNL d   1      32.870  23.419 -24.675  0.00  0.00     0.000 C 
ENDBRANCH  16  17
ENDBRANCH   9  16
BRANCH   4  19
ATOM     19  C   UNL d   1      33.025  19.376 -23.246  0.00  0.00     0.004 A 
ATOM     20  C   UNL d   1      33.105  18.561 -23.267  0.00  0.00     0.000 A 
ATOM     21  C   UNL d   1      33.211  18.183 -23.992  0.00  0.00     0.000 A 
ATOM     22  C   UNL d   1      33.236  18.626 -24.682  0.00  0.00     0.000 A 
ATOM     23  C   UNL d   1      33.157  19.426 -24.649  0.00  0.00     0.000 A 
ATOM     24  C   UNL d   1      33.050  19.805 -23.924  0.00  0.00     0.000 A 
ENDBRANCH   4  19
TORSDOF 4
ENDMDL
