MODEL 1
REMARK VINA RESULT:      -9.5      0.000      0.000
REMARK  6 active torsions:
REMARK  status: ('A' for Active; 'I' for Inactive)
REMARK    1  A    between atoms: C_6  and  N_1 
REMARK    2  A    between atoms: C_13  and  C_6 
REMARK    3  A    between atoms: C_8  and  C_9 
REMARK    4  A    between atoms: C_16  and  C_13 
REMARK    5  A    between atoms: O_14  and  C_16 
REMARK    6  A    between atoms: C_15  and  O_14 
ROOT
ATOM      1  C   UNL d   1      51.876  33.993  52.906  0.00  0.00     0.237 C 
ATOM      2  O   UNL d   1      52.437  34.449  52.493  0.00  0.00    -0.283 OA
ENDROOT
BRANCH   1   3
ATOM      3  C   UNL d   1      52.117  33.311  53.315  0.00  0.00     0.117 C 
BRANCH   3   4
ATOM      4  N   UNL d   1      52.810  33.320  53.767  0.00  0.00    -0.344 N 
ATOM      5  C   UNL d   1      53.331  32.670  53.743  0.00  0.00     0.086 A 
ATOM      6  C   UNL d   1      54.020  32.677  54.191  0.00  0.00     0.035 A 
ATOM      7  C   UNL d   1      53.844  32.024  53.715  0.00  0.00     0.027 C 
ATOM      8  C   UNL d   1      52.639  32.661  53.291  0.00  0.00     0.027 C 
ATOM      9  C   UNL d   1      54.200  33.331  54.670  0.00  0.00     0.191 A 
ATOM     10  C   UNL d   1      53.680  33.981  54.695  0.00  0.00     0.035 A 
ATOM     11  O   UNL d   1      54.890  33.339  55.120  0.00  0.00    -0.287 OA
ATOM     12  C   UNL d   1      52.984  33.971  54.240  0.00  0.00     0.086 A 
ATOM     13  C   UNL d   1      52.295  33.964  53.791  0.00  0.00     0.027 C 
ATOM     14  C   UNL d   1      53.159  34.621  54.714  0.00  0.00     0.027 C 
ENDBRANCH   3   4
ENDBRANCH   1   3
BRANCH   1  15
ATOM     15  C   UNL d   1      51.087  34.210  52.915  0.00  0.00     0.166 C 
BRANCH  15  16
ATOM     16  O   UNL d   1      50.634  34.165  52.221  0.00  0.00    -0.302 OA
BRANCH  16  17
ATOM     17  C   UNL d   1      49.886  34.540  52.179  0.00  0.00     0.100 A 
ATOM     18  C   UNL d   1      49.564  34.908  52.843  0.00  0.00     0.025 A 
ATOM     19  C   UNL d   1      48.829  35.274  52.795  0.00  0.00     0.005 A 
ATOM     20  C   UNL d   1      48.410  35.276  52.085  0.00  0.00     0.039 A 
ATOM     21  C   UNL d   1      48.734  34.905  51.417  0.00  0.00     0.005 A 
ATOM     22  C   UNL d   1      49.473  34.537  51.467  0.00  0.00     0.025 A 
BRANCH  20  23
ATOM     23  C   UNL d   1      47.675  35.645  52.046  0.00  0.00     0.196 C 
ATOM     24  O   UNL d   1      47.102  35.389  51.511  0.00  0.00    -0.287 OA
ATOM     25  C   UNL d   1      47.513  36.279  52.552  0.00  0.00     0.045 C 
ENDBRANCH  20  23
ENDBRANCH  16  17
ENDBRANCH  15  16
ENDBRANCH   1  15
TORSDOF 6
ENDMDL
MODEL 2
REMARK VINA RESULT:      -9.3      1.301      2.115
REMARK  6 active torsions:
REMARK  status: ('A' for Active; 'I' for Inactive)
REMARK    1  A    between atoms: C_6  and  N_1 
REMARK    2  A    between atoms: C_13  and  C_6 
REMARK    3  A    between atoms: C_8  and  C_9 
REMARK    4  A    between atoms: C_16  and  C_13 
REMARK    5  A    between atoms: O_14  and  C_16 
REMARK    6  A    between atoms: C_15  and  O_14 
ROOT
ATOM      1  C   UNL d   1      53.219  32.289  53.320  0.00  0.00     0.237 C 
ATOM      2  O   UNL d   1      53.464  31.939  52.605  0.00  0.00    -0.283 OA
ENDROOT
BRANCH   1   3
ATOM      3  C   UNL d   1      53.638  32.135  54.020  0.00  0.00     0.117 C 
BRANCH   3   4
ATOM      4  N   UNL d   1      54.214  32.666  54.286  0.00  0.00    -0.344 N 
ATOM      5  C   UNL d   1      54.221  32.907  55.084  0.00  0.00     0.086 A 
ATOM      6  C   UNL d   1      54.793  33.435  55.350  0.00  0.00     0.035 A 
ATOM      7  C   UNL d   1      54.224  33.143  55.874  0.00  0.00     0.027 C 
ATOM      8  C   UNL d   1      53.645  32.376  54.819  0.00  0.00     0.027 C 
ATOM      9  C   UNL d   1      55.366  33.729  54.825  0.00  0.00     0.191 A 
ATOM     10  C   UNL d   1      55.359  33.488  54.028  0.00  0.00     0.035 A 
ATOM     11  O   UNL d   1      55.939  34.258  55.091  0.00  0.00    -0.287 OA
ATOM     12  C   UNL d   1      54.780  32.955  53.763  0.00  0.00     0.086 A 
ATOM     13  C   UNL d   1      54.208  32.427  53.497  0.00  0.00     0.027 C 
ATOM     14  C   UNL d   1      55.346  33.245  53.240  0.00  0.00     0.027 C 
ENDBRANCH   3   4
ENDBRANCH   1   3
BRANCH   1  15
ATOM     15  C   UNL d   1      52.567  32.784  53.340  0.00  0.00     0.166 C 
BRANCH  15  16
ATOM     16  O   UNL d   1      52.009  32.765  52.726  0.00  0.00    -0.302 OA
BRANCH  16  17
ATOM     17  C   UNL d   1      51.375  33.311  52.714  0.00  0.00     0.100 A 
ATOM     18  C   UNL d   1      50.723  33.207  53.209  0.00  0.00     0.025 A 
ATOM     19  C   UNL d   1      50.103  33.747  53.192  0.00  0.00     0.005 A 
ATOM     20  C   UNL d   1      50.129  34.395  52.682  0.00  0.00     0.039 A 
ATOM     21  C   UNL d   1      50.784  34.499  52.185  0.00  0.00     0.005 A 
ATOM     22  C   UNL d   1      51.407  33.955  52.202  0.00  0.00     0.025 A 
BRANCH  20  23
ATOM     23  C   UNL d   1      49.503  34.930  52.672  0.00  0.00     0.196 C 
ATOM     24  O   UNL d   1      49.412  35.483  53.278  0.00  0.00    -0.287 OA
ATOM     25  C   UNL d   1      48.962  34.910  52.046  0.00  0.00     0.045 C 
ENDBRANCH  20  23
ENDBRANCH  16  17
ENDBRANCH  15  16
ENDBRANCH   1  15
TORSDOF 6
ENDMDL
MODEL 3
REMARK VINA RESULT:      -9.1      2.567      5.101
REMARK  6 active torsions:
REMARK  status: ('A' for Active; 'I' for Inactive)
REMARK    1  A    between atoms: C_6  and  N_1 
REMARK    2  A    between atoms: C_13  and  C_6 
REMARK    3  A    between atoms: C_8  and  C_9 
REMARK    4  A    between atoms: C_16  and  C_13 
REMARK    5  A    between atoms: O_14  and  C_16 
REMARK    6  A    between atoms: C_15  and  O_14 
ROOT
ATOM      1  C   UNL d   1      52.966  32.705  52.896  0.00  0.00     0.237 C 
ATOM      2  O   UNL d   1      52.490  32.854  52.229  0.00  0.00    -0.283 OA
ENDROOT
BRANCH   1   3
ATOM      3  C   UNL d   1      53.529  33.266  53.137  0.00  0.00     0.117 C 
BRANCH   3   4
ATOM      4  N   UNL d   1      53.293  33.942  53.552  0.00  0.00    -0.344 N 
ATOM      5  C   UNL d   1      53.721  34.186  54.224  0.00  0.00     0.086 A 
ATOM      6  C   UNL d   1      53.488  34.858  54.639  0.00  0.00     0.035 A 
ATOM      7  C   UNL d   1      54.147  34.425  54.889  0.00  0.00     0.027 C 
ATOM      8  C   UNL d   1      53.957  33.511  53.809  0.00  0.00     0.027 C 
ATOM      9  C   UNL d   1      52.827  35.294  54.390  0.00  0.00     0.191 A 
ATOM     10  C   UNL d   1      52.399  35.049  53.718  0.00  0.00     0.035 A 
ATOM     11  O   UNL d   1      52.593  35.966  54.804  0.00  0.00    -0.287 OA
ATOM     12  C   UNL d   1      52.637  34.371  53.302  0.00  0.00     0.086 A 
ATOM     13  C   UNL d   1      52.870  33.699  52.887  0.00  0.00     0.027 C 
ATOM     14  C   UNL d   1      51.981  34.801  53.052  0.00  0.00     0.027 C 
ENDBRANCH   3   4
ENDBRANCH   1   3
BRANCH   1  15
ATOM     15  C   UNL d   1      52.883  32.009  53.319  0.00  0.00     0.166 C 
BRANCH  15  16
ATOM     16  O   UNL d   1      52.966  31.276  52.939  0.00  0.00    -0.302 OA
BRANCH  16  17
ATOM     17  C   UNL d   1      53.063  30.576  53.386  0.00  0.00     0.100 A 
ATOM     18  C   UNL d   1      53.815  30.326  53.615  0.00  0.00     0.025 A 
ATOM     19  C   UNL d   1      53.904  29.637  54.055  0.00  0.00     0.005 A 
ATOM     20  C   UNL d   1      53.244  29.191  54.269  0.00  0.00     0.039 A 
ATOM     21  C   UNL d   1      52.488  29.442  54.039  0.00  0.00     0.005 A 
ATOM     22  C   UNL d   1      52.400  30.136  53.597  0.00  0.00     0.025 A 
BRANCH  20  23
ATOM     23  C   UNL d   1      53.343  28.502  54.710  0.00  0.00     0.196 C 
ATOM     24  O   UNL d   1      53.454  27.775  54.336  0.00  0.00    -0.287 OA
ATOM     25  C   UNL d   1      53.329  28.544  55.536  0.00  0.00     0.045 C 
ENDBRANCH  20  23
ENDBRANCH  16  17
ENDBRANCH  15  16
ENDBRANCH   1  15
TORSDOF 6
ENDMDL
MODEL 4
REMARK VINA RESULT:      -8.8      1.611      2.344
REMARK  6 active torsions:
REMARK  status: ('A' for Active; 'I' for Inactive)
REMARK    1  A    between atoms: C_6  and  N_1 
REMARK    2  A    between atoms: C_13  and  C_6 
REMARK    3  A    between atoms: C_8  and  C_9 
REMARK    4  A    between atoms: C_16  and  C_13 
REMARK    5  A    between atoms: O_14  and  C_16 
REMARK    6  A    between atoms: C_15  and  O_14 
ROOT
ATOM      1  C   UNL d   1      52.907  32.724  53.234  0.00  0.00     0.237 C 
ATOM      2  O   UNL d   1      53.378  33.147  53.775  0.00  0.00    -0.283 OA
ENDROOT
BRANCH   1   3
ATOM      3  C   UNL d   1      53.200  32.027  52.888  0.00  0.00     0.117 C 
BRANCH   3   4
ATOM      4  N   UNL d   1      53.218  31.323  53.322  0.00  0.00    -0.344 N 
ATOM      5  C   UNL d   1      52.957  30.613  52.973  0.00  0.00     0.086 A 
ATOM      6  C   UNL d   1      52.974  29.912  53.403  0.00  0.00     0.035 A 
ATOM      7  C   UNL d   1      52.697  29.912  52.623  0.00  0.00     0.027 C 
ATOM      8  C   UNL d   1      52.939  31.317  52.539  0.00  0.00     0.027 C 
ATOM      9  C   UNL d   1      53.252  29.908  54.185  0.00  0.00     0.191 A 
ATOM     10  C   UNL d   1      53.513  30.618  54.534  0.00  0.00     0.035 A 
ATOM     11  O   UNL d   1      53.269  29.207  54.616  0.00  0.00    -0.287 OA
ATOM     12  C   UNL d   1      53.494  31.325  54.097  0.00  0.00     0.086 A 
ATOM     13  C   UNL d   1      53.477  32.026  53.667  0.00  0.00     0.027 C 
ATOM     14  C   UNL d   1      53.770  31.325  54.873  0.00  0.00     0.027 C 
ENDBRANCH   3   4
ENDBRANCH   1   3
BRANCH   1  15
ATOM     15  C   UNL d   1      52.158  32.988  53.037  0.00  0.00     0.166 C 
BRANCH  15  16
ATOM     16  O   UNL d   1      52.025  33.794  52.891  0.00  0.00    -0.302 OA
BRANCH  16  17
ATOM     17  C   UNL d   1      51.271  34.059  52.641  0.00  0.00     0.100 A 
ATOM     18  C   UNL d   1      50.689  34.249  53.195  0.00  0.00     0.025 A 
ATOM     19  C   UNL d   1      49.950  34.509  52.943  0.00  0.00     0.005 A 
ATOM     20  C   UNL d   1      49.787  34.582  52.138  0.00  0.00     0.039 A 
ATOM     21  C   UNL d   1      50.371  34.391  51.582  0.00  0.00     0.005 A 
ATOM     22  C   UNL d   1      51.114  34.130  51.836  0.00  0.00     0.025 A 
BRANCH  20  23
ATOM     23  C   UNL d   1      49.044  34.843  51.895  0.00  0.00     0.196 C 
ATOM     24  O   UNL d   1      48.576  35.305  52.393  0.00  0.00    -0.287 OA
ATOM     25  C   UNL d   1      48.769  34.637  51.142  0.00  0.00     0.045 C 
ENDBRANCH  20  23
ENDBRANCH  16  17
ENDBRANCH  15  16
ENDBRANCH   1  15
TORSDOF 6
ENDMDL
MODEL 5
REMARK VINA RESULT:      -8.4      1.642      5.782
REMARK  6 active torsions:
REMARK  status: ('A' for Active; 'I' for Inactive)
REMARK    1  A    between atoms: C_6  and  N_1 
REMARK    2  A    between atoms: C_13  and  C_6 
REMARK    3  A    between atoms: C_8  and  C_9 
REMARK    4  A    between atoms: C_16  and  C_13 
REMARK    5  A    between atoms: O_14  and  C_16 
REMARK    6  A    between atoms: C_15  and  O_14 
ROOT
ATOM      1  C   UNL d   1      48.829  35.271  52.505  0.00  0.00     0.237 C 
ATOM      2  O   UNL d   1      48.511  35.043  51.770  0.00  0.00    -0.283 OA
ENDROOT
BRANCH   1   3
ATOM      3  C   UNL d   1      48.513  35.927  52.906  0.00  0.00     0.117 C 
BRANCH   3   4
ATOM      4  N   UNL d   1      47.697  35.988  53.026  0.00  0.00    -0.344 N 
ATOM      5  C   UNL d   1      47.399  36.126  53.792  0.00  0.00     0.086 A 
ATOM      6  C   UNL d   1      46.588  36.187  53.913  0.00  0.00     0.035 A 
ATOM      7  C   UNL d   1      47.108  36.263  54.552  0.00  0.00     0.027 C 
ATOM      8  C   UNL d   1      48.215  36.065  53.672  0.00  0.00     0.027 C 
ATOM      9  C   UNL d   1      46.063  36.112  53.274  0.00  0.00     0.191 A 
ATOM     10  C   UNL d   1      46.361  35.975  52.509  0.00  0.00     0.035 A 
ATOM     11  O   UNL d   1      45.251  36.174  53.395  0.00  0.00    -0.287 OA
ATOM     12  C   UNL d   1      47.181  35.913  52.390  0.00  0.00     0.086 A 
ATOM     13  C   UNL d   1      47.992  35.852  52.268  0.00  0.00     0.027 C 
ATOM     14  C   UNL d   1      46.664  35.838  51.753  0.00  0.00     0.027 C 
ENDBRANCH   3   4
ENDBRANCH   1   3
BRANCH   1  15
ATOM     15  C   UNL d   1      49.451  34.856  52.837  0.00  0.00     0.166 C 
BRANCH  15  16
ATOM     16  O   UNL d   1      50.006  34.476  52.351  0.00  0.00    -0.302 OA
BRANCH  16  17
ATOM     17  C   UNL d   1      50.697  34.138  52.682  0.00  0.00     0.100 A 
ATOM     18  C   UNL d   1      50.651  33.452  53.138  0.00  0.00     0.025 A 
ATOM     19  C   UNL d   1      51.334  33.126  53.461  0.00  0.00     0.005 A 
ATOM     20  C   UNL d   1      52.067  33.481  53.330  0.00  0.00     0.039 A 
ATOM     21  C   UNL d   1      52.113  34.170  52.872  0.00  0.00     0.005 A 
ATOM     22  C   UNL d   1      51.425  34.498  52.548  0.00  0.00     0.025 A 
BRANCH  20  23
ATOM     23  C   UNL d   1      52.745  33.147  53.657  0.00  0.00     0.196 C 
ATOM     24  O   UNL d   1      53.031  33.403  54.388  0.00  0.00    -0.287 OA
ATOM     25  C   UNL d   1      53.141  32.548  53.245  0.00  0.00     0.045 C 
ENDBRANCH  20  23
ENDBRANCH  16  17
ENDBRANCH  15  16
ENDBRANCH   1  15
TORSDOF 6
ENDMDL
MODEL 6
REMARK VINA RESULT:      -8.2      1.158      5.496
REMARK  6 active torsions:
REMARK  status: ('A' for Active; 'I' for Inactive)
REMARK    1  A    between atoms: C_6  and  N_1 
REMARK    2  A    between atoms: C_13  and  C_6 
REMARK    3  A    between atoms: C_8  and  C_9 
REMARK    4  A    between atoms: C_16  and  C_13 
REMARK    5  A    between atoms: O_14  and  C_16 
REMARK    6  A    between atoms: C_15  and  O_14 
ROOT
ATOM      1  C   UNL d   1      50.128  34.496  52.487  0.00  0.00     0.237 C 
ATOM      2  O   UNL d   1      50.097  34.486  51.655  0.00  0.00    -0.283 OA
ENDROOT
BRANCH   1   3
ATOM      3  C   UNL d   1      49.437  34.642  52.925  0.00  0.00     0.117 C 
BRANCH   3   4
ATOM      4  N   UNL d   1      48.825  35.093  52.599  0.00  0.00    -0.344 N 
ATOM      5  C   UNL d   1      48.469  35.698  53.048  0.00  0.00     0.086 A 
ATOM      6  C   UNL d   1      47.860  36.147  52.726  0.00  0.00     0.035 A 
ATOM      7  C   UNL d   1      48.119  36.295  53.498  0.00  0.00     0.027 C 
ATOM      8  C   UNL d   1      49.081  35.247  53.375  0.00  0.00     0.027 C 
ATOM      9  C   UNL d   1      47.598  36.001  51.951  0.00  0.00     0.191 A 
ATOM     10  C   UNL d   1      47.954  35.397  51.502  0.00  0.00     0.035 A 
ATOM     11  O   UNL d   1      46.989  36.451  51.628  0.00  0.00    -0.287 OA
ATOM     12  C   UNL d   1      48.569  34.945  51.831  0.00  0.00     0.086 A 
ATOM     13  C   UNL d   1      49.177  34.495  52.153  0.00  0.00     0.027 C 
ATOM     14  C   UNL d   1      48.312  34.797  51.062  0.00  0.00     0.027 C 
ENDBRANCH   3   4
ENDBRANCH   1   3
BRANCH   1  15
ATOM     15  C   UNL d   1      50.834  34.364  52.880  0.00  0.00     0.166 C 
BRANCH  15  16
ATOM     16  O   UNL d   1      51.487  34.052  52.473  0.00  0.00    -0.302 OA
BRANCH  16  17
ATOM     17  C   UNL d   1      52.160  33.787  52.893  0.00  0.00     0.100 A 
ATOM     18  C   UNL d   1      52.670  34.328  53.251  0.00  0.00     0.025 A 
ATOM     19  C   UNL d   1      53.330  34.061  53.663  0.00  0.00     0.005 A 
ATOM     20  C   UNL d   1      53.486  33.253  53.720  0.00  0.00     0.039 A 
ATOM     21  C   UNL d   1      52.974  32.710  53.361  0.00  0.00     0.005 A 
ATOM     22  C   UNL d   1      52.310  32.980  52.947  0.00  0.00     0.025 A 
BRANCH  20  23
ATOM     23  C   UNL d   1      54.150  32.995  54.135  0.00  0.00     0.196 C 
ATOM     24  O   UNL d   1      54.853  32.822  53.739  0.00  0.00    -0.287 OA
ATOM     25  C   UNL d   1      54.106  32.909  54.957  0.00  0.00     0.045 C 
ENDBRANCH  20  23
ENDBRANCH  16  17
ENDBRANCH  15  16
ENDBRANCH   1  15
TORSDOF 6
ENDMDL
MODEL 7
REMARK VINA RESULT:      -8.1      1.832      5.103
REMARK  6 active torsions:
REMARK  status: ('A' for Active; 'I' for Inactive)
REMARK    1  A    between atoms: C_6  and  N_1 
REMARK    2  A    between atoms: C_13  and  C_6 
REMARK    3  A    between atoms: C_8  and  C_9 
REMARK    4  A    between atoms: C_16  and  C_13 
REMARK    5  A    between atoms: O_14  and  C_16 
REMARK    6  A    between atoms: C_15  and  O_14 
ROOT
ATOM      1  C   UNL d   1      52.567  33.662  52.795  0.00  0.00     0.237 C 
ATOM      2  O   UNL d   1      53.073  34.126  53.266  0.00  0.00    -0.283 OA
ENDROOT
BRANCH   1   3
ATOM      3  C   UNL d   1      52.069  34.027  52.240  0.00  0.00     0.117 C 
BRANCH   3   4
ATOM      4  N   UNL d   1      51.317  34.291  52.465  0.00  0.00    -0.344 N 
ATOM      5  C   UNL d   1      50.681  34.240  51.928  0.00  0.00     0.086 A 
ATOM      6  C   UNL d   1      49.934  34.502  52.150  0.00  0.00     0.035 A 
ATOM      7  C   UNL d   1      50.055  34.188  51.394  0.00  0.00     0.027 C 
ATOM      8  C   UNL d   1      51.432  33.977  51.703  0.00  0.00     0.027 C 
ATOM      9  C   UNL d   1      49.809  34.816  52.908  0.00  0.00     0.191 A 
ATOM     10  C   UNL d   1      50.444  34.867  53.444  0.00  0.00     0.035 A 
ATOM     11  O   UNL d   1      49.061  35.078  53.131  0.00  0.00    -0.287 OA
ATOM     12  C   UNL d   1      51.199  34.602  53.217  0.00  0.00     0.086 A 
ATOM     13  C   UNL d   1      51.946  34.340  52.996  0.00  0.00     0.027 C 
ATOM     14  C   UNL d   1      51.079  34.914  53.970  0.00  0.00     0.027 C 
ENDBRANCH   3   4
ENDBRANCH   1   3
BRANCH   1  15
ATOM     15  C   UNL d   1      52.556  32.847  52.874  0.00  0.00     0.166 C 
BRANCH  15  16
ATOM     16  O   UNL d   1      53.260  32.431  53.016  0.00  0.00    -0.302 OA
BRANCH  16  17
ATOM     17  C   UNL d   1      53.236  31.633  53.265  0.00  0.00     0.100 A 
ATOM     18  C   UNL d   1      52.870  31.059  52.799  0.00  0.00     0.025 A 
ATOM     19  C   UNL d   1      52.850  30.276  53.050  0.00  0.00     0.005 A 
ATOM     20  C   UNL d   1      53.195  30.060  53.768  0.00  0.00     0.039 A 
ATOM     21  C   UNL d   1      53.563  30.637  54.236  0.00  0.00     0.005 A 
ATOM     22  C   UNL d   1      53.582  31.424  53.982  0.00  0.00     0.025 A 
BRANCH  20  23
ATOM     23  C   UNL d   1      53.170  29.273  54.011  0.00  0.00     0.196 C 
ATOM     24  O   UNL d   1      52.801  28.700  53.547  0.00  0.00    -0.287 OA
ATOM     25  C   UNL d   1      53.520  29.060  54.730  0.00  0.00     0.045 C 
ENDBRANCH  20  23
ENDBRANCH  16  17
ENDBRANCH  15  16
ENDBRANCH   1  15
TORSDOF 6
ENDMDL
