MODEL 1
REMARK VINA RESULT:      25.2      0.000      0.000
REMARK  2 active torsions:
REMARK  status: ('A' for Active; 'I' for Inactive)
REMARK    1  A    between atoms: N_2  and  S_1 
REMARK    2  A    between atoms: C_3  and  S_1 
ROOT
ATOM      1  S   UNL d   1      13.522  12.150  -2.476  0.00  0.00     0.273 S 
ATOM      2  O   UNL d   1      14.270  12.526  -2.528  0.00  0.00    -0.200 OA
ATOM      3  O   UNL d   1      12.782  11.779  -2.434  0.00  0.00    -0.200 OA
ENDROOT
BRANCH   1   4
ATOM      4  N   UNL d   1      13.398  12.278  -3.293  0.00  0.00    -0.231 N 
ATOM      5  C   UNL d   1      13.285  13.050  -3.573  0.00  0.00     0.075 A 
ATOM      6  C   UNL d   1      13.178  13.002  -4.386  0.00  0.00     0.018 A 
ATOM      7  C   UNL d   1      13.267  13.764  -3.196  0.00  0.00     0.018 A 
ATOM      8  C   UNL d   1      13.054  13.672  -4.816  0.00  0.00     0.002 A 
ATOM      9  C   UNL d   1      13.222  12.239  -4.606  0.00  0.00     0.021 A 
ATOM     10  C   UNL d   1      13.034  14.411  -4.441  0.00  0.00     0.000 A 
ATOM     11  C   UNL d   1      13.143  14.437  -3.624  0.00  0.00     0.002 A 
ATOM     12  C   UNL d   1      13.359  11.781  -3.928  0.00  0.00     0.092 A 
ENDBRANCH   1   4
BRANCH   1  13
ATOM     13  C   UNL d   1      13.652  12.027  -1.671  0.00  0.00     0.121 A 
ATOM     14  C   UNL d   1      14.415  11.965  -1.363  0.00  0.00     0.093 A 
ATOM     15  N   UNL d   1      15.067  12.026  -1.868  0.00  0.00    -0.243 NA
ATOM     16  C   UNL d   1      14.521  11.842  -0.550  0.00  0.00     0.018 A 
ATOM     17  C   UNL d   1      15.827  11.965  -1.562  0.00  0.00     0.099 A 
ATOM     18  C   UNL d   1      15.941  11.841  -0.748  0.00  0.00     0.021 A 
ATOM     19  C   UNL d   1      15.280  11.780  -0.244  0.00  0.00     0.003 A 
ATOM     20  C   UNL d   1      13.868  11.780  -0.045  0.00  0.00     0.002 A 
ATOM     21  C   UNL d   1      13.105  11.842  -0.353  0.00  0.00     0.001 A 
ATOM     22  C   UNL d   1      13.001  11.965  -1.162  0.00  0.00     0.014 A 
ENDBRANCH   1  13
TORSDOF 2
ENDMDL
