MODEL 1
REMARK VINA RESULT:      -6.1      0.000      0.000
REMARK  7 active torsions:
REMARK  status: ('A' for Active; 'I' for Inactive)
REMARK    1  A    between atoms: C_6  and  C_1 
REMARK    2  A    between atoms: C_14  and  C_5 
REMARK    3  A    between atoms: O_19  and  C_7 
REMARK    4  A    between atoms: O_20  and  C_8 
REMARK    5  A    between atoms: O_21  and  C_9 
REMARK    6  A    between atoms: O_17  and  C_14 
REMARK    7  A    between atoms: C_18  and  O_17 
ROOT
ATOM      1  C   UNL d   1     -42.330  13.367  21.184  0.00  0.00     0.205 A 
ATOM      2  N   UNL d   1     -42.404  12.544  21.245  0.00  0.00    -0.121 NA
ATOM      3  O   UNL d   1     -43.067  13.710  21.339  0.00  0.00    -0.267 OA
ATOM      4  N   UNL d   1     -43.192  12.373  21.440  0.00  0.00    -0.119 NA
ATOM      5  C   UNL d   1     -43.600  13.095  21.498  0.00  0.00     0.230 A 
ENDROOT
BRANCH   1   6
ATOM      6  C   UNL d   1     -41.628  13.770  20.997  0.00  0.00     0.047 A 
ATOM      7  C   UNL d   1     -41.029  13.851  21.558  0.00  0.00     0.030 A 
ATOM      8  C   UNL d   1     -40.343  14.248  21.367  0.00  0.00     0.118 A 
ATOM      9  C   UNL d   1     -40.239  14.573  20.611  0.00  0.00     0.138 A 
ATOM     10  C   UNL d   1     -40.838  14.490  20.054  0.00  0.00     0.118 A 
ATOM     11  C   UNL d   1     -41.540  14.087  20.241  0.00  0.00     0.030 A 
BRANCH   8  12
ATOM     12  O   UNL d   1     -39.745  14.326  21.936  0.00  0.00    -0.326 OA
ATOM     13  C   UNL d   1     -39.508  13.675  22.388  0.00  0.00     0.181 C 
ENDBRANCH   8  12
BRANCH   9  14
ATOM     14  O   UNL d   1     -39.539  14.973  20.430  0.00  0.00    -0.324 OA
ATOM     15  C   UNL d   1     -39.481  15.791  20.547  0.00  0.00     0.182 C 
ENDBRANCH   9  14
BRANCH  10  16
ATOM     16  O   UNL d   1     -40.735  14.814  19.298  0.00  0.00    -0.326 OA
ATOM     17  C   UNL d   1     -40.919  14.371  18.633  0.00  0.00     0.181 C 
ENDBRANCH  10  16
ENDBRANCH   1   6
BRANCH   5  18
ATOM     18  C   UNL d   1     -44.403  13.192  21.682  0.00  0.00     0.169 C 
BRANCH  18  19
ATOM     19  O   UNL d   1     -44.690  12.964  22.420  0.00  0.00    -0.301 OA
BRANCH  19  20
ATOM     20  C   UNL d   1     -45.497  13.028  22.583  0.00  0.00     0.100 A 
ATOM     21  C   UNL d   1     -45.897  12.400  22.938  0.00  0.00     0.025 A 
ATOM     22  C   UNL d   1     -46.698  12.463  23.100  0.00  0.00     0.002 A 
ATOM     23  C   UNL d   1     -47.107  11.835  23.457  0.00  0.00     0.000 A 
ATOM     24  C   UNL d   1     -47.107  13.151  22.910  0.00  0.00     0.000 A 
ATOM     25  C   UNL d   1     -47.913  11.905  23.617  0.00  0.00     0.000 A 
ATOM     26  C   UNL d   1     -48.316  12.598  23.423  0.00  0.00     0.000 A 
ATOM     27  C   UNL d   1     -47.911  13.226  23.067  0.00  0.00     0.000 A 
ATOM     28  C   UNL d   1     -46.710  13.781  22.554  0.00  0.00     0.002 A 
ATOM     29  C   UNL d   1     -45.893  13.719  22.389  0.00  0.00     0.025 A 
ENDBRANCH  19  20
ENDBRANCH  18  19
ENDBRANCH   5  18
TORSDOF 7
ENDMDL
MODEL 2
REMARK VINA RESULT:      -6.0      1.220      6.391
REMARK  7 active torsions:
REMARK  status: ('A' for Active; 'I' for Inactive)
REMARK    1  A    between atoms: C_6  and  C_1 
REMARK    2  A    between atoms: C_14  and  C_5 
REMARK    3  A    between atoms: O_19  and  C_7 
REMARK    4  A    between atoms: O_20  and  C_8 
REMARK    5  A    between atoms: O_21  and  C_9 
REMARK    6  A    between atoms: O_17  and  C_14 
REMARK    7  A    between atoms: C_18  and  O_17 
ROOT
ATOM      1  C   UNL d   1     -44.404  12.667  22.107  0.00  0.00     0.205 A 
ATOM      2  N   UNL d   1     -43.883  12.030  22.207  0.00  0.00    -0.121 NA
ATOM      3  O   UNL d   1     -44.033  13.238  21.636  0.00  0.00    -0.267 OA
ATOM      4  N   UNL d   1     -43.184  12.204  21.796  0.00  0.00    -0.119 NA
ATOM      5  C   UNL d   1     -43.279  12.951  21.443  0.00  0.00     0.230 A 
ENDROOT
BRANCH   1   6
ATOM      6  C   UNL d   1     -45.167  12.715  22.430  0.00  0.00     0.047 A 
ATOM      7  C   UNL d   1     -45.641  13.376  22.292  0.00  0.00     0.030 A 
ATOM      8  C   UNL d   1     -46.389  13.415  22.612  0.00  0.00     0.118 A 
ATOM      9  C   UNL d   1     -46.682  12.796  23.079  0.00  0.00     0.138 A 
ATOM     10  C   UNL d   1     -46.208  12.138  23.216  0.00  0.00     0.118 A 
ATOM     11  C   UNL d   1     -45.443  12.091  22.892  0.00  0.00     0.030 A 
BRANCH   8  12
ATOM     12  O   UNL d   1     -46.859  14.083  22.469  0.00  0.00    -0.326 OA
ATOM     13  C   UNL d   1     -46.581  14.840  22.651  0.00  0.00     0.181 C 
ENDBRANCH   8  12
BRANCH   9  14
ATOM     14  O   UNL d   1     -47.442  12.848  23.399  0.00  0.00    -0.324 OA
ATOM     15  C   UNL d   1     -48.087  12.507  23.005  0.00  0.00     0.182 C 
ENDBRANCH   9  14
BRANCH  10  16
ATOM     16  O   UNL d   1     -46.499  11.518  23.682  0.00  0.00    -0.326 OA
ATOM     17  C   UNL d   1     -46.135  10.784  23.664  0.00  0.00     0.181 C 
ENDBRANCH  10  16
ENDBRANCH   1   6
BRANCH   5  18
ATOM     18  C   UNL d   1     -42.719  13.348  20.978  0.00  0.00     0.169 C 
BRANCH  18  19
ATOM     19  O   UNL d   1     -42.054  13.687  21.327  0.00  0.00    -0.301 OA
BRANCH  19  20
ATOM     20  C   UNL d   1     -41.592  14.219  20.895  0.00  0.00     0.100 A 
ATOM     21  C   UNL d   1     -41.116  13.946  20.278  0.00  0.00     0.025 A 
ATOM     22  C   UNL d   1     -40.658  14.474  19.850  0.00  0.00     0.002 A 
ATOM     23  C   UNL d   1     -40.178  14.207  19.229  0.00  0.00     0.000 A 
ATOM     24  C   UNL d   1     -40.670  15.276  20.033  0.00  0.00     0.000 A 
ATOM     25  C   UNL d   1     -39.718  14.744  18.802  0.00  0.00     0.000 A 
ATOM     26  C   UNL d   1     -39.735  15.546  18.990  0.00  0.00     0.000 A 
ATOM     27  C   UNL d   1     -40.214  15.815  19.610  0.00  0.00     0.000 A 
ATOM     28  C   UNL d   1     -41.144  15.552  20.649  0.00  0.00     0.002 A 
ATOM     29  C   UNL d   1     -41.612  15.016  21.086  0.00  0.00     0.025 A 
ENDBRANCH  19  20
ENDBRANCH  18  19
ENDBRANCH   5  18
TORSDOF 7
ENDMDL
MODEL 3
REMARK VINA RESULT:      -5.9      1.181      6.343
REMARK  7 active torsions:
REMARK  status: ('A' for Active; 'I' for Inactive)
REMARK    1  A    between atoms: C_6  and  C_1 
REMARK    2  A    between atoms: C_14  and  C_5 
REMARK    3  A    between atoms: O_19  and  C_7 
REMARK    4  A    between atoms: O_20  and  C_8 
REMARK    5  A    between atoms: O_21  and  C_9 
REMARK    6  A    between atoms: O_17  and  C_14 
REMARK    7  A    between atoms: C_18  and  O_17 
ROOT
ATOM      1  C   UNL d   1     -44.630  12.727  22.171  0.00  0.00     0.205 A 
ATOM      2  N   UNL d   1     -44.162  12.046  22.240  0.00  0.00    -0.121 NA
ATOM      3  O   UNL d   1     -44.214  13.287  21.726  0.00  0.00    -0.267 OA
ATOM      4  N   UNL d   1     -43.450  12.183  21.836  0.00  0.00    -0.119 NA
ATOM      5  C   UNL d   1     -43.484  12.951  21.519  0.00  0.00     0.230 A 
ENDROOT
BRANCH   1   6
ATOM      6  C   UNL d   1     -45.387  12.820  22.497  0.00  0.00     0.047 A 
ATOM      7  C   UNL d   1     -45.736  12.210  22.930  0.00  0.00     0.030 A 
ATOM      8  C   UNL d   1     -46.480  12.310  23.247  0.00  0.00     0.118 A 
ATOM      9  C   UNL d   1     -46.894  13.020  23.140  0.00  0.00     0.138 A 
ATOM     10  C   UNL d   1     -46.544  13.626  22.708  0.00  0.00     0.118 A 
ATOM     11  C   UNL d   1     -45.785  13.532  22.382  0.00  0.00     0.030 A 
BRANCH   8  12
ATOM     12  O   UNL d   1     -46.824  11.692  23.680  0.00  0.00    -0.326 OA
ATOM     13  C   UNL d   1     -46.473  10.944  23.697  0.00  0.00     0.181 C 
ENDBRANCH   8  12
BRANCH   9  14
ATOM     14  O   UNL d   1     -47.648  13.109  23.466  0.00  0.00    -0.324 OA
ATOM     15  C   UNL d   1     -48.322  13.025  22.992  0.00  0.00     0.182 C 
ENDBRANCH   9  14
BRANCH  10  16
ATOM     16  O   UNL d   1     -46.956  14.337  22.600  0.00  0.00    -0.326 OA
ATOM     17  C   UNL d   1     -46.545  15.042  22.513  0.00  0.00     0.181 C 
ENDBRANCH  10  16
ENDBRANCH   1   6
BRANCH   5  18
ATOM     18  C   UNL d   1     -42.894  13.323  21.071  0.00  0.00     0.169 C 
BRANCH  18  19
ATOM     19  O   UNL d   1     -42.162  13.494  21.410  0.00  0.00    -0.301 OA
BRANCH  19  20
ATOM     20  C   UNL d   1     -41.609  13.938  20.986  0.00  0.00     0.100 A 
ATOM     21  C   UNL d   1     -41.133  14.487  21.378  0.00  0.00     0.025 A 
ATOM     22  C   UNL d   1     -40.585  14.927  20.957  0.00  0.00     0.002 A 
ATOM     23  C   UNL d   1     -40.103  15.481  21.344  0.00  0.00     0.000 A 
ATOM     24  C   UNL d   1     -40.505  14.825  20.145  0.00  0.00     0.000 A 
ATOM     25  C   UNL d   1     -39.552  15.922  20.916  0.00  0.00     0.000 A 
ATOM     26  C   UNL d   1     -39.478  15.813  20.102  0.00  0.00     0.000 A 
ATOM     27  C   UNL d   1     -39.957  15.261  19.713  0.00  0.00     0.000 A 
ATOM     28  C   UNL d   1     -40.978  14.276  19.751  0.00  0.00     0.002 A 
ATOM     29  C   UNL d   1     -41.539  13.827  20.177  0.00  0.00     0.025 A 
ENDBRANCH  19  20
ENDBRANCH  18  19
ENDBRANCH   5  18
TORSDOF 7
ENDMDL
MODEL 4
REMARK VINA RESULT:      -4.8      1.613      3.137
REMARK  7 active torsions:
REMARK  status: ('A' for Active; 'I' for Inactive)
REMARK    1  A    between atoms: C_6  and  C_1 
REMARK    2  A    between atoms: C_14  and  C_5 
REMARK    3  A    between atoms: O_19  and  C_7 
REMARK    4  A    between atoms: O_20  and  C_8 
REMARK    5  A    between atoms: O_21  and  C_9 
REMARK    6  A    between atoms: O_17  and  C_14 
REMARK    7  A    between atoms: C_18  and  O_17 
ROOT
ATOM      1  C   UNL d   1     -40.775  14.315  19.662  0.00  0.00     0.205 A 
ATOM      2  N   UNL d   1     -40.544  14.723  20.346  0.00  0.00    -0.121 NA
ATOM      3  O   UNL d   1     -41.366  13.773  19.867  0.00  0.00    -0.267 OA
ATOM      4  N   UNL d   1     -40.993  14.434  20.980  0.00  0.00    -0.119 NA
ATOM      5  C   UNL d   1     -41.501  13.847  20.683  0.00  0.00     0.230 A 
ENDROOT
BRANCH   1   6
ATOM      6  C   UNL d   1     -40.460  14.437  18.904  0.00  0.00     0.047 A 
ATOM      7  C   UNL d   1     -40.740  15.049  18.427  0.00  0.00     0.030 A 
ATOM      8  C   UNL d   1     -40.426  15.163  17.684  0.00  0.00     0.118 A 
ATOM      9  C   UNL d   1     -39.824  14.668  17.399  0.00  0.00     0.138 A 
ATOM     10  C   UNL d   1     -39.547  14.059  17.877  0.00  0.00     0.118 A 
ATOM     11  C   UNL d   1     -39.862  13.937  18.636  0.00  0.00     0.030 A 
BRANCH   8  12
ATOM     12  O   UNL d   1     -40.712  15.780  17.210  0.00  0.00    -0.326 OA
ATOM     13  C   UNL d   1     -41.527  15.901  17.125  0.00  0.00     0.181 C 
ENDBRANCH   8  12
BRANCH   9  14
ATOM     14  O   UNL d   1     -39.513  14.794  16.644  0.00  0.00    -0.324 OA
ATOM     15  C   UNL d   1     -38.867  15.300  16.535  0.00  0.00     0.182 C 
ENDBRANCH   9  14
BRANCH  10  16
ATOM     16  O   UNL d   1     -38.945  13.564  17.594  0.00  0.00    -0.326 OA
ATOM     17  C   UNL d   1     -38.750  12.880  18.002  0.00  0.00     0.181 C 
ENDBRANCH  10  16
ENDBRANCH   1   6
BRANCH   5  18
ATOM     18  C   UNL d   1     -42.051  13.407  21.120  0.00  0.00     0.169 C 
BRANCH  18  19
ATOM     19  O   UNL d   1     -42.823  13.318  20.846  0.00  0.00    -0.301 OA
BRANCH  19  20
ATOM     20  C   UNL d   1     -43.400  12.998  21.345  0.00  0.00     0.100 A 
ATOM     21  C   UNL d   1     -44.117  13.392  21.451  0.00  0.00     0.025 A 
ATOM     22  C   UNL d   1     -44.689  13.075  21.945  0.00  0.00     0.002 A 
ATOM     23  C   UNL d   1     -45.412  13.466  22.058  0.00  0.00     0.000 A 
ATOM     24  C   UNL d   1     -44.552  12.365  22.337  0.00  0.00     0.000 A 
ATOM     25  C   UNL d   1     -45.984  13.142  22.556  0.00  0.00     0.000 A 
ATOM     26  C   UNL d   1     -45.839  12.429  22.945  0.00  0.00     0.000 A 
ATOM     27  C   UNL d   1     -45.119  12.037  22.835  0.00  0.00     0.000 A 
ATOM     28  C   UNL d   1     -43.836  11.968  22.232  0.00  0.00     0.002 A 
ATOM     29  C   UNL d   1     -43.251  12.290  21.728  0.00  0.00     0.025 A 
ENDBRANCH  19  20
ENDBRANCH  18  19
ENDBRANCH   5  18
TORSDOF 7
ENDMDL
MODEL 5
REMARK VINA RESULT:      -4.4      2.147      6.762
REMARK  7 active torsions:
REMARK  status: ('A' for Active; 'I' for Inactive)
REMARK    1  A    between atoms: C_6  and  C_1 
REMARK    2  A    between atoms: C_14  and  C_5 
REMARK    3  A    between atoms: O_19  and  C_7 
REMARK    4  A    between atoms: O_20  and  C_8 
REMARK    5  A    between atoms: O_21  and  C_9 
REMARK    6  A    between atoms: O_17  and  C_14 
REMARK    7  A    between atoms: C_18  and  O_17 
ROOT
ATOM      1  C   UNL d   1     -46.825  13.069  22.883  0.00  0.00     0.205 A 
ATOM      2  N   UNL d   1     -46.497  12.911  23.627  0.00  0.00    -0.121 NA
ATOM      3  O   UNL d   1     -46.230  12.996  22.312  0.00  0.00    -0.267 OA
ATOM      4  N   UNL d   1     -45.692  12.738  23.520  0.00  0.00    -0.119 NA
ATOM      5  C   UNL d   1     -45.529  12.792  22.707  0.00  0.00     0.230 A 
ENDROOT
BRANCH   1   6
ATOM      6  C   UNL d   1     -47.619  13.267  22.744  0.00  0.00     0.047 A 
ATOM      7  C   UNL d   1     -48.205  12.686  22.759  0.00  0.00     0.030 A 
ATOM      8  C   UNL d   1     -48.983  12.888  22.621  0.00  0.00     0.118 A 
ATOM      9  C   UNL d   1     -49.194  13.675  22.466  0.00  0.00     0.138 A 
ATOM     10  C   UNL d   1     -48.608  14.251  22.452  0.00  0.00     0.118 A 
ATOM     11  C   UNL d   1     -47.813  14.053  22.591  0.00  0.00     0.030 A 
BRANCH   8  12
ATOM     12  O   UNL d   1     -49.566  12.299  22.638  0.00  0.00    -0.326 OA
ATOM     13  C   UNL d   1     -49.411  11.564  22.986  0.00  0.00     0.181 C 
ENDBRANCH   8  12
BRANCH   9  14
ATOM     14  O   UNL d   1     -49.986  13.867  22.328  0.00  0.00    -0.324 OA
ATOM     15  C   UNL d   1     -50.301  13.824  21.563  0.00  0.00     0.182 C 
ENDBRANCH   9  14
BRANCH  10  16
ATOM     16  O   UNL d   1     -48.818  15.038  22.297  0.00  0.00    -0.326 OA
ATOM     17  C   UNL d   1     -48.246  15.626  22.306  0.00  0.00     0.181 C 
ENDBRANCH  10  16
ENDBRANCH   1   6
BRANCH   5  18
ATOM     18  C   UNL d   1     -44.795  12.664  22.344  0.00  0.00     0.169 C 
BRANCH  18  19
ATOM     19  O   UNL d   1     -44.543  13.154  21.732  0.00  0.00    -0.301 OA
BRANCH  19  20
ATOM     20  C   UNL d   1     -43.740  13.186  21.536  0.00  0.00     0.100 A 
ATOM     21  C   UNL d   1     -43.379  13.914  21.393  0.00  0.00     0.025 A 
ATOM     22  C   UNL d   1     -42.584  13.946  21.199  0.00  0.00     0.002 A 
ATOM     23  C   UNL d   1     -42.214  14.674  21.053  0.00  0.00     0.000 A 
ATOM     24  C   UNL d   1     -42.142  13.254  21.146  0.00  0.00     0.000 A 
ATOM     25  C   UNL d   1     -41.413  14.699  20.858  0.00  0.00     0.000 A 
ATOM     26  C   UNL d   1     -40.976  14.001  20.807  0.00  0.00     0.000 A 
ATOM     27  C   UNL d   1     -41.342  13.273  20.952  0.00  0.00     0.000 A 
ATOM     28  C   UNL d   1     -42.500  12.524  21.289  0.00  0.00     0.002 A 
ATOM     29  C   UNL d   1     -43.311  12.490  21.487  0.00  0.00     0.025 A 
ENDBRANCH  19  20
ENDBRANCH  18  19
ENDBRANCH   5  18
TORSDOF 7
ENDMDL
MODEL 6
REMARK VINA RESULT:      -3.9      2.524      4.223
REMARK  7 active torsions:
REMARK  status: ('A' for Active; 'I' for Inactive)
REMARK    1  A    between atoms: C_6  and  C_1 
REMARK    2  A    between atoms: C_14  and  C_5 
REMARK    3  A    between atoms: O_19  and  C_7 
REMARK    4  A    between atoms: O_20  and  C_8 
REMARK    5  A    between atoms: O_21  and  C_9 
REMARK    6  A    between atoms: O_17  and  C_14 
REMARK    7  A    between atoms: C_18  and  O_17 
ROOT
ATOM      1  C   UNL d   1     -45.770  13.476  22.459  0.00  0.00     0.205 A 
ATOM      2  N   UNL d   1     -45.604  14.287  22.427  0.00  0.00    -0.121 NA
ATOM      3  O   UNL d   1     -46.592  13.377  22.477  0.00  0.00    -0.267 OA
ATOM      4  N   UNL d   1     -46.326  14.696  22.426  0.00  0.00    -0.119 NA
ATOM      5  C   UNL d   1     -46.935  14.132  22.457  0.00  0.00     0.230 A 
ENDROOT
BRANCH   1   6
ATOM      6  C   UNL d   1     -45.201  12.872  22.470  0.00  0.00     0.047 A 
ATOM      7  C   UNL d   1     -45.270  12.239  22.995  0.00  0.00     0.030 A 
ATOM      8  C   UNL d   1     -44.706  11.650  23.000  0.00  0.00     0.118 A 
ATOM      9  C   UNL d   1     -44.060  11.679  22.481  0.00  0.00     0.138 A 
ATOM     10  C   UNL d   1     -43.994  12.311  21.959  0.00  0.00     0.118 A 
ATOM     11  C   UNL d   1     -44.564  12.916  21.948  0.00  0.00     0.030 A 
BRANCH   8  12
ATOM     12  O   UNL d   1     -44.783  11.017  23.530  0.00  0.00    -0.326 OA
ATOM     13  C   UNL d   1     -45.502  10.615  23.602  0.00  0.00     0.181 C 
ENDBRANCH   8  12
BRANCH   9  14
ATOM     14  O   UNL d   1     -43.496  11.076  22.496  0.00  0.00    -0.324 OA
ATOM     15  C   UNL d   1     -42.964  11.015  23.128  0.00  0.00     0.182 C 
ENDBRANCH   9  14
BRANCH  10  16
ATOM     16  O   UNL d   1     -43.348  12.342  21.440  0.00  0.00    -0.326 OA
ATOM     17  C   UNL d   1     -42.953  13.050  21.316  0.00  0.00     0.181 C 
ENDBRANCH  10  16
ENDBRANCH   1   6
BRANCH   5  18
ATOM     18  C   UNL d   1     -47.749  14.289  22.466  0.00  0.00     0.169 C 
BRANCH  18  19
ATOM     19  O   UNL d   1     -48.160  14.308  23.180  0.00  0.00    -0.301 OA
BRANCH  19  20
ATOM     20  C   UNL d   1     -48.883  13.912  23.246  0.00  0.00     0.100 A 
ATOM     21  C   UNL d   1     -48.897  13.102  23.406  0.00  0.00     0.025 A 
ATOM     22  C   UNL d   1     -49.613  12.710  23.472  0.00  0.00     0.002 A 
ATOM     23  C   UNL d   1     -49.635  11.896  23.632  0.00  0.00     0.000 A 
ATOM     24  C   UNL d   1     -50.321  13.120  23.379  0.00  0.00     0.000 A 
ATOM     25  C   UNL d   1     -50.359  11.507  23.698  0.00  0.00     0.000 A 
ATOM     26  C   UNL d   1     -51.064  11.924  23.604  0.00  0.00     0.000 A 
ATOM     27  C   UNL d   1     -51.046  12.736  23.443  0.00  0.00     0.000 A 
ATOM     28  C   UNL d   1     -50.310  13.929  23.219  0.00  0.00     0.002 A 
ATOM     29  C   UNL d   1     -49.581  14.331  23.152  0.00  0.00     0.025 A 
ENDBRANCH  19  20
ENDBRANCH  18  19
ENDBRANCH   5  18
TORSDOF 7
ENDMDL
