MODEL 1
REMARK VINA RESULT:      -9.2      0.000      0.000
REMARK  3 active torsions:
REMARK  status: ('A' for Active; 'I' for Inactive)
REMARK    1  A    between atoms: C_8  and  C_2 
REMARK    2  A    between atoms: C_7  and  C_5 
REMARK    3  A    between atoms: C_10  and  C_8 
ROOT
ATOM      1  C   UNL d   1      53.715  32.681  53.811  0.00  0.00     0.101 A 
ATOM      2  O   UNL d   1      53.126  32.126  53.725  0.00  0.00    -0.307 OA
ATOM      3  C   UNL d   1      53.437  31.519  53.246  0.00  0.00     0.101 A 
ATOM      4  C   UNL d   1      54.356  32.405  53.392  0.00  0.00     0.027 A 
ATOM      5  C   UNL d   1      54.153  31.695  53.060  0.00  0.00     0.027 A 
ENDROOT
BRANCH   1   6
ATOM      6  C   UNL d   1      53.640  33.379  54.248  0.00  0.00     0.034 A 
ATOM      7  C   UNL d   1      53.205  34.026  53.907  0.00  0.00     0.070 A 
ATOM      8  C   UNL d   1      53.122  34.745  54.346  0.00  0.00     0.068 A 
ATOM      9 CL   UNL d   1      52.809  34.043  53.114  0.00  0.00    -0.081 Cl
ATOM     10 CL   UNL d   1      52.686  35.276  53.905  0.00  0.00    -0.082 Cl
ATOM     11  C   UNL d   1      53.471  34.792  55.098  0.00  0.00     0.012 A 
ATOM     12  C   UNL d   1      53.896  34.143  55.417  0.00  0.00     0.001 A 
ATOM     13  C   UNL d   1      53.974  33.457  54.994  0.00  0.00     0.003 A 
ENDBRANCH   1   6
BRANCH   3  14
ATOM     14  C   UNL d   1      53.049  30.818  52.994  0.00  0.00     0.036 C 
BRANCH  14  15
ATOM     15  C   UNL d   1      53.051  30.159  53.490  0.00  0.00     0.094 A 
ATOM     16  C   UNL d   1      52.375  29.711  53.600  0.00  0.00     0.288 A 
ATOM     17  N   UNL d   1      52.549  29.084  54.130  0.00  0.00    -0.163 NA
ATOM     18  O   UNL d   1      51.605  29.855  53.231  0.00  0.00    -0.265 OA
ATOM     19  C   UNL d   1      53.293  29.165  54.320  0.00  0.00     0.313 A 
ATOM     20  S   UNL d   1      53.643  29.826  53.941  0.00  0.00    -0.021 SA
ATOM     21  O   UNL d   1      53.632  28.614  54.849  0.00  0.00    -0.258 OA
ENDBRANCH  14  15
ENDBRANCH   3  14
TORSDOF 3
ENDMDL
MODEL 2
REMARK VINA RESULT:      -9.1      2.526      4.465
REMARK  3 active torsions:
REMARK  status: ('A' for Active; 'I' for Inactive)
REMARK    1  A    between atoms: C_8  and  C_2 
REMARK    2  A    between atoms: C_7  and  C_5 
REMARK    3  A    between atoms: C_10  and  C_8 
ROOT
ATOM      1  C   UNL d   1      53.673  31.697  53.753  0.00  0.00     0.101 A 
ATOM      2  O   UNL d   1      53.269  32.243  54.201  0.00  0.00    -0.307 OA
ATOM      3  C   UNL d   1      53.762  32.912  54.264  0.00  0.00     0.101 A 
ATOM      4  C   UNL d   1      54.385  32.037  53.558  0.00  0.00     0.027 A 
ATOM      5  C   UNL d   1      54.408  32.778  53.886  0.00  0.00     0.027 A 
ENDROOT
BRANCH   1   6
ATOM      6  C   UNL d   1      53.381  30.948  53.554  0.00  0.00     0.034 A 
ATOM      7  C   UNL d   1      53.441  30.324  54.128  0.00  0.00     0.070 A 
ATOM      8  C   UNL d   1      53.147  29.554  53.935  0.00  0.00     0.068 A 
ATOM      9 CL   UNL d   1      53.790  30.380  54.942  0.00  0.00    -0.081 Cl
ATOM     10 CL   UNL d   1      53.267  29.056  54.571  0.00  0.00    -0.082 Cl
ATOM     11  C   UNL d   1      52.807  29.437  53.186  0.00  0.00     0.012 A 
ATOM     12  C   UNL d   1      52.757  30.066  52.633  0.00  0.00     0.001 A 
ATOM     13  C   UNL d   1      53.040  30.801  52.821  0.00  0.00     0.003 A 
ENDBRANCH   1   6
BRANCH   3  14
ATOM     14  C   UNL d   1      53.601  33.629  54.671  0.00  0.00     0.036 C 
BRANCH  14  15
ATOM     15  C   UNL d   1      53.098  34.182  54.322  0.00  0.00     0.094 A 
ATOM     16  C   UNL d   1      53.001  34.928  54.646  0.00  0.00     0.288 A 
ATOM     17  N   UNL d   1      52.461  35.360  54.171  0.00  0.00    -0.163 NA
ATOM     18  O   UNL d   1      53.389  35.225  55.360  0.00  0.00    -0.265 OA
ATOM     19  C   UNL d   1      52.254  34.887  53.597  0.00  0.00     0.313 A 
ATOM     20  S   UNL d   1      52.631  34.140  53.655  0.00  0.00    -0.021 SA
ATOM     21  O   UNL d   1      51.711  35.166  53.026  0.00  0.00    -0.258 OA
ENDBRANCH  14  15
ENDBRANCH   3  14
TORSDOF 3
ENDMDL
MODEL 3
REMARK VINA RESULT:      -7.8      3.448      4.645
REMARK  3 active torsions:
REMARK  status: ('A' for Active; 'I' for Inactive)
REMARK    1  A    between atoms: C_8  and  C_2 
REMARK    2  A    between atoms: C_7  and  C_5 
REMARK    3  A    between atoms: C_10  and  C_8 
ROOT
ATOM      1  C   UNL d   1      52.187  33.381  53.075  0.00  0.00     0.101 A 
ATOM      2  O   UNL d   1      51.444  33.488  53.387  0.00  0.00    -0.307 OA
ATOM      3  C   UNL d   1      51.140  34.186  53.048  0.00  0.00     0.101 A 
ATOM      4  C   UNL d   1      52.316  34.001  52.564  0.00  0.00     0.027 A 
ATOM      5  C   UNL d   1      51.658  34.473  52.571  0.00  0.00     0.027 A 
ENDROOT
BRANCH   1   6
ATOM      6  C   UNL d   1      52.687  32.750  53.264  0.00  0.00     0.034 A 
ATOM      7  C   UNL d   1      53.309  32.881  53.830  0.00  0.00     0.070 A 
ATOM      8  C   UNL d   1      53.827  32.242  54.031  0.00  0.00     0.068 A 
ATOM      9 CL   UNL d   1      53.492  33.637  54.255  0.00  0.00    -0.081 Cl
ATOM     10 CL   UNL d   1      54.371  32.504  54.580  0.00  0.00    -0.082 Cl
ATOM     11  C   UNL d   1      53.707  31.506  53.665  0.00  0.00     0.012 A 
ATOM     12  C   UNL d   1      53.088  31.396  53.110  0.00  0.00     0.001 A 
ATOM     13  C   UNL d   1      52.595  32.010  52.920  0.00  0.00     0.003 A 
ENDBRANCH   1   6
BRANCH   3  14
ATOM     14  C   UNL d   1      50.390  34.538  53.188  0.00  0.00     0.036 C 
BRANCH  14  15
ATOM     15  C   UNL d   1      49.858  34.609  52.562  0.00  0.00     0.094 A 
ATOM     16  C   UNL d   1      49.194  35.083  52.623  0.00  0.00     0.288 A 
ATOM     17  N   UNL d   1      48.765  35.042  51.904  0.00  0.00    -0.163 NA
ATOM     18  O   UNL d   1      48.968  35.553  53.314  0.00  0.00    -0.265 OA
ATOM     19  C   UNL d   1      49.161  34.564  51.445  0.00  0.00     0.313 A 
ATOM     20  S   UNL d   1      49.852  34.271  51.820  0.00  0.00    -0.021 SA
ATOM     21  O   UNL d   1      48.865  34.410  50.678  0.00  0.00    -0.258 OA
ENDBRANCH  14  15
ENDBRANCH   3  14
TORSDOF 3
ENDMDL
