MODEL 1
REMARK VINA RESULT:      17.0      0.000      0.000
REMARK  3 active torsions:
REMARK  status: ('A' for Active; 'I' for Inactive)
REMARK    1  A    between atoms: C_6  and  C_1 
REMARK    2  A    between atoms: C_7  and  N_3 
REMARK    3  A    between atoms: C_10  and  C_7 
ROOT
ATOM      1  C   UNL d   1      46.223 -17.914  43.110  0.00  0.00     0.148 A 
ATOM      2  N   UNL d   1      46.235 -17.957  42.279  0.00  0.00    -0.227 NA
ATOM      3  N   UNL d   1      46.354 -18.684  43.375  0.00  0.00    -0.289 N 
ATOM      4  C   UNL d   1      46.443 -19.179  42.747  0.00  0.00     0.083 A 
ATOM      5  C   UNL d   1      46.369 -18.723  42.059  0.00  0.00     0.099 A 
ATOM      6  C   UNL d   1      46.583 -19.989  42.687  0.00  0.00     0.019 A 
ATOM      7  C   UNL d   1      46.438 -19.098  41.341  0.00  0.00     0.021 A 
ATOM      8  C   UNL d   1      46.646 -20.329  41.963  0.00  0.00     0.002 A 
ATOM      9  C   UNL d   1      46.572 -19.873  41.275  0.00  0.00     0.002 A 
ENDROOT
BRANCH   1  10
ATOM     10  C   UNL d   1      46.104 -17.238  43.571  0.00  0.00     0.035 A 
ATOM     11  C   UNL d   1      45.830 -16.543  43.223  0.00  0.00     0.005 A 
ATOM     12  C   UNL d   1      45.711 -15.866  43.685  0.00  0.00     0.021 A 
ATOM     13  C   UNL d   1      45.865 -15.884  44.494  0.00  0.00     0.103 A 
ATOM     14  C   UNL d   1      46.140 -16.581  44.844  0.00  0.00     0.021 A 
ATOM     15  N   UNL d   1      45.745 -15.208  44.955  0.00  0.00    -0.148 N 
ATOM     16  C   UNL d   1      46.259 -17.258  44.383  0.00  0.00     0.005 A 
ENDBRANCH   1  10
BRANCH   3  17
ATOM     17  C   UNL d   1      46.363 -18.760  44.187  0.00  0.00     0.082 C 
BRANCH  17  18
ATOM     18  C   UNL d   1      46.563 -19.453  44.565  0.00  0.00     0.019 C 
ATOM     19  C   UNL d   1      46.008 -19.976  44.868  0.00  0.00     0.002 C 
ENDBRANCH  17  18
ENDBRANCH   3  17
TORSDOF 3
ENDMDL
