MODEL 1
REMARK VINA RESULT:      18.3      0.000      0.000
REMARK  2 active torsions:
REMARK  status: ('A' for Active; 'I' for Inactive)
REMARK    1  A    between atoms: C_6  and  N_1 
REMARK    2  A    between atoms: C_11  and  C_6 
ROOT
ATOM      1  N   UNL d   1      44.507 -15.577  37.146  0.00  0.00    -0.251 N 
ATOM      2  C   UNL d   1      44.690 -16.274  36.731  0.00  0.00     0.378 A 
ATOM      3  C   UNL d   1      45.164 -15.075  37.089  0.00  0.00     0.092 A 
ATOM      4  O   UNL d   1      45.452 -16.206  36.419  0.00  0.00    -0.258 OA
ATOM      5  C   UNL d   1      45.750 -15.459  36.641  0.00  0.00     0.121 A 
ATOM      6  O   UNL d   1      44.187 -16.921  36.649  0.00  0.00    -0.237 OA
ATOM      7  C   UNL d   1      45.303 -14.319  37.387  0.00  0.00     0.020 A 
ATOM      8  C   UNL d   1      46.470 -15.082  36.497  0.00  0.00     0.026 A 
ATOM      9  C   UNL d   1      46.026 -13.949  37.237  0.00  0.00     0.002 A 
ATOM     10  C   UNL d   1      46.607 -14.329  36.794  0.00  0.00     0.002 A 
ATOM     11  C   UNL d   1      46.162 -13.186  37.540  0.00  0.00     0.000 C 
ENDROOT
BRANCH   1  12
ATOM     12  C   UNL d   1      43.817 -15.377  37.552  0.00  0.00     0.085 C 
BRANCH  12  13
ATOM     13  C   UNL d   1      43.093 -15.397  37.164  0.00  0.00     0.018 A 
ATOM     14  C   UNL d   1      42.886 -16.055  36.719  0.00  0.00     0.002 A 
ATOM     15  C   UNL d   1      42.155 -16.070  36.330  0.00  0.00     0.000 A 
ATOM     16  C   UNL d   1      41.642 -15.426  36.392  0.00  0.00     0.000 A 
ATOM     17  C   UNL d   1      41.856 -14.770  36.840  0.00  0.00     0.000 A 
ATOM     18  C   UNL d   1      42.583 -14.753  37.228  0.00  0.00     0.002 A 
ENDBRANCH  12  13
ENDBRANCH   1  12
TORSDOF 2
ENDMDL
MODEL 2
REMARK VINA RESULT:      19.4      7.116      7.795
REMARK  2 active torsions:
REMARK  status: ('A' for Active; 'I' for Inactive)
REMARK    1  A    between atoms: C_6  and  N_1 
REMARK    2  A    between atoms: C_11  and  C_6 
ROOT
ATOM      1  N   UNL d   1      46.552 -18.352  43.519  0.00  0.00    -0.251 N 
ATOM      2  C   UNL d   1      46.456 -18.866  44.165  0.00  0.00     0.378 A 
ATOM      3  C   UNL d   1      46.537 -18.813  42.830  0.00  0.00     0.092 A 
ATOM      4  O   UNL d   1      46.384 -19.639  43.882  0.00  0.00    -0.258 OA
ATOM      5  C   UNL d   1      46.434 -19.609  43.049  0.00  0.00     0.121 A 
ATOM      6  O   UNL d   1      46.438 -18.635  44.954  0.00  0.00    -0.237 OA
ATOM      7  C   UNL d   1      46.605 -18.611  42.034  0.00  0.00     0.020 A 
ATOM      8  C   UNL d   1      46.400 -20.194  42.468  0.00  0.00     0.026 A 
ATOM      9  C   UNL d   1      46.570 -19.203  41.459  0.00  0.00     0.002 A 
ATOM     10  C   UNL d   1      46.468 -19.991  41.676  0.00  0.00     0.002 A 
ATOM     11  C   UNL d   1      46.639 -18.994  40.656  0.00  0.00     0.000 C 
ENDROOT
BRANCH   1  12
ATOM     12  C   UNL d   1      46.646 -17.532  43.513  0.00  0.00     0.085 C 
BRANCH  12  13
ATOM     13  C   UNL d   1      46.143 -17.059  43.959  0.00  0.00     0.018 A 
ATOM     14  C   UNL d   1      45.637 -17.403  44.507  0.00  0.00     0.002 A 
ATOM     15  C   UNL d   1      45.133 -16.922  44.954  0.00  0.00     0.000 A 
ATOM     16  C   UNL d   1      45.141 -16.104  44.846  0.00  0.00     0.000 A 
ATOM     17  C   UNL d   1      45.650 -15.766  44.295  0.00  0.00     0.000 A 
ATOM     18  C   UNL d   1      46.153 -16.242  43.849  0.00  0.00     0.002 A 
ENDBRANCH  12  13
ENDBRANCH   1  12
TORSDOF 2
ENDMDL
MODEL 3
REMARK VINA RESULT:      19.4      0.736      3.437
REMARK  2 active torsions:
REMARK  status: ('A' for Active; 'I' for Inactive)
REMARK    1  A    between atoms: C_6  and  N_1 
REMARK    2  A    between atoms: C_11  and  C_6 
ROOT
ATOM      1  N   UNL d   1      44.105 -15.611  36.332  0.00  0.00    -0.251 N 
ATOM      2  C   UNL d   1      44.402 -16.388  36.331  0.00  0.00     0.378 A 
ATOM      3  C   UNL d   1      43.278 -15.661  36.332  0.00  0.00     0.092 A 
ATOM      4  O   UNL d   1      43.766 -16.916  36.330  0.00  0.00    -0.258 OA
ATOM      5  C   UNL d   1      43.063 -16.465  36.331  0.00  0.00     0.121 A 
ATOM      6  O   UNL d   1      45.200 -16.588  36.330  0.00  0.00    -0.237 OA
ATOM      7  C   UNL d   1      42.693 -15.080  36.333  0.00  0.00     0.020 A 
ATOM      8  C   UNL d   1      42.267 -16.678  36.331  0.00  0.00     0.026 A 
ATOM      9  C   UNL d   1      41.898 -15.302  36.333  0.00  0.00     0.002 A 
ATOM     10  C   UNL d   1      41.686 -16.097  36.332  0.00  0.00     0.002 A 
ATOM     11  C   UNL d   1      41.311 -14.711  36.334  0.00  0.00     0.000 C 
ENDROOT
BRANCH   1  12
ATOM     12  C   UNL d   1      44.516 -14.895  36.333  0.00  0.00     0.085 C 
BRANCH  12  13
ATOM     13  C   UNL d   1      45.228 -14.832  36.738  0.00  0.00     0.018 A 
ATOM     14  C   UNL d   1      45.917 -15.124  36.401  0.00  0.00     0.002 A 
ATOM     15  C   UNL d   1      46.631 -15.058  36.815  0.00  0.00     0.000 A 
ATOM     16  C   UNL d   1      46.646 -14.701  37.559  0.00  0.00     0.000 A 
ATOM     17  C   UNL d   1      45.951 -14.411  37.890  0.00  0.00     0.000 A 
ATOM     18  C   UNL d   1      45.239 -14.475  37.481  0.00  0.00     0.002 A 
ENDBRANCH  12  13
ENDBRANCH   1  12
TORSDOF 2
ENDMDL
