MODEL 1
REMARK VINA RESULT:      -7.7      0.000      0.000
REMARK  7 active torsions:
REMARK  status: ('A' for Active; 'I' for Inactive)
REMARK    1  A    between atoms: C_3  and  N_1 
REMARK       I    between atoms: C_2  and  N_8 
REMARK    2  A    between atoms: O_16  and  C_2 
REMARK    3  A    between atoms: C_7  and  C_5 
REMARK    4  A    between atoms: C_12  and  C_7 
REMARK    5  A    between atoms: N_8  and  C_14 
REMARK    6  A    between atoms: S_11  and  C_12 
REMARK    7  A    between atoms: C_15  and  S_11 
ROOT
ATOM      1  S   UNL d   1      52.568  33.010  53.316  0.00  0.00    -0.083 SA
ENDROOT
BRANCH   1   2
ATOM      2  C   UNL d   1      52.622  32.224  53.086  0.00  0.00     0.077 C 
BRANCH   2   3
ATOM      3  C   UNL d   1      53.256  31.761  53.341  0.00  0.00     0.202 C 
ATOM      4  O   UNL d   1      53.944  32.120  53.611  0.00  0.00    -0.286 OA
BRANCH   3   5
ATOM      5  C   UNL d   1      53.197  30.938  53.324  0.00  0.00     0.041 A 
ATOM      6  C   UNL d   1      53.278  30.508  54.016  0.00  0.00     0.027 A 
ATOM      7  C   UNL d   1      53.219  29.685  53.998  0.00  0.00     0.127 A 
ATOM      8  C   UNL d   1      53.077  29.296  53.280  0.00  0.00     0.024 A 
ATOM      9  C   UNL d   1      52.996  29.733  52.586  0.00  0.00     0.002 A 
ATOM     10  C   UNL d   1      53.055  30.549  52.606  0.00  0.00     0.003 A 
BRANCH   7  11
ATOM     11  N   UNL d   1      53.300  29.248  54.694  0.00  0.00    -0.114 N 
ATOM     12  O   UNL d   1      53.224  29.550  55.459  0.00  0.00    -0.532 OA
ATOM     13  O   UNL d   1      53.468  28.450  54.708  0.00  0.00    -0.532 OA
ENDBRANCH   7  11
ENDBRANCH   3   5
ENDBRANCH   2   3
ENDBRANCH   1   2
BRANCH   1  14
ATOM     14  C   UNL d   1      51.890  33.449  53.136  0.00  0.00     0.030 A 
ATOM     15  C   UNL d   1      51.914  34.085  52.591  0.00  0.00     0.008 A 
ATOM     16  C   UNL d   1      51.238  34.522  52.413  0.00  0.00     0.020 A 
ATOM     17  C   UNL d   1      50.521  34.335  52.775  0.00  0.00     0.087 A 
ATOM     18  C   UNL d   1      50.478  33.715  53.311  0.00  0.00     0.020 A 
ATOM     19  C   UNL d   1      51.155  33.278  53.490  0.00  0.00     0.008 A 
BRANCH  17  20
ATOM     20  N   UNL d   1      49.841  34.774  52.595  0.00  0.00    -0.186 NA
ATOM     21  C   UNL d   1      49.423  34.621  51.905  0.00  0.00     0.388 C 
ATOM     22  O   UNL d   1      49.678  34.029  51.389  0.00  0.00    -0.236 OA
BRANCH  21  23
ATOM     23  O   UNL d   1      48.747  35.058  51.726  0.00  0.00    -0.281 OA
ATOM     24  C   UNL d   1      48.322  34.894  51.038  0.00  0.00     0.186 C 
ENDBRANCH  21  23
ENDBRANCH  17  20
ENDBRANCH   1  14
TORSDOF 7
ENDMDL
MODEL 2
REMARK VINA RESULT:      -7.2      1.346      1.850
REMARK  7 active torsions:
REMARK  status: ('A' for Active; 'I' for Inactive)
REMARK    1  A    between atoms: C_3  and  N_1 
REMARK       I    between atoms: C_2  and  N_8 
REMARK    2  A    between atoms: O_16  and  C_2 
REMARK    3  A    between atoms: C_7  and  C_5 
REMARK    4  A    between atoms: C_12  and  C_7 
REMARK    5  A    between atoms: N_8  and  C_14 
REMARK    6  A    between atoms: S_11  and  C_12 
REMARK    7  A    between atoms: C_15  and  S_11 
ROOT
ATOM      1  S   UNL d   1      51.806  34.159  52.807  0.00  0.00    -0.083 SA
ENDROOT
BRANCH   1   2
ATOM      2  C   UNL d   1      52.082  33.405  52.980  0.00  0.00     0.077 C 
BRANCH   2   3
ATOM      3  C   UNL d   1      52.865  33.297  53.215  0.00  0.00     0.202 C 
ATOM      4  O   UNL d   1      53.387  33.931  53.210  0.00  0.00    -0.286 OA
BRANCH   3   5
ATOM      5  C   UNL d   1      53.123  32.550  53.453  0.00  0.00     0.041 A 
ATOM      6  C   UNL d   1      52.848  31.880  53.071  0.00  0.00     0.027 A 
ATOM      7  C   UNL d   1      53.106  31.134  53.310  0.00  0.00     0.127 A 
ATOM      8  C   UNL d   1      53.642  31.064  53.938  0.00  0.00     0.024 A 
ATOM      9  C   UNL d   1      53.916  31.740  54.321  0.00  0.00     0.002 A 
ATOM     10  C   UNL d   1      53.659  32.479  54.081  0.00  0.00     0.003 A 
BRANCH   7  11
ATOM     11  N   UNL d   1      52.831  30.457  52.926  0.00  0.00    -0.114 N 
ATOM     12  O   UNL d   1      52.321  29.895  53.255  0.00  0.00    -0.532 OA
ATOM     13  O   UNL d   1      53.034  30.256  52.163  0.00  0.00    -0.532 OA
ENDBRANCH   7  11
ENDBRANCH   3   5
ENDBRANCH   2   3
ENDBRANCH   1   2
BRANCH   1  14
ATOM     14  C   UNL d   1      51.037  34.262  52.517  0.00  0.00     0.030 A 
ATOM     15  C   UNL d   1      50.884  34.308  51.695  0.00  0.00     0.008 A 
ATOM     16  C   UNL d   1      50.118  34.411  51.406  0.00  0.00     0.020 A 
ATOM     17  C   UNL d   1      49.486  34.470  51.933  0.00  0.00     0.087 A 
ATOM     18  C   UNL d   1      49.617  34.427  52.743  0.00  0.00     0.020 A 
ATOM     19  C   UNL d   1      50.383  34.325  53.031  0.00  0.00     0.008 A 
BRANCH  17  20
ATOM     20  N   UNL d   1      48.716  34.574  51.644  0.00  0.00    -0.186 NA
ATOM     21  C   UNL d   1      48.286  35.242  51.850  0.00  0.00     0.388 C 
ATOM     22  O   UNL d   1      48.618  35.813  52.345  0.00  0.00    -0.236 OA
BRANCH  21  23
ATOM     23  O   UNL d   1      47.520  35.345  51.561  0.00  0.00    -0.281 OA
ATOM     24  C   UNL d   1      47.072  35.992  51.809  0.00  0.00     0.186 C 
ENDBRANCH  21  23
ENDBRANCH  17  20
ENDBRANCH   1  14
TORSDOF 7
ENDMDL
MODEL 3
REMARK VINA RESULT:      -7.2      2.091      2.663
REMARK  7 active torsions:
REMARK  status: ('A' for Active; 'I' for Inactive)
REMARK    1  A    between atoms: C_3  and  N_1 
REMARK       I    between atoms: C_2  and  N_8 
REMARK    2  A    between atoms: O_16  and  C_2 
REMARK    3  A    between atoms: C_7  and  C_5 
REMARK    4  A    between atoms: C_12  and  C_7 
REMARK    5  A    between atoms: N_8  and  C_14 
REMARK    6  A    between atoms: S_11  and  C_12 
REMARK    7  A    between atoms: C_15  and  S_11 
ROOT
ATOM      1  S   UNL d   1      51.752  33.146  52.600  0.00  0.00    -0.083 SA
ENDROOT
BRANCH   1   2
ATOM      2  C   UNL d   1      52.283  33.224  53.222  0.00  0.00     0.077 C 
BRANCH   2   3
ATOM      3  C   UNL d   1      52.954  32.745  53.254  0.00  0.00     0.202 C 
ATOM      4  O   UNL d   1      53.157  32.279  52.609  0.00  0.00    -0.286 OA
BRANCH   3   5
ATOM      5  C   UNL d   1      53.420  32.736  53.935  0.00  0.00     0.041 A 
ATOM      6  C   UNL d   1      53.837  33.405  54.155  0.00  0.00     0.027 A 
ATOM      7  C   UNL d   1      54.302  33.395  54.836  0.00  0.00     0.127 A 
ATOM      8  C   UNL d   1      54.346  32.707  55.297  0.00  0.00     0.024 A 
ATOM      9  C   UNL d   1      53.925  32.035  55.072  0.00  0.00     0.002 A 
ATOM     10  C   UNL d   1      53.464  32.048  54.396  0.00  0.00     0.003 A 
BRANCH   7  11
ATOM     11  N   UNL d   1      54.724  34.068  55.061  0.00  0.00    -0.114 N 
ATOM     12  O   UNL d   1      54.400  34.821  55.170  0.00  0.00    -0.532 OA
ATOM     13  O   UNL d   1      55.526  34.070  55.206  0.00  0.00    -0.532 OA
ENDBRANCH   7  11
ENDBRANCH   3   5
ENDBRANCH   2   3
ENDBRANCH   1   2
BRANCH   1  14
ATOM     14  C   UNL d   1      51.102  33.656  52.544  0.00  0.00     0.030 A 
ATOM     15  C   UNL d   1      50.976  34.126  51.861  0.00  0.00     0.008 A 
ATOM     16  C   UNL d   1      50.329  34.634  51.805  0.00  0.00     0.020 A 
ATOM     17  C   UNL d   1      49.792  34.686  52.429  0.00  0.00     0.087 A 
ATOM     18  C   UNL d   1      49.900  34.234  53.106  0.00  0.00     0.020 A 
ATOM     19  C   UNL d   1      50.548  33.725  53.162  0.00  0.00     0.008 A 
BRANCH  17  20
ATOM     20  N   UNL d   1      49.142  35.197  52.373  0.00  0.00    -0.186 NA
ATOM     21  C   UNL d   1      48.543  35.041  51.833  0.00  0.00     0.388 C 
ATOM     22  O   UNL d   1      48.587  34.376  51.346  0.00  0.00    -0.236 OA
BRANCH  21  23
ATOM     23  O   UNL d   1      47.896  35.550  51.777  0.00  0.00    -0.281 OA
ATOM     24  C   UNL d   1      47.238  35.329  51.330  0.00  0.00     0.186 C 
ENDBRANCH  21  23
ENDBRANCH  17  20
ENDBRANCH   1  14
TORSDOF 7
ENDMDL
MODEL 4
REMARK VINA RESULT:      -7.1      0.987      5.537
REMARK  7 active torsions:
REMARK  status: ('A' for Active; 'I' for Inactive)
REMARK    1  A    between atoms: C_3  and  N_1 
REMARK       I    between atoms: C_2  and  N_8 
REMARK    2  A    between atoms: O_16  and  C_2 
REMARK    3  A    between atoms: C_7  and  C_5 
REMARK    4  A    between atoms: C_12  and  C_7 
REMARK    5  A    between atoms: N_8  and  C_14 
REMARK    6  A    between atoms: S_11  and  C_12 
REMARK    7  A    between atoms: C_15  and  S_11 
ROOT
ATOM      1  S   UNL d   1      52.821  32.961  52.927  0.00  0.00    -0.083 SA
ENDROOT
BRANCH   1   2
ATOM      2  C   UNL d   1      52.043  33.223  52.956  0.00  0.00     0.077 C 
BRANCH   2   3
ATOM      3  C   UNL d   1      51.870  34.017  52.813  0.00  0.00     0.202 C 
ATOM      4  O   UNL d   1      52.477  34.551  52.669  0.00  0.00    -0.286 OA
BRANCH   3   5
ATOM      5  C   UNL d   1      51.085  34.273  52.814  0.00  0.00     0.041 A 
ATOM      6  C   UNL d   1      50.640  34.234  52.128  0.00  0.00     0.027 A 
ATOM      7  C   UNL d   1      49.856  34.490  52.131  0.00  0.00     0.127 A 
ATOM      8  C   UNL d   1      49.520  34.786  52.828  0.00  0.00     0.024 A 
ATOM      9  C   UNL d   1      49.971  34.824  53.517  0.00  0.00     0.002 A 
ATOM     10  C   UNL d   1      50.749  34.570  53.512  0.00  0.00     0.003 A 
BRANCH   7  11
ATOM     11  N   UNL d   1      49.404  34.452  51.441  0.00  0.00    -0.114 N 
ATOM     12  O   UNL d   1      49.707  34.434  50.672  0.00  0.00    -0.532 OA
ATOM     13  O   UNL d   1      48.589  34.426  51.435  0.00  0.00    -0.532 OA
ENDBRANCH   7  11
ENDBRANCH   3   5
ENDBRANCH   2   3
ENDBRANCH   1   2
BRANCH   1  14
ATOM     14  C   UNL d   1      52.997  32.169  53.093  0.00  0.00     0.030 A 
ATOM     15  C   UNL d   1      53.643  31.961  53.584  0.00  0.00     0.008 A 
ATOM     16  C   UNL d   1      53.819  31.172  53.749  0.00  0.00     0.020 A 
ATOM     17  C   UNL d   1      53.353  30.572  53.427  0.00  0.00     0.087 A 
ATOM     18  C   UNL d   1      52.716  30.758  52.944  0.00  0.00     0.020 A 
ATOM     19  C   UNL d   1      52.540  31.547  52.779  0.00  0.00     0.008 A 
BRANCH  17  20
ATOM     20  N   UNL d   1      53.530  29.779  53.593  0.00  0.00    -0.186 NA
ATOM     21  C   UNL d   1      53.323  29.456  54.319  0.00  0.00     0.388 C 
ATOM     22  O   UNL d   1      52.939  29.918  54.885  0.00  0.00    -0.236 OA
BRANCH  21  23
ATOM     23  O   UNL d   1      53.499  28.667  54.484  0.00  0.00    -0.281 OA
ATOM     24  C   UNL d   1      53.341  28.360  55.234  0.00  0.00     0.186 C 
ENDBRANCH  21  23
ENDBRANCH  17  20
ENDBRANCH   1  14
TORSDOF 7
ENDMDL
MODEL 5
REMARK VINA RESULT:      -7.0      2.350      6.473
REMARK  7 active torsions:
REMARK  status: ('A' for Active; 'I' for Inactive)
REMARK    1  A    between atoms: C_3  and  N_1 
REMARK       I    between atoms: C_2  and  N_8 
REMARK    2  A    between atoms: O_16  and  C_2 
REMARK    3  A    between atoms: C_7  and  C_5 
REMARK    4  A    between atoms: C_12  and  C_7 
REMARK    5  A    between atoms: N_8  and  C_14 
REMARK    6  A    between atoms: S_11  and  C_12 
REMARK    7  A    between atoms: C_15  and  S_11 
ROOT
ATOM      1  S   UNL d   1      49.912  34.240  51.860  0.00  0.00    -0.083 SA
ENDROOT
BRANCH   1   2
ATOM      2  C   UNL d   1      49.317  34.755  52.092  0.00  0.00     0.077 C 
BRANCH   2   3
ATOM      3  C   UNL d   1      48.704  34.939  51.571  0.00  0.00     0.202 C 
ATOM      4  O   UNL d   1      48.735  34.680  50.792  0.00  0.00    -0.286 OA
BRANCH   3   5
ATOM      5  C   UNL d   1      48.059  35.382  51.835  0.00  0.00     0.041 A 
ATOM      6  C   UNL d   1      47.317  35.256  51.514  0.00  0.00     0.027 A 
ATOM      7  C   UNL d   1      46.673  35.699  51.778  0.00  0.00     0.127 A 
ATOM      8  C   UNL d   1      46.780  36.272  52.367  0.00  0.00     0.024 A 
ATOM      9  C   UNL d   1      47.530  36.397  52.687  0.00  0.00     0.002 A 
ATOM     10  C   UNL d   1      48.166  35.956  52.424  0.00  0.00     0.003 A 
BRANCH   7  11
ATOM     11  N   UNL d   1      45.923  35.574  51.458  0.00  0.00    -0.114 N 
ATOM     12  O   UNL d   1      45.598  35.995  50.824  0.00  0.00    -0.532 OA
ATOM     13  O   UNL d   1      45.402  35.010  51.732  0.00  0.00    -0.532 OA
ENDBRANCH   7  11
ENDBRANCH   3   5
ENDBRANCH   2   3
ENDBRANCH   1   2
BRANCH   1  14
ATOM     14  C   UNL d   1      50.556  34.098  52.361  0.00  0.00     0.030 A 
ATOM     15  C   UNL d   1      50.497  33.562  53.003  0.00  0.00     0.008 A 
ATOM     16  C   UNL d   1      51.138  33.421  53.503  0.00  0.00     0.020 A 
ATOM     17  C   UNL d   1      51.853  33.811  53.373  0.00  0.00     0.087 A 
ATOM     18  C   UNL d   1      51.929  34.339  52.749  0.00  0.00     0.020 A 
ATOM     19  C   UNL d   1      51.288  34.480  52.249  0.00  0.00     0.008 A 
BRANCH  17  20
ATOM     20  N   UNL d   1      52.497  33.669  53.875  0.00  0.00    -0.186 NA
ATOM     21  C   UNL d   1      53.047  33.089  53.684  0.00  0.00     0.388 C 
ATOM     22  O   UNL d   1      52.959  32.646  52.993  0.00  0.00    -0.236 OA
BRANCH  21  23
ATOM     23  O   UNL d   1      53.688  32.947  54.184  0.00  0.00    -0.281 OA
ATOM     24  C   UNL d   1      54.329  32.505  53.913  0.00  0.00     0.186 C 
ENDBRANCH  21  23
ENDBRANCH  17  20
ENDBRANCH   1  14
TORSDOF 7
ENDMDL
MODEL 6
REMARK VINA RESULT:      -6.8      2.531      3.406
REMARK  7 active torsions:
REMARK  status: ('A' for Active; 'I' for Inactive)
REMARK    1  A    between atoms: C_3  and  N_1 
REMARK       I    between atoms: C_2  and  N_8 
REMARK    2  A    between atoms: O_16  and  C_2 
REMARK    3  A    between atoms: C_7  and  C_5 
REMARK    4  A    between atoms: C_12  and  C_7 
REMARK    5  A    between atoms: N_8  and  C_14 
REMARK    6  A    between atoms: S_11  and  C_12 
REMARK    7  A    between atoms: C_15  and  S_11 
ROOT
ATOM      1  S   UNL d   1      50.314  34.046  52.432  0.00  0.00    -0.083 SA
ENDROOT
BRANCH   1   2
ATOM      2  C   UNL d   1      50.978  34.350  52.808  0.00  0.00     0.077 C 
BRANCH   2   3
ATOM      3  C   UNL d   1      51.696  33.945  52.769  0.00  0.00     0.202 C 
ATOM      4  O   UNL d   1      51.807  33.358  52.205  0.00  0.00    -0.286 OA
BRANCH   3   5
ATOM      5  C   UNL d   1      52.302  34.131  53.297  0.00  0.00     0.041 A 
ATOM      6  C   UNL d   1      52.766  33.535  53.614  0.00  0.00     0.027 A 
ATOM      7  C   UNL d   1      53.372  33.721  54.142  0.00  0.00     0.127 A 
ATOM      8  C   UNL d   1      53.509  34.512  54.352  0.00  0.00     0.024 A 
ATOM      9  C   UNL d   1      53.039  35.108  54.031  0.00  0.00     0.002 A 
ATOM     10  C   UNL d   1      52.439  34.921  53.507  0.00  0.00     0.003 A 
BRANCH   7  11
ATOM     11  N   UNL d   1      53.842  33.124  54.463  0.00  0.00    -0.114 N 
ATOM     12  O   UNL d   1      53.743  32.790  55.213  0.00  0.00    -0.532 OA
ATOM     13  O   UNL d   1      54.471  32.785  54.072  0.00  0.00    -0.532 OA
ENDBRANCH   7  11
ENDBRANCH   3   5
ENDBRANCH   2   3
ENDBRANCH   1   2
BRANCH   1  14
ATOM     14  C   UNL d   1      49.659  34.533  52.290  0.00  0.00     0.030 A 
ATOM     15  C   UNL d   1      49.297  34.966  52.909  0.00  0.00     0.008 A 
ATOM     16  C   UNL d   1      48.645  35.451  52.767  0.00  0.00     0.020 A 
ATOM     17  C   UNL d   1      48.339  35.514  52.003  0.00  0.00     0.087 A 
ATOM     18  C   UNL d   1      48.682  35.097  51.385  0.00  0.00     0.020 A 
ATOM     19  C   UNL d   1      49.334  34.612  51.527  0.00  0.00     0.008 A 
BRANCH  17  20
ATOM     20  N   UNL d   1      47.684  36.001  51.861  0.00  0.00    -0.186 NA
ATOM     21  C   UNL d   1      46.948  35.668  51.713  0.00  0.00     0.388 C 
ATOM     22  O   UNL d   1      46.859  34.847  51.707  0.00  0.00    -0.236 OA
BRANCH  21  23
ATOM     23  O   UNL d   1      46.296  36.153  51.572  0.00  0.00    -0.281 OA
ATOM     24  C   UNL d   1      45.550  35.816  51.468  0.00  0.00     0.186 C 
ENDBRANCH  21  23
ENDBRANCH  17  20
ENDBRANCH   1  14
TORSDOF 7
ENDMDL
