MODEL 1
REMARK VINA RESULT:       0.3      0.000      0.000
REMARK  7 active torsions:
REMARK  status: ('A' for Active; 'I' for Inactive)
REMARK    1  A    between atoms: S_10  and  C_3 
REMARK    2  A    between atoms: C_12  and  C_7 
REMARK    3  A    between atoms: C_19  and  S_10 
REMARK    4  A    between atoms: C_11  and  C_19 
REMARK       I    between atoms: N_14  and  C_11 
REMARK    5  A    between atoms: C_13  and  C_15 
REMARK    6  A    between atoms: C_15  and  N_14 
REMARK    7  A    between atoms: O_21  and  C_17 
ROOT
ATOM      1  N   UNL d   1     -42.753-122.447 -50.030  0.00  0.00    -0.186 N 
ATOM      2  N   UNL d   1     -42.336-122.753 -49.399  0.00  0.00    -0.162 NA
ATOM      3  C   UNL d   1     -42.522-122.249 -50.799  0.00  0.00     0.217 A 
ATOM      4  C   UNL d   1     -43.556-122.280 -49.964  0.00  0.00     0.187 A 
ATOM      5  N   UNL d   1     -43.181-121.965 -51.190  0.00  0.00    -0.120 NA
ATOM      6  N   UNL d   1     -43.823-121.983 -50.673  0.00  0.00    -0.127 NA
ATOM      7  C   UNL d   1     -42.727-122.896 -48.685  0.00  0.00     0.103 A 
ATOM      8  C   UNL d   1     -43.946-122.424 -49.245  0.00  0.00     0.042 A 
ATOM      9  C   UNL d   1     -43.534-122.730 -48.612  0.00  0.00     0.024 A 
ENDROOT
BRANCH   3  10
ATOM     10  S   UNL d   1     -41.770-122.317 -51.131  0.00  0.00    -0.041 SA
BRANCH  10  11
ATOM     11  C   UNL d   1     -41.680-122.448 -51.927  0.00  0.00     0.101 C 
BRANCH  11  12
ATOM     12  C   UNL d   1     -41.329-123.133 -52.193  0.00  0.00     0.286 C 
ATOM     13  N   UNL d   1     -41.172-123.234 -52.996  0.00  0.00    -0.206 NA
ATOM     14  O   UNL d   1     -41.123-123.739 -51.671  0.00  0.00    -0.265 OA
BRANCH  13  15
ATOM     15  C   UNL d   1     -41.374-122.634 -53.526  0.00  0.00     0.104 C 
BRANCH  15  16
ATOM     16  C   UNL d   1     -41.498-122.815 -54.322  0.00  0.00     0.042 A 
ATOM     17  C   UNL d   1     -41.669-122.209 -54.863  0.00  0.00     0.096 A 
ATOM     18  C   UNL d   1     -41.793-122.384 -55.661  0.00  0.00     0.024 A 
ATOM     19  C   UNL d   1     -41.744-123.177 -55.914  0.00  0.00     0.002 A 
ATOM     20  C   UNL d   1     -41.573-123.774 -55.372  0.00  0.00     0.000 A 
ATOM     21  C   UNL d   1     -41.450-123.596 -54.580  0.00  0.00     0.004 A 
BRANCH  17  22
ATOM     22  O   UNL d   1     -41.718-121.425 -54.612  0.00  0.00    -0.328 OA
ATOM     23  C   UNL d   1     -42.091-120.866 -55.076  0.00  0.00     0.181 C 
ENDBRANCH  17  22
ENDBRANCH  15  16
ENDBRANCH  13  15
ENDBRANCH  11  12
ENDBRANCH  10  11
ENDBRANCH   3  10
BRANCH   7  24
ATOM     24  C   UNL d   1     -42.299-123.206 -48.049  0.00  0.00     0.039 A 
ATOM     25  C   UNL d   1     -41.537-123.458 -48.144  0.00  0.00     0.101 A 
ATOM     26  N   UNL d   1     -41.123-123.761 -47.517  0.00  0.00    -0.242 NA
ATOM     27  C   UNL d   1     -41.475-123.817 -46.772  0.00  0.00     0.099 A 
ATOM     28  C   UNL d   1     -42.250-123.561 -46.676  0.00  0.00     0.021 A 
ATOM     29  C   UNL d   1     -42.670-123.253 -47.315  0.00  0.00     0.005 A 
ENDBRANCH   7  24
TORSDOF 7
ENDMDL
MODEL 2
REMARK VINA RESULT:       2.9      1.468      5.996
REMARK  7 active torsions:
REMARK  status: ('A' for Active; 'I' for Inactive)
REMARK    1  A    between atoms: S_10  and  C_3 
REMARK    2  A    between atoms: C_12  and  C_7 
REMARK    3  A    between atoms: C_19  and  S_10 
REMARK    4  A    between atoms: C_11  and  C_19 
REMARK       I    between atoms: N_14  and  C_11 
REMARK    5  A    between atoms: C_13  and  C_15 
REMARK    6  A    between atoms: C_15  and  N_14 
REMARK    7  A    between atoms: O_21  and  C_17 
ROOT
ATOM      1  N   UNL d   1     -41.555-121.747 -52.686  0.00  0.00    -0.186 N 
ATOM      2  N   UNL d   1     -41.818-122.176 -53.328  0.00  0.00    -0.162 NA
ATOM      3  C   UNL d   1     -41.418-121.961 -51.899  0.00  0.00     0.217 A 
ATOM      4  C   UNL d   1     -41.372-120.948 -52.758  0.00  0.00     0.187 A 
ATOM      5  N   UNL d   1     -41.155-121.296 -51.504  0.00  0.00    -0.120 NA
ATOM      6  N   UNL d   1     -41.127-120.667 -52.035  0.00  0.00    -0.127 NA
ATOM      7  C   UNL d   1     -41.902-121.802 -54.060  0.00  0.00     0.103 A 
ATOM      8  C   UNL d   1     -41.458-120.574 -53.495  0.00  0.00     0.042 A 
ATOM      9  C   UNL d   1     -41.720-120.998 -54.139  0.00  0.00     0.024 A 
ENDROOT
BRANCH   3  10
ATOM     10  S   UNL d   1     -41.520-122.704 -51.556  0.00  0.00    -0.041 SA
BRANCH  10  11
ATOM     11  C   UNL d   1     -41.669-122.774 -50.760  0.00  0.00     0.101 C 
BRANCH  11  12
ATOM     12  C   UNL d   1     -42.168-123.356 -50.486  0.00  0.00     0.286 C 
ATOM     13  N   UNL d   1     -42.227-123.506 -49.678  0.00  0.00    -0.206 NA
ATOM     14  O   UNL d   1     -42.626-123.807 -51.007  0.00  0.00    -0.265 OA
BRANCH  13  15
ATOM     15  C   UNL d   1     -41.774-123.062 -49.151  0.00  0.00     0.104 C 
BRANCH  15  16
ATOM     16  C   UNL d   1     -41.775-123.252 -48.347  0.00  0.00     0.042 A 
ATOM     17  C   UNL d   1     -42.434-123.066 -47.878  0.00  0.00     0.096 A 
ATOM     18  C   UNL d   1     -42.440-123.255 -47.073  0.00  0.00     0.024 A 
ATOM     19  C   UNL d   1     -41.776-123.634 -46.741  0.00  0.00     0.002 A 
ATOM     20  C   UNL d   1     -41.125-123.816 -47.212  0.00  0.00     0.000 A 
ATOM     21  C   UNL d   1     -41.123-123.627 -48.011  0.00  0.00     0.004 A 
BRANCH  17  22
ATOM     22  O   UNL d   1     -43.090-122.691 -48.208  0.00  0.00    -0.328 OA
ATOM     23  C   UNL d   1     -43.670-122.377 -47.726  0.00  0.00     0.181 C 
ENDBRANCH  17  22
ENDBRANCH  15  16
ENDBRANCH  13  15
ENDBRANCH  11  12
ENDBRANCH  10  11
ENDBRANCH   3  10
BRANCH   7  24
ATOM     24  C   UNL d   1     -42.169-122.241 -54.707  0.00  0.00     0.039 A 
ATOM     25  C   UNL d   1     -41.748-122.874 -54.981  0.00  0.00     0.101 A 
ATOM     26  N   UNL d   1     -42.014-123.302 -55.617  0.00  0.00    -0.242 NA
ATOM     27  C   UNL d   1     -42.720-123.095 -55.992  0.00  0.00     0.099 A 
ATOM     28  C   UNL d   1     -43.148-122.452 -55.712  0.00  0.00     0.021 A 
ATOM     29  C   UNL d   1     -42.876-122.018 -55.066  0.00  0.00     0.005 A 
ENDBRANCH   7  24
TORSDOF 7
ENDMDL
