MODEL 1
REMARK VINA RESULT:      34.5      0.000      0.000
REMARK  3 active torsions:
REMARK  status: ('A' for Active; 'I' for Inactive)
REMARK       I    between atoms: N_2  and  C_1 
REMARK    1  A    between atoms: C_3  and  C_1 
REMARK    2  A    between atoms: C_6  and  N_2 
REMARK    3  A    between atoms: C_5  and  C_4 
ROOT
ATOM      1  C   UNL d   1     -57.619 -98.979 -44.518  0.00  0.00     0.279 C 
ATOM      2  N   UNL d   1     -57.011 -99.281 -44.043  0.00  0.00    -0.207 NA
ATOM      3  O   UNL d   1     -57.460 -98.756 -45.295  0.00  0.00    -0.265 OA
ENDROOT
BRANCH   1   4
ATOM      4  C   UNL d   1     -58.382 -98.904 -44.210  0.00  0.00     0.064 A 
ATOM      5  C   UNL d   1     -59.026 -98.873 -44.718  0.00  0.00     0.069 A 
ATOM      6  C   UNL d   1     -59.796 -98.797 -44.421  0.00  0.00     0.006 A 
ATOM      7  C   UNL d   1     -59.900 -98.755 -43.603  0.00  0.00     0.000 A 
ATOM      8  C   UNL d   1     -59.256 -98.786 -43.095  0.00  0.00     0.000 A 
ATOM      9  C   UNL d   1     -58.499 -98.861 -43.397  0.00  0.00     0.005 A 
BRANCH   5  10
ATOM     10  C   UNL d   1     -58.910 -98.916 -45.538  0.00  0.00     0.211 C 
ATOM     11  O   UNL d   1     -59.541 -99.120 -46.036  0.00  0.00    -0.644 OA
ATOM     12  O   UNL d   1     -58.165 -98.755 -45.856  0.00  0.00    -0.644 OA
ENDBRANCH   5  10
ENDBRANCH   1   4
BRANCH   2  13
ATOM     13  C   UNL d   1     -56.247 -99.358 -44.346  0.00  0.00     0.095 A 
ATOM     14  C   UNL d   1     -55.800-100.025 -44.174  0.00  0.00     0.075 A 
ATOM     15 CL   UNL d   1     -56.115-100.619 -43.698  0.00  0.00    -0.081 Cl
ATOM     16  C   UNL d   1     -55.042-100.101 -44.476  0.00  0.00     0.013 A 
ATOM     17  C   UNL d   1     -54.721 -99.504 -44.955  0.00  0.00     0.001 A 
ATOM     18  C   UNL d   1     -55.173 -98.835 -45.126  0.00  0.00     0.002 A 
ATOM     19  C   UNL d   1     -55.938 -98.762 -44.820  0.00  0.00     0.020 A 
ENDBRANCH   2  13
TORSDOF 3
ENDMDL
