MODEL 1
REMARK VINA RESULT:      -3.9      0.000      0.000
REMARK  2 active torsions:
REMARK  status: ('A' for Active; 'I' for Inactive)
REMARK    1  A    between atoms: S_4  and  C_1 
REMARK    2  A    between atoms: C_9  and  S_4 
ROOT
ATOM      1  C   UNL d   1      58.636   0.302  30.186  0.00  0.00     0.107 A 
ATOM      2  C   UNL d   1      59.382   0.317  30.556  0.00  0.00     0.201 A 
ATOM      3  C   UNL d   1      58.508  -0.054  29.484  0.00  0.00     0.201 A 
ATOM      4  C   UNL d   1      59.883  -0.433  29.429  0.00  0.00     0.043 A 
ATOM      5  C   UNL d   1      60.015  -0.056  30.171  0.00  0.00     0.020 A 
ATOM      6  C   UNL d   1      59.127  -0.427  29.093  0.00  0.00     0.020 A 
ATOM      7  O   UNL d   1      57.757  -0.036  29.172  0.00  0.00    -0.286 OA
ATOM      8  O   UNL d   1      59.526   0.680  31.278  0.00  0.00    -0.286 OA
ATOM      9  C   UNL d   1      60.033  -0.844  28.753  0.00  0.00     0.009 C 
ATOM     10  C   UNL d   1      60.684  -0.582  29.526  0.00  0.00     0.009 C 
ENDROOT
BRANCH   1  11
ATOM     11  S   UNL d   1      57.976   0.682  30.572  0.00  0.00    -0.081 SA
BRANCH  11  12
ATOM     12  C   UNL d   1      57.515   0.232  31.116  0.00  0.00     0.030 A 
ATOM     13  C   UNL d   1      57.398  -0.580  31.014  0.00  0.00     0.007 A 
ATOM     14  C   UNL d   1      56.941  -0.991  31.564  0.00  0.00     0.007 A 
ATOM     15  C   UNL d   1      56.605  -0.605  32.206  0.00  0.00     0.035 A 
ATOM     16  C   UNL d   1      56.729   0.205  32.297  0.00  0.00     0.007 A 
ATOM     17 BR   UNL d   1      56.145  -1.035  32.754  0.00  0.00    -0.049 Br
ATOM     18  C   UNL d   1      57.182   0.631  31.757  0.00  0.00     0.007 A 
ENDBRANCH  11  12
ENDBRANCH   1  11
TORSDOF 2
ENDMDL
MODEL 2
REMARK VINA RESULT:      -3.5      1.852      2.639
REMARK  2 active torsions:
REMARK  status: ('A' for Active; 'I' for Inactive)
REMARK    1  A    between atoms: S_4  and  C_1 
REMARK    2  A    between atoms: C_9  and  S_4 
ROOT
ATOM      1  C   UNL d   1      57.254  -0.431  32.137  0.00  0.00     0.107 A 
ATOM      2  C   UNL d   1      57.730   0.251  32.116  0.00  0.00     0.201 A 
ATOM      3  C   UNL d   1      57.055  -0.841  31.483  0.00  0.00     0.201 A 
ATOM      4  C   UNL d   1      57.800   0.078  30.685  0.00  0.00     0.043 A 
ATOM      5  C   UNL d   1      58.008   0.509  31.378  0.00  0.00     0.020 A 
ATOM      6  C   UNL d   1      57.323  -0.596  30.746  0.00  0.00     0.020 A 
ATOM      7  O   UNL d   1      56.586  -1.500  31.567  0.00  0.00    -0.286 OA
ATOM      8  O   UNL d   1      57.941   0.682  32.782  0.00  0.00    -0.286 OA
ATOM      9  C   UNL d   1      57.758  -0.129  29.908  0.00  0.00     0.009 C 
ATOM     10  C   UNL d   1      58.257   0.672  30.353  0.00  0.00     0.009 C 
ENDROOT
BRANCH   1  11
ATOM     11  S   UNL d   1      56.962  -0.707  32.891  0.00  0.00    -0.081 SA
BRANCH  11  12
ATOM     12  C   UNL d   1      56.273  -0.343  33.213  0.00  0.00     0.030 A 
ATOM     13  C   UNL d   1      56.324   0.323  33.701  0.00  0.00     0.007 A 
ATOM     14  C   UNL d   1      55.631   0.656  34.000  0.00  0.00     0.007 A 
ATOM     15  C   UNL d   1      54.898   0.334  33.819  0.00  0.00     0.035 A 
ATOM     16  C   UNL d   1      54.859  -0.330  33.332  0.00  0.00     0.007 A 
ATOM     17 BR   UNL d   1      54.205   0.682  34.130  0.00  0.00    -0.049 Br
ATOM     18  C   UNL d   1      55.541  -0.674  33.025  0.00  0.00     0.007 A 
ENDBRANCH  11  12
ENDBRANCH   1  11
TORSDOF 2
ENDMDL
MODEL 3
REMARK VINA RESULT:      -3.4      1.567      3.256
REMARK  2 active torsions:
REMARK  status: ('A' for Active; 'I' for Inactive)
REMARK    1  A    between atoms: S_4  and  C_1 
REMARK    2  A    between atoms: C_9  and  S_4 
ROOT
ATOM      1  C   UNL d   1      58.265   0.680  30.691  0.00  0.00     0.107 A 
ATOM      2  C   UNL d   1      58.683   0.680  31.411  0.00  0.00     0.201 A 
ATOM      3  C   UNL d   1      57.468   0.680  30.652  0.00  0.00     0.201 A 
ATOM      4  C   UNL d   1      57.402   0.679  32.078  0.00  0.00     0.043 A 
ATOM      5  C   UNL d   1      58.245   0.679  32.115  0.00  0.00     0.020 A 
ATOM      6  C   UNL d   1      57.023   0.679  31.343  0.00  0.00     0.020 A 
ATOM      7  O   UNL d   1      57.117   0.680  29.918  0.00  0.00    -0.286 OA
ATOM      8  O   UNL d   1      59.502   0.681  31.463  0.00  0.00    -0.286 OA
ATOM      9  C   UNL d   1      56.635   0.678  32.322  0.00  0.00     0.009 C 
ATOM     10  C   UNL d   1      57.510   0.678  32.891  0.00  0.00     0.009 C 
ENDROOT
BRANCH   1  11
ATOM     11  S   UNL d   1      58.704   0.681  29.959  0.00  0.00    -0.081 SA
BRANCH  11  12
ATOM     12  C   UNL d   1      58.986  -0.054  29.658  0.00  0.00     0.030 A 
ATOM     13  C   UNL d   1      58.465  -0.643  29.400  0.00  0.00     0.007 A 
ATOM     14  C   UNL d   1      58.772  -1.352  29.111  0.00  0.00     0.007 A 
ATOM     15  C   UNL d   1      59.583  -1.477  29.078  0.00  0.00     0.035 A 
ATOM     16  C   UNL d   1      60.093  -0.883  29.337  0.00  0.00     0.007 A 
ATOM     17 BR   UNL d   1      59.879  -2.200  28.783  0.00  0.00    -0.049 Br
ATOM     18  C   UNL d   1      59.802  -0.169  29.629  0.00  0.00     0.007 A 
ENDBRANCH  11  12
ENDBRANCH   1  11
TORSDOF 2
ENDMDL
MODEL 4
REMARK VINA RESULT:      -3.2      1.541      3.457
REMARK  2 active torsions:
REMARK  status: ('A' for Active; 'I' for Inactive)
REMARK    1  A    between atoms: S_4  and  C_1 
REMARK    2  A    between atoms: C_9  and  S_4 
ROOT
ATOM      1  C   UNL d   1      58.230   0.679  30.821  0.00  0.00     0.107 A 
ATOM      2  C   UNL d   1      57.401   0.676  30.744  0.00  0.00     0.201 A 
ATOM      3  C   UNL d   1      58.600   0.679  31.528  0.00  0.00     0.201 A 
ATOM      4  C   UNL d   1      57.333   0.673  32.186  0.00  0.00     0.043 A 
ATOM      5  C   UNL d   1      56.946   0.673  31.437  0.00  0.00     0.020 A 
ATOM      6  C   UNL d   1      58.160   0.676  32.222  0.00  0.00     0.020 A 
ATOM      7  O   UNL d   1      59.413   0.681  31.539  0.00  0.00    -0.286 OA
ATOM      8  O   UNL d   1      57.010   0.676  30.022  0.00  0.00    -0.286 OA
ATOM      9  C   UNL d   1      57.434   0.672  32.984  0.00  0.00     0.009 C 
ATOM     10  C   UNL d   1      56.550   0.670  32.429  0.00  0.00     0.009 C 
ENDROOT
BRANCH   1  11
ATOM     11  S   UNL d   1      58.710   0.681  30.115  0.00  0.00    -0.081 SA
BRANCH  11  12
ATOM     12  C   UNL d   1      58.934  -0.058  29.777  0.00  0.00     0.030 A 
ATOM     13  C   UNL d   1      58.377  -0.653  29.634  0.00  0.00     0.007 A 
ATOM     14  C   UNL d   1      58.628  -1.366  29.303  0.00  0.00     0.007 A 
ATOM     15  C   UNL d   1      59.418  -1.488  29.117  0.00  0.00     0.035 A 
ATOM     16  C   UNL d   1      59.964  -0.888  29.264  0.00  0.00     0.007 A 
ATOM     17 BR   UNL d   1      59.657  -2.215  28.782  0.00  0.00    -0.049 Br
ATOM     18  C   UNL d   1      59.730  -0.171  29.594  0.00  0.00     0.007 A 
ENDBRANCH  11  12
ENDBRANCH   1  11
TORSDOF 2
ENDMDL
MODEL 5
REMARK VINA RESULT:      -3.1      1.004      1.327
REMARK  2 active torsions:
REMARK  status: ('A' for Active; 'I' for Inactive)
REMARK    1  A    between atoms: S_4  and  C_1 
REMARK    2  A    between atoms: C_9  and  S_4 
ROOT
ATOM      1  C   UNL d   1      59.121  -0.609  29.273  0.00  0.00     0.107 A 
ATOM      2  C   UNL d   1      59.865  -0.418  29.594  0.00  0.00     0.201 A 
ATOM      3  C   UNL d   1      58.981  -1.285  28.874  0.00  0.00     0.201 A 
ATOM      4  C   UNL d   1      60.340  -1.676  29.069  0.00  0.00     0.043 A 
ATOM      5  C   UNL d   1      60.484  -0.960  29.490  0.00  0.00     0.020 A 
ATOM      6  C   UNL d   1      59.586  -1.830  28.764  0.00  0.00     0.020 A 
ATOM      7  O   UNL d   1      58.233  -1.416  28.583  0.00  0.00    -0.286 OA
ATOM      8  O   UNL d   1      60.020   0.274  30.006  0.00  0.00    -0.286 OA
ATOM      9  C   UNL d   1      60.475  -2.393  28.729  0.00  0.00     0.009 C 
ATOM     10  C   UNL d   1      61.133  -1.774  29.252  0.00  0.00     0.009 C 
ENDROOT
BRANCH   1  11
ATOM     11  S   UNL d   1      58.475  -0.059  29.373  0.00  0.00    -0.081 SA
BRANCH  11  12
ATOM     12  C   UNL d   1      58.042  -0.075  30.096  0.00  0.00     0.030 A 
ATOM     13  C   UNL d   1      57.806  -0.789  30.442  0.00  0.00     0.007 A 
ATOM     14  C   UNL d   1      57.382  -0.771  31.149  0.00  0.00     0.007 A 
ATOM     15  C   UNL d   1      57.195  -0.057  31.510  0.00  0.00     0.035 A 
ATOM     16  C   UNL d   1      57.435   0.648  31.156  0.00  0.00     0.007 A 
ATOM     17 BR   UNL d   1      56.766  -0.055  32.226  0.00  0.00    -0.049 Br
ATOM     18  C   UNL d   1      57.859   0.647  30.449  0.00  0.00     0.007 A 
ENDBRANCH  11  12
ENDBRANCH   1  11
TORSDOF 2
ENDMDL
MODEL 6
REMARK VINA RESULT:      -2.7      2.344      3.817
REMARK  2 active torsions:
REMARK  status: ('A' for Active; 'I' for Inactive)
REMARK    1  A    between atoms: S_4  and  C_1 
REMARK    2  A    between atoms: C_9  and  S_4 
ROOT
ATOM      1  C   UNL d   1      58.589  -1.165  29.188  0.00  0.00     0.107 A 
ATOM      2  C   UNL d   1      58.110  -1.413  29.822  0.00  0.00     0.201 A 
ATOM      3  C   UNL d   1      58.889  -0.428  29.134  0.00  0.00     0.201 A 
ATOM      4  C   UNL d   1      58.255  -0.084  30.366  0.00  0.00     0.043 A 
ATOM      5  C   UNL d   1      57.940  -0.864  30.419  0.00  0.00     0.020 A 
ATOM      6  C   UNL d   1      58.728   0.125  29.720  0.00  0.00     0.020 A 
ATOM      7  O   UNL d   1      59.352  -0.245  28.490  0.00  0.00    -0.286 OA
ATOM      8  O   UNL d   1      57.796  -2.168  29.888  0.00  0.00    -0.286 OA
ATOM      9  C   UNL d   1      58.414   0.682  30.557  0.00  0.00     0.009 C 
ATOM     10  C   UNL d   1      57.842  -0.023  31.071  0.00  0.00     0.009 C 
ENDROOT
BRANCH   1  11
ATOM     11  S   UNL d   1      58.771  -1.721  28.566  0.00  0.00    -0.081 SA
BRANCH  11  12
ATOM     12  C   UNL d   1      59.382  -2.287  28.699  0.00  0.00     0.030 A 
ATOM     13  C   UNL d   1      60.168  -2.056  28.810  0.00  0.00     0.007 A 
ATOM     14  C   UNL d   1      60.742  -2.635  28.937  0.00  0.00     0.007 A 
ATOM     15  C   UNL d   1      60.541  -3.430  28.956  0.00  0.00     0.035 A 
ATOM     16  C   UNL d   1      59.754  -3.649  28.844  0.00  0.00     0.007 A 
ATOM     17 BR   UNL d   1      61.133  -4.004  29.086  0.00  0.00    -0.049 Br
ATOM     18  C   UNL d   1      59.168  -3.084  28.715  0.00  0.00     0.007 A 
ENDBRANCH  11  12
ENDBRANCH   1  11
TORSDOF 2
ENDMDL
