MODEL 1
REMARK VINA RESULT:      -4.6      0.000      0.000
REMARK  3 active torsions:
REMARK  status: ('A' for Active; 'I' for Inactive)
REMARK    1  A    between atoms: C_4  and  C_1 
REMARK    2  A    between atoms: C_6  and  C_4 
REMARK    3  A    between atoms: N_5  and  C_7 
ROOT
ATOM      1  C   UNL d   1      58.018  -0.089  30.383  0.00  0.00     0.231 C 
ATOM      2  O   UNL d   1      58.202   0.682  30.189  0.00  0.00    -0.283 OA
ENDROOT
BRANCH   1   3
ATOM      3  C   UNL d   1      57.556  -0.260  31.054  0.00  0.00     0.188 A 
ATOM      4  N   UNL d   1      56.954  -0.814  31.094  0.00  0.00    -0.224 NA
ATOM      5  C   UNL d   1      56.628  -0.816  31.864  0.00  0.00     0.099 A 
ATOM      6  C   UNL d   1      56.036  -1.236  32.219  0.00  0.00     0.021 A 
ATOM      7  C   UNL d   1      57.052  -0.240  32.303  0.00  0.00     0.083 A 
ATOM      8  C   UNL d   1      55.852  -1.103  32.991  0.00  0.00     0.002 A 
ATOM      9  C   UNL d   1      56.244  -0.547  33.455  0.00  0.00     0.002 A 
ATOM     10  C   UNL d   1      56.851  -0.120  33.084  0.00  0.00     0.019 A 
ATOM     11  N   UNL d   1      57.617   0.087  31.780  0.00  0.00    -0.285 N 
ATOM     12  C   UNL d   1      58.188   0.678  31.906  0.00  0.00     0.101 C 
ENDBRANCH   1   3
BRANCH   1  13
ATOM     13  C   UNL d   1      58.300  -0.725  29.897  0.00  0.00     0.064 A 
ATOM     14  C   UNL d   1      58.505  -0.592  29.117  0.00  0.00     0.130 A 
ATOM     15  C   UNL d   1      58.777  -1.211  28.649  0.00  0.00     0.024 A 
ATOM     16  C   UNL d   1      58.846  -1.972  28.961  0.00  0.00     0.002 A 
ATOM     17  C   UNL d   1      58.632  -2.092  29.763  0.00  0.00     0.000 A 
ATOM     18  C   UNL d   1      58.359  -1.475  30.235  0.00  0.00     0.005 A 
BRANCH  14  19
ATOM     19  N   UNL d   1      58.438   0.170  28.796  0.00  0.00    -0.114 N 
ATOM     20  O   UNL d   1      59.144   0.575  28.724  0.00  0.00    -0.532 OA
ATOM     21  O   UNL d   1      57.692   0.491  28.565  0.00  0.00    -0.532 OA
ENDBRANCH  14  19
ENDBRANCH   1  13
TORSDOF 3
ENDMDL
MODEL 2
REMARK VINA RESULT:      -3.8      1.504      2.349
REMARK  3 active torsions:
REMARK  status: ('A' for Active; 'I' for Inactive)
REMARK    1  A    between atoms: C_4  and  C_1 
REMARK    2  A    between atoms: C_6  and  C_4 
REMARK    3  A    between atoms: N_5  and  C_7 
ROOT
ATOM      1  C   UNL d   1      59.264  -1.012  29.069  0.00  0.00     0.231 C 
ATOM      2  O   UNL d   1      59.796  -0.509  28.708  0.00  0.00    -0.283 OA
ENDROOT
BRANCH   1   3
ATOM      3  C   UNL d   1      58.715  -0.722  29.624  0.00  0.00     0.188 A 
ATOM      4  N   UNL d   1      58.401  -1.144  30.253  0.00  0.00    -0.224 NA
ATOM      5  C   UNL d   1      57.871  -0.655  30.677  0.00  0.00     0.099 A 
ATOM      6  C   UNL d   1      57.410  -0.767  31.331  0.00  0.00     0.021 A 
ATOM      7  C   UNL d   1      57.868   0.088  30.287  0.00  0.00     0.083 A 
ATOM      8  C   UNL d   1      56.949  -0.170  31.609  0.00  0.00     0.002 A 
ATOM      9  C   UNL d   1      56.918   0.573  31.255  0.00  0.00     0.002 A 
ATOM     10  C   UNL d   1      57.394   0.682  30.584  0.00  0.00     0.019 A 
ATOM     11  N   UNL d   1      58.396   0.019  29.642  0.00  0.00    -0.285 N 
ATOM     12  C   UNL d   1      58.615   0.575  29.064  0.00  0.00     0.101 C 
ENDBRANCH   1   3
BRANCH   1  13
ATOM     13  C   UNL d   1      59.269  -1.839  28.878  0.00  0.00     0.064 A 
ATOM     14  C   UNL d   1      59.959  -2.273  28.932  0.00  0.00     0.130 A 
ATOM     15  C   UNL d   1      59.960  -3.074  28.747  0.00  0.00     0.024 A 
ATOM     16  C   UNL d   1      59.265  -3.448  28.505  0.00  0.00     0.002 A 
ATOM     17  C   UNL d   1      58.565  -2.989  28.455  0.00  0.00     0.000 A 
ATOM     18  C   UNL d   1      58.560  -2.186  28.640  0.00  0.00     0.005 A 
BRANCH  14  19
ATOM     19  N   UNL d   1      60.662  -1.904  29.174  0.00  0.00    -0.114 N 
ATOM     20  O   UNL d   1      61.031  -1.458  28.598  0.00  0.00    -0.532 OA
ATOM     21  O   UNL d   1      60.962  -1.992  29.958  0.00  0.00    -0.532 OA
ENDBRANCH  14  19
ENDBRANCH   1  13
TORSDOF 3
ENDMDL
MODEL 3
REMARK VINA RESULT:      -3.5      2.134      3.864
REMARK  3 active torsions:
REMARK  status: ('A' for Active; 'I' for Inactive)
REMARK    1  A    between atoms: C_4  and  C_1 
REMARK    2  A    between atoms: C_6  and  C_4 
REMARK    3  A    between atoms: N_5  and  C_7 
ROOT
ATOM      1  C   UNL d   1      56.984   0.159  32.557  0.00  0.00     0.231 C 
ATOM      2  O   UNL d   1      57.133   0.682  33.165  0.00  0.00    -0.283 OA
ENDROOT
BRANCH   1   3
ATOM      3  C   UNL d   1      57.324   0.273  31.805  0.00  0.00     0.188 A 
ATOM      4  N   UNL d   1      56.920   0.279  31.092  0.00  0.00    -0.224 NA
ATOM      5  C   UNL d   1      57.461   0.410  30.468  0.00  0.00     0.099 A 
ATOM      6  C   UNL d   1      57.385   0.469  29.666  0.00  0.00     0.021 A 
ATOM      7  C   UNL d   1      58.218   0.486  30.821  0.00  0.00     0.083 A 
ATOM      8  C   UNL d   1      58.031   0.601  29.205  0.00  0.00     0.002 A 
ATOM      9  C   UNL d   1      58.791   0.682  29.514  0.00  0.00     0.002 A 
ATOM     10  C   UNL d   1      58.862   0.620  30.338  0.00  0.00     0.019 A 
ATOM     11  N   UNL d   1      58.105   0.398  31.645  0.00  0.00    -0.285 N 
ATOM     12  C   UNL d   1      58.654   0.421  32.269  0.00  0.00     0.101 C 
ENDBRANCH   1   3
BRANCH   1  13
ATOM     13  C   UNL d   1      56.478  -0.509  32.689  0.00  0.00     0.064 A 
ATOM     14  C   UNL d   1      55.823  -0.444  33.173  0.00  0.00     0.130 A 
ATOM     15  C   UNL d   1      55.335  -1.093  33.299  0.00  0.00     0.024 A 
ATOM     16  C   UNL d   1      55.500  -1.817  32.939  0.00  0.00     0.002 A 
ATOM     17  C   UNL d   1      56.176  -1.868  32.445  0.00  0.00     0.000 A 
ATOM     18  C   UNL d   1      56.668  -1.220  32.316  0.00  0.00     0.005 A 
BRANCH  14  19
ATOM     19  N   UNL d   1      55.650   0.280  33.539  0.00  0.00    -0.114 N 
ATOM     20  O   UNL d   1      55.012   0.681  33.222  0.00  0.00    -0.532 OA
ATOM     21  O   UNL d   1      56.105   0.569  34.189  0.00  0.00    -0.532 OA
ENDBRANCH  14  19
ENDBRANCH   1  13
TORSDOF 3
ENDMDL
MODEL 4
REMARK VINA RESULT:      -3.0      1.155      1.731
REMARK  3 active torsions:
REMARK  status: ('A' for Active; 'I' for Inactive)
REMARK    1  A    between atoms: C_4  and  C_1 
REMARK    2  A    between atoms: C_6  and  C_4 
REMARK    3  A    between atoms: N_5  and  C_7 
ROOT
ATOM      1  C   UNL d   1      58.171   0.107  30.209  0.00  0.00     0.231 C 
ATOM      2  O   UNL d   1      57.866   0.037  29.455  0.00  0.00    -0.283 OA
ENDROOT
BRANCH   1   3
ATOM      3  C   UNL d   1      57.687  -0.010  30.876  0.00  0.00     0.188 A 
ATOM      4  N   UNL d   1      57.488   0.559  31.431  0.00  0.00    -0.224 NA
ATOM      5  C   UNL d   1      56.993   0.219  32.013  0.00  0.00     0.099 A 
ATOM      6  C   UNL d   1      56.635   0.505  32.678  0.00  0.00     0.021 A 
ATOM      7  C   UNL d   1      56.891  -0.585  31.798  0.00  0.00     0.083 A 
ATOM      8  C   UNL d   1      56.181   0.023  33.134  0.00  0.00     0.002 A 
ATOM      9  C   UNL d   1      56.056  -0.773  32.957  0.00  0.00     0.002 A 
ATOM     10  C   UNL d   1      56.427  -1.060  32.273  0.00  0.00     0.019 A 
ATOM     11  N   UNL d   1      57.329  -0.700  31.095  0.00  0.00    -0.285 N 
ATOM     12  C   UNL d   1      57.432  -1.381  30.630  0.00  0.00     0.101 C 
ENDBRANCH   1   3
BRANCH   1  13
ATOM     13  C   UNL d   1      58.990   0.302  30.316  0.00  0.00     0.064 A 
ATOM     14  C   UNL d   1      59.502   0.305  29.680  0.00  0.00     0.130 A 
ATOM     15  C   UNL d   1      60.295   0.494  29.788  0.00  0.00     0.024 A 
ATOM     16  C   UNL d   1      60.582   0.682  30.538  0.00  0.00     0.002 A 
ATOM     17  C   UNL d   1      60.044   0.674  31.181  0.00  0.00     0.000 A 
ATOM     18  C   UNL d   1      59.248   0.485  31.078  0.00  0.00     0.005 A 
BRANCH  14  19
ATOM     19  N   UNL d   1      59.222   0.118  28.922  0.00  0.00    -0.114 N 
ATOM     20  O   UNL d   1      59.486  -0.597  28.626  0.00  0.00    -0.532 OA
ATOM     21  O   UNL d   1      58.705   0.634  28.500  0.00  0.00    -0.532 OA
ENDBRANCH  14  19
ENDBRANCH   1  13
TORSDOF 3
ENDMDL
MODEL 5
REMARK VINA RESULT:      -2.6      1.664      3.963
REMARK  3 active torsions:
REMARK  status: ('A' for Active; 'I' for Inactive)
REMARK    1  A    between atoms: C_4  and  C_1 
REMARK    2  A    between atoms: C_6  and  C_4 
REMARK    3  A    between atoms: N_5  and  C_7 
ROOT
ATOM      1  C   UNL d   1      56.929  -0.602  31.572  0.00  0.00     0.231 C 
ATOM      2  O   UNL d   1      56.326  -1.152  31.579  0.00  0.00    -0.283 OA
ENDROOT
BRANCH   1   3
ATOM      3  C   UNL d   1      57.368  -0.460  30.878  0.00  0.00     0.188 A 
ATOM      4  N   UNL d   1      57.464   0.266  30.512  0.00  0.00    -0.224 NA
ATOM      5  C   UNL d   1      57.942   0.173  29.832  0.00  0.00     0.099 A 
ATOM      6  C   UNL d   1      58.217   0.682  29.268  0.00  0.00     0.021 A 
ATOM      7  C   UNL d   1      58.140  -0.641  29.791  0.00  0.00     0.083 A 
ATOM      8  C   UNL d   1      58.679   0.412  28.668  0.00  0.00     0.002 A 
ATOM      9  C   UNL d   1      58.896  -0.380  28.593  0.00  0.00     0.002 A 
ATOM     10  C   UNL d   1      58.610  -0.897  29.175  0.00  0.00     0.019 A 
ATOM     11  N   UNL d   1      57.774  -1.008  30.447  0.00  0.00    -0.285 N 
ATOM     12  C   UNL d   1      57.775  -1.803  30.690  0.00  0.00     0.101 C 
ENDBRANCH   1   3
BRANCH   1  13
ATOM     13  C   UNL d   1      57.112  -0.168  32.278  0.00  0.00     0.064 A 
ATOM     14  C   UNL d   1      56.601  -0.179  32.915  0.00  0.00     0.130 A 
ATOM     15  C   UNL d   1      56.782   0.243  33.598  0.00  0.00     0.024 A 
ATOM     16  C   UNL d   1      57.479   0.681  33.647  0.00  0.00     0.002 A 
ATOM     17  C   UNL d   1      57.993   0.682  32.984  0.00  0.00     0.000 A 
ATOM     18  C   UNL d   1      57.816   0.261  32.298  0.00  0.00     0.005 A 
BRANCH  14  19
ATOM     19  N   UNL d   1      55.898  -0.617  32.875  0.00  0.00    -0.114 N 
ATOM     20  O   UNL d   1      55.261  -0.214  32.559  0.00  0.00    -0.532 OA
ATOM     21  O   UNL d   1      55.856  -1.416  33.143  0.00  0.00    -0.532 OA
ENDBRANCH  14  19
ENDBRANCH   1  13
TORSDOF 3
ENDMDL
MODEL 6
REMARK VINA RESULT:      -2.0      1.734      2.180
REMARK  3 active torsions:
REMARK  status: ('A' for Active; 'I' for Inactive)
REMARK    1  A    between atoms: C_4  and  C_1 
REMARK    2  A    between atoms: C_6  and  C_4 
REMARK    3  A    between atoms: N_5  and  C_7 
ROOT
ATOM      1  C   UNL d   1      58.615  -1.070  29.305  0.00  0.00     0.231 C 
ATOM      2  O   UNL d   1      58.236  -1.317  28.627  0.00  0.00    -0.283 OA
ENDROOT
BRANCH   1   3
ATOM      3  C   UNL d   1      58.184  -0.754  29.944  0.00  0.00     0.188 A 
ATOM      4  N   UNL d   1      58.031  -1.133  30.654  0.00  0.00    -0.224 NA
ATOM      5  C   UNL d   1      57.581  -0.629  31.147  0.00  0.00     0.099 A 
ATOM      6  C   UNL d   1      57.276  -0.703  31.892  0.00  0.00     0.021 A 
ATOM      7  C   UNL d   1      57.460   0.079  30.715  0.00  0.00     0.083 A 
ATOM      8  C   UNL d   1      56.857  -0.100  32.220  0.00  0.00     0.002 A 
ATOM      9  C   UNL d   1      56.716   0.611  31.828  0.00  0.00     0.002 A 
ATOM     10  C   UNL d   1      57.032   0.680  31.064  0.00  0.00     0.019 A 
ATOM     11  N   UNL d   1      57.841  -0.024  29.978  0.00  0.00    -0.285 N 
ATOM     12  C   UNL d   1      57.905   0.490  29.328  0.00  0.00     0.101 C 
ENDBRANCH   1   3
BRANCH   1  13
ATOM     13  C   UNL d   1      59.460  -1.133  29.363  0.00  0.00     0.064 A 
ATOM     14  C   UNL d   1      59.830  -1.852  29.249  0.00  0.00     0.130 A 
ATOM     15  C   UNL d   1      60.649  -1.910  29.306  0.00  0.00     0.024 A 
ATOM     16  C   UNL d   1      61.104  -1.244  29.479  0.00  0.00     0.002 A 
ATOM     17  C   UNL d   1      60.709  -0.513  29.593  0.00  0.00     0.000 A 
ATOM     18  C   UNL d   1      59.889  -0.450  29.537  0.00  0.00     0.005 A 
BRANCH  14  19
ATOM     19  N   UNL d   1      59.380  -2.527  29.076  0.00  0.00    -0.114 N 
ATOM     20  O   UNL d   1      59.536  -3.175  29.549  0.00  0.00    -0.532 OA
ATOM     21  O   UNL d   1      58.808  -2.531  28.455  0.00  0.00    -0.532 OA
ENDBRANCH  14  19
ENDBRANCH   1  13
TORSDOF 3
ENDMDL
