MODEL 1
REMARK VINA RESULT:      53.2      0.000      0.000
REMARK  3 active torsions:
REMARK  status: ('A' for Active; 'I' for Inactive)
REMARK    1  A    between atoms: C_5  and  N_1 
REMARK    2  A    between atoms: C_11  and  C_3 
REMARK    3  A    between atoms: C_7  and  C_5 
ROOT
ATOM      1  N   UNL d   1      59.467  49.703  51.054  0.00  0.00    -0.286 N 
ATOM      2  N   UNL d   1      58.517  49.702  52.014  0.00  0.00    -0.224 NA
ATOM      3  C   UNL d   1      59.340  49.705  51.873  0.00  0.00     0.191 A 
ATOM      4  C   UNL d   1      58.723  49.700  50.677  0.00  0.00     0.083 A 
ATOM      5  C   UNL d   1      58.143  49.700  51.270  0.00  0.00     0.099 A 
ATOM      6  C   UNL d   1      58.492  49.697  49.875  0.00  0.00     0.019 A 
ATOM      7  C   UNL d   1      57.331  49.697  51.067  0.00  0.00     0.021 A 
ATOM      8  C   UNL d   1      57.692  49.694  49.672  0.00  0.00     0.002 A 
ATOM      9  C   UNL d   1      57.113  49.694  50.267  0.00  0.00     0.002 A 
ENDROOT
BRANCH   1  10
ATOM     10  C   UNL d   1      60.261  49.705  50.831  0.00  0.00     0.082 C 
BRANCH  10  11
ATOM     11  C   UNL d   1      60.649  48.998  50.683  0.00  0.00     0.018 A 
ATOM     12  C   UNL d   1      61.307  48.983  50.198  0.00  0.00     0.001 A 
ATOM     13  C   UNL d   1      61.697  48.275  50.050  0.00  0.00     0.000 A 
ATOM     14  C   UNL d   1      61.576  49.686  49.859  0.00  0.00     0.000 C 
ATOM     15  C   UNL d   1      61.425  47.575  50.390  0.00  0.00     0.000 A 
ATOM     16  C   UNL d   1      60.762  47.588  50.880  0.00  0.00     0.000 A 
ATOM     17  C   UNL d   1      60.374  48.300  51.026  0.00  0.00     0.002 A 
ATOM     18  C   UNL d   1      60.487  46.889  51.223  0.00  0.00     0.000 C 
ENDBRANCH  10  11
ENDBRANCH   1  10
BRANCH   3  19
ATOM     19  C   UNL d   1      59.560  49.707  52.662  0.00  0.00     0.271 C 
ATOM     20  O   UNL d   1      58.989  49.623  53.251  0.00  0.00    -0.280 OA
ENDBRANCH   3  19
TORSDOF 3
ENDMDL
