MODEL 1
REMARK VINA RESULT:      -8.0      0.000      0.000
REMARK  2 active torsions:
REMARK  status: ('A' for Active; 'I' for Inactive)
REMARK       I    between atoms: N_2  and  C_1 
REMARK       I    between atoms: N_3  and  C_1 
REMARK    1  A    between atoms: C_12  and  N_3 
REMARK    2  A    between atoms: C_5  and  N_4 
ROOT
ATOM      1  C   UNL d   1     -48.345  13.075  23.211  0.00  0.00     0.339 C 
ATOM      2  N   UNL d   1     -47.631  12.661  23.234  0.00  0.00    -0.254 N 
ATOM      3  N   UNL d   1     -48.377  13.833  22.884  0.00  0.00    -0.257 N 
ATOM      4  N   UNL d   1     -46.193  11.828  23.283  0.00  0.00    -0.286 N 
ATOM      5  O   UNL d   1     -49.029  12.719  23.518  0.00  0.00    -0.245 OA
ATOM      6  C   UNL d   1     -47.596  11.902  23.560  0.00  0.00     0.104 A 
ATOM      7  C   UNL d   1     -46.935  13.005  22.929  0.00  0.00     0.104 A 
ATOM      8  C   UNL d   1     -46.882  11.488  23.584  0.00  0.00     0.101 A 
ATOM      9  C   UNL d   1     -46.218  12.590  22.953  0.00  0.00     0.101 A 
ATOM     10  C   UNL d   1     -47.698  14.178  22.582  0.00  0.00     0.104 C 
ENDROOT
BRANCH   3  11
ATOM     11  C   UNL d   1     -49.099  14.248  22.862  0.00  0.00     0.068 A 
ATOM     12  C   UNL d   1     -49.631  14.122  22.237  0.00  0.00     0.018 A 
ATOM     13  C   UNL d   1     -50.343  14.538  22.225  0.00  0.00     0.002 A 
ATOM     14  C   UNL d   1     -50.526  15.075  22.828  0.00  0.00     0.000 A 
ATOM     15  C   UNL d   1     -49.985  15.190  23.445  0.00  0.00     0.002 A 
ATOM     16  C   UNL d   1     -49.271  14.776  23.460  0.00  0.00     0.018 A 
ENDBRANCH   3  11
BRANCH   4  17
ATOM     17  C   UNL d   1     -45.480  11.414  23.306  0.00  0.00     0.148 A 
ATOM     18  N   UNL d   1     -44.817  11.739  22.956  0.00  0.00    -0.227 NA
ATOM     19  C   UNL d   1     -44.107  11.327  22.980  0.00  0.00     0.101 A 
ATOM     20  C   UNL d   1     -44.062  10.605  23.347  0.00  0.00     0.021 A 
ATOM     21  C   UNL d   1     -44.736  10.285  23.698  0.00  0.00     0.005 A 
ATOM     22  C   UNL d   1     -45.439  10.693  23.674  0.00  0.00     0.037 A 
ENDBRANCH   4  17
TORSDOF 2
ENDMDL
MODEL 2
REMARK VINA RESULT:      -7.2      0.940      1.390
REMARK  2 active torsions:
REMARK  status: ('A' for Active; 'I' for Inactive)
REMARK       I    between atoms: N_2  and  C_1 
REMARK       I    between atoms: N_3  and  C_1 
REMARK    1  A    between atoms: C_12  and  N_3 
REMARK    2  A    between atoms: C_5  and  N_4 
ROOT
ATOM      1  C   UNL d   1     -48.579  13.904  23.076  0.00  0.00     0.339 C 
ATOM      2  N   UNL d   1     -47.818  13.617  22.936  0.00  0.00    -0.254 N 
ATOM      3  N   UNL d   1     -48.775  14.681  22.876  0.00  0.00    -0.257 N 
ATOM      4  N   UNL d   1     -46.285  13.039  22.654  0.00  0.00    -0.286 N 
ATOM      5  O   UNL d   1     -49.144  13.401  23.419  0.00  0.00    -0.245 OA
ATOM      6  C   UNL d   1     -47.618  12.839  23.134  0.00  0.00     0.104 A 
ATOM      7  C   UNL d   1     -47.240  14.110  22.591  0.00  0.00     0.104 A 
ATOM      8  C   UNL d   1     -46.858  12.553  22.994  0.00  0.00     0.101 A 
ATOM      9  C   UNL d   1     -46.475  13.822  22.451  0.00  0.00     0.101 A 
ATOM     10  C   UNL d   1     -48.214  15.172  22.538  0.00  0.00     0.104 C 
ENDROOT
BRANCH   3  11
ATOM     11  C   UNL d   1     -49.545  14.967  23.019  0.00  0.00     0.068 A 
ATOM     12  C   UNL d   1     -50.193  14.631  22.622  0.00  0.00     0.018 A 
ATOM     13  C   UNL d   1     -50.950  14.922  22.771  0.00  0.00     0.002 A 
ATOM     14  C   UNL d   1     -51.064  15.541  23.309  0.00  0.00     0.000 A 
ATOM     15  C   UNL d   1     -50.408  15.865  23.698  0.00  0.00     0.002 A 
ATOM     16  C   UNL d   1     -49.649  15.577  23.551  0.00  0.00     0.018 A 
ENDBRANCH   3  11
BRANCH   4  17
ATOM     17  C   UNL d   1     -45.524  12.753  22.514  0.00  0.00     0.148 A 
ATOM     18  N   UNL d   1     -45.245  12.125  22.958  0.00  0.00    -0.227 NA
ATOM     19  C   UNL d   1     -44.488  11.840  22.819  0.00  0.00     0.101 A 
ATOM     20  C   UNL d   1     -44.019  12.176  22.247  0.00  0.00     0.021 A 
ATOM     21  C   UNL d   1     -44.309  12.808  21.805  0.00  0.00     0.005 A 
ATOM     22  C   UNL d   1     -45.059  13.090  21.943  0.00  0.00     0.037 A 
ENDBRANCH   4  17
TORSDOF 2
ENDMDL
MODEL 3
REMARK VINA RESULT:      -6.5      1.077      5.075
REMARK  2 active torsions:
REMARK  status: ('A' for Active; 'I' for Inactive)
REMARK       I    between atoms: N_2  and  C_1 
REMARK       I    between atoms: N_3  and  C_1 
REMARK    1  A    between atoms: C_12  and  N_3 
REMARK    2  A    between atoms: C_5  and  N_4 
ROOT
ATOM      1  C   UNL d   1     -45.825  12.351  22.992  0.00  0.00     0.339 C 
ATOM      2  N   UNL d   1     -46.508  12.813  22.979  0.00  0.00    -0.254 N 
ATOM      3  N   UNL d   1     -45.834  11.603  23.343  0.00  0.00    -0.257 N 
ATOM      4  N   UNL d   1     -47.885  13.746  22.952  0.00  0.00    -0.286 N 
ATOM      5  O   UNL d   1     -45.130  12.647  22.649  0.00  0.00    -0.245 OA
ATOM      6  C   UNL d   1     -46.502  13.563  22.629  0.00  0.00     0.104 A 
ATOM      7  C   UNL d   1     -47.215  12.530  23.320  0.00  0.00     0.104 A 
ATOM      8  C   UNL d   1     -47.185  14.025  22.615  0.00  0.00     0.101 A 
ATOM      9  C   UNL d   1     -47.901  12.994  23.307  0.00  0.00     0.101 A 
ATOM     10  C   UNL d   1     -46.524  11.317  23.680  0.00  0.00     0.104 C 
ENDROOT
BRANCH   3  11
ATOM     11  C   UNL d   1     -45.143  11.139  23.354  0.00  0.00     0.068 A 
ATOM     12  C   UNL d   1     -44.437  11.437  23.034  0.00  0.00     0.018 A 
ATOM     13  C   UNL d   1     -43.758  10.969  23.051  0.00  0.00     0.002 A 
ATOM     14  C   UNL d   1     -43.779  10.211  23.382  0.00  0.00     0.000 A 
ATOM     15  C   UNL d   1     -44.491   9.927  23.698  0.00  0.00     0.002 A 
ATOM     16  C   UNL d   1     -45.172  10.392  23.683  0.00  0.00     0.018 A 
ENDBRANCH   3  11
BRANCH   4  17
ATOM     17  C   UNL d   1     -48.568  14.208  22.939  0.00  0.00     0.148 A 
ATOM     18  N   UNL d   1     -49.254  13.917  23.274  0.00  0.00    -0.227 NA
ATOM     19  C   UNL d   1     -49.934  14.377  23.261  0.00  0.00     0.101 A 
ATOM     20  C   UNL d   1     -49.926  15.114  22.919  0.00  0.00     0.021 A 
ATOM     21  C   UNL d   1     -49.230  15.399  22.585  0.00  0.00     0.005 A 
ATOM     22  C   UNL d   1     -48.556  14.943  22.598  0.00  0.00     0.037 A 
ENDBRANCH   4  17
TORSDOF 2
ENDMDL
MODEL 4
REMARK VINA RESULT:      -5.9      8.347      8.992
REMARK  2 active torsions:
REMARK  status: ('A' for Active; 'I' for Inactive)
REMARK       I    between atoms: N_2  and  C_1 
REMARK       I    between atoms: N_3  and  C_1 
REMARK    1  A    between atoms: C_12  and  N_3 
REMARK    2  A    between atoms: C_5  and  N_4 
ROOT
ATOM      1  C   UNL d   1     -40.157  15.261  19.322  0.00  0.00     0.339 C 
ATOM      2  N   UNL d   1     -39.857  15.018  20.052  0.00  0.00    -0.254 N 
ATOM      3  N   UNL d   1     -39.848  14.952  18.621  0.00  0.00    -0.257 N 
ATOM      4  N   UNL d   1     -39.254  14.528  21.522  0.00  0.00    -0.286 N 
ATOM      5  O   UNL d   1     -40.771  15.819  19.303  0.00  0.00    -0.245 OA
ATOM      6  C   UNL d   1     -40.164  15.325  20.756  0.00  0.00     0.104 A 
ATOM      7  C   UNL d   1     -39.240  14.458  20.087  0.00  0.00     0.104 A 
ATOM      8  C   UNL d   1     -39.864  15.082  21.485  0.00  0.00     0.101 A 
ATOM      9  C   UNL d   1     -38.939  14.213  20.820  0.00  0.00     0.101 A 
ATOM     10  C   UNL d   1     -39.242  14.402  18.647  0.00  0.00     0.104 C 
ENDROOT
BRANCH   3  11
ATOM     11  C   UNL d   1     -40.153  15.200  17.886  0.00  0.00     0.068 A 
ATOM     12  C   UNL d   1     -40.915  14.966  17.653  0.00  0.00     0.018 A 
ATOM     13  C   UNL d   1     -41.207  15.217  16.923  0.00  0.00     0.002 A 
ATOM     14  C   UNL d   1     -40.747  15.696  16.429  0.00  0.00     0.000 A 
ATOM     15  C   UNL d   1     -39.988  15.922  16.676  0.00  0.00     0.002 A 
ATOM     16  C   UNL d   1     -39.693  15.672  17.405  0.00  0.00     0.018 A 
ENDBRANCH   3  11
BRANCH   4  17
ATOM     17  C   UNL d   1     -38.954  14.286  22.251  0.00  0.00     0.148 A 
ATOM     18  N   UNL d   1     -38.531  14.817  22.707  0.00  0.00    -0.227 NA
ATOM     19  C   UNL d   1     -38.233  14.575  23.433  0.00  0.00     0.101 A 
ATOM     20  C   UNL d   1     -38.356  13.817  23.697  0.00  0.00     0.021 A 
ATOM     21  C   UNL d   1     -38.784  13.289  23.230  0.00  0.00     0.005 A 
ATOM     22  C   UNL d   1     -39.079  13.529  22.512  0.00  0.00     0.037 A 
ENDBRANCH   4  17
TORSDOF 2
ENDMDL
MODEL 5
REMARK VINA RESULT:      -5.7      8.550      9.715
REMARK  2 active torsions:
REMARK  status: ('A' for Active; 'I' for Inactive)
REMARK       I    between atoms: N_2  and  C_1 
REMARK       I    between atoms: N_3  and  C_1 
REMARK    1  A    between atoms: C_12  and  N_3 
REMARK    2  A    between atoms: C_5  and  N_4 
ROOT
ATOM      1  C   UNL d   1     -38.906  14.231  20.787  0.00  0.00     0.339 C 
ATOM      2  N   UNL d   1     -39.217  14.490  20.068  0.00  0.00    -0.254 N 
ATOM      3  N   UNL d   1     -39.177  14.551  21.498  0.00  0.00    -0.257 N 
ATOM      4  N   UNL d   1     -39.846  15.011  18.619  0.00  0.00    -0.286 N 
ATOM      5  O   UNL d   1     -38.317  13.646  20.784  0.00  0.00    -0.245 OA
ATOM      6  C   UNL d   1     -38.948  14.171  19.353  0.00  0.00     0.104 A 
ATOM      7  C   UNL d   1     -39.810  15.078  20.053  0.00  0.00     0.104 A 
ATOM      8  C   UNL d   1     -39.260  14.430  18.635  0.00  0.00     0.101 A 
ATOM      9  C   UNL d   1     -40.123  15.338  19.331  0.00  0.00     0.101 A 
ATOM     10  C   UNL d   1     -39.758  15.129  21.493  0.00  0.00     0.104 C 
ENDROOT
BRANCH   3  11
ATOM     11  C   UNL d   1     -38.860  14.287  22.222  0.00  0.00     0.068 A 
ATOM     12  C   UNL d   1     -39.075  13.544  22.524  0.00  0.00     0.018 A 
ATOM     13  C   UNL d   1     -38.755  13.293  23.241  0.00  0.00     0.002 A 
ATOM     14  C   UNL d   1     -38.225  13.775  23.656  0.00  0.00     0.000 A 
ATOM     15  C   UNL d   1     -38.020  14.514  23.343  0.00  0.00     0.002 A 
ATOM     16  C   UNL d   1     -38.338  14.769  22.625  0.00  0.00     0.018 A 
ENDBRANCH   3  11
BRANCH   4  17
ATOM     17  C   UNL d   1     -40.157  15.270  17.900  0.00  0.00     0.148 A 
ATOM     18  N   UNL d   1     -39.673  15.664  17.373  0.00  0.00    -0.227 NA
ATOM     19  C   UNL d   1     -39.983  15.922  16.658  0.00  0.00     0.101 A 
ATOM     20  C   UNL d   1     -40.762  15.787  16.475  0.00  0.00     0.021 A 
ATOM     21  C   UNL d   1     -41.243  15.389  17.012  0.00  0.00     0.005 A 
ATOM     22  C   UNL d   1     -40.935  15.134  17.721  0.00  0.00     0.037 A 
ENDBRANCH   4  17
TORSDOF 2
ENDMDL
MODEL 6
REMARK VINA RESULT:      -5.2      8.474     10.639
REMARK  2 active torsions:
REMARK  status: ('A' for Active; 'I' for Inactive)
REMARK       I    between atoms: N_2  and  C_1 
REMARK       I    between atoms: N_3  and  C_1 
REMARK    1  A    between atoms: C_12  and  N_3 
REMARK    2  A    between atoms: C_5  and  N_4 
ROOT
ATOM      1  C   UNL d   1     -39.360  14.550  16.757  0.00  0.00     0.339 C 
ATOM      2  N   UNL d   1     -39.575  14.677  17.543  0.00  0.00    -0.254 N 
ATOM      3  N   UNL d   1     -38.576  14.655  16.517  0.00  0.00    -0.257 N 
ATOM      4  N   UNL d   1     -40.010  14.933  19.128  0.00  0.00    -0.286 N 
ATOM      5  O   UNL d   1     -39.940  14.315  16.212  0.00  0.00    -0.245 OA
ATOM      6  C   UNL d   1     -40.359  14.572  17.787  0.00  0.00     0.104 A 
ATOM      7  C   UNL d   1     -39.003  14.913  18.104  0.00  0.00     0.104 A 
ATOM      8  C   UNL d   1     -40.574  14.699  18.574  0.00  0.00     0.101 A 
ATOM      9  C   UNL d   1     -39.220  15.041  18.894  0.00  0.00     0.101 A 
ATOM     10  C   UNL d   1     -38.009  14.887  17.061  0.00  0.00     0.104 C 
ENDROOT
BRANCH   3  11
ATOM     11  C   UNL d   1     -38.362  14.526  15.723  0.00  0.00     0.068 A 
ATOM     12  C   UNL d   1     -38.216  13.755  15.452  0.00  0.00     0.018 A 
ATOM     13  C   UNL d   1     -38.005  13.638  14.663  0.00  0.00     0.002 A 
ATOM     14  C   UNL d   1     -37.940  14.281  14.147  0.00  0.00     0.000 A 
ATOM     15  C   UNL d   1     -38.089  15.046  14.431  0.00  0.00     0.002 A 
ATOM     16  C   UNL d   1     -38.300  15.166  15.220  0.00  0.00     0.018 A 
ENDBRANCH   3  11
BRANCH   4  17
ATOM     17  C   UNL d   1     -40.225  15.060  19.914  0.00  0.00     0.148 A 
ATOM     18  N   UNL d   1     -40.115  14.463  20.461  0.00  0.00    -0.227 NA
ATOM     19  C   UNL d   1     -40.329  14.589  21.243  0.00  0.00     0.101 A 
ATOM     20  C   UNL d   1     -40.648  15.300  21.473  0.00  0.00     0.021 A 
ATOM     21  C   UNL d   1     -40.755  15.896  20.915  0.00  0.00     0.005 A 
ATOM     22  C   UNL d   1     -40.543  15.771  20.140  0.00  0.00     0.037 A 
ENDBRANCH   4  17
TORSDOF 2
ENDMDL
MODEL 7
REMARK VINA RESULT:      -5.0      8.779     10.480
REMARK  2 active torsions:
REMARK  status: ('A' for Active; 'I' for Inactive)
REMARK       I    between atoms: N_2  and  C_1 
REMARK       I    between atoms: N_3  and  C_1 
REMARK    1  A    between atoms: C_12  and  N_3 
REMARK    2  A    between atoms: C_5  and  N_4 
ROOT
ATOM      1  C   UNL d   1     -39.224  15.070  19.512  0.00  0.00     0.339 C 
ATOM      2  N   UNL d   1     -39.009  14.924  18.729  0.00  0.00    -0.254 N 
ATOM      3  N   UNL d   1     -38.718  14.858  20.130  0.00  0.00    -0.257 N 
ATOM      4  N   UNL d   1     -38.578  14.629  17.151  0.00  0.00    -0.286 N 
ATOM      5  O   UNL d   1     -39.953  15.434  19.671  0.00  0.00    -0.245 OA
ATOM      6  C   UNL d   1     -39.513  15.135  18.108  0.00  0.00     0.104 A 
ATOM      7  C   UNL d   1     -38.279  14.559  18.554  0.00  0.00     0.104 A 
ATOM      8  C   UNL d   1     -39.299  14.989  17.325  0.00  0.00     0.101 A 
ATOM      9  C   UNL d   1     -38.064  14.412  17.767  0.00  0.00     0.101 A 
ATOM     10  C   UNL d   1     -37.999  14.499  19.966  0.00  0.00     0.104 C 
ENDROOT
BRANCH   3  11
ATOM     11  C   UNL d   1     -38.937  15.007  20.919  0.00  0.00     0.068 A 
ATOM     12  C   UNL d   1     -38.829  15.763  21.245  0.00  0.00     0.018 A 
ATOM     13  C   UNL d   1     -39.050  15.900  22.028  0.00  0.00     0.002 A 
ATOM     14  C   UNL d   1     -39.376  15.292  22.484  0.00  0.00     0.000 A 
ATOM     15  C   UNL d   1     -39.479  14.542  22.145  0.00  0.00     0.002 A 
ATOM     16  C   UNL d   1     -39.259  14.401  21.363  0.00  0.00     0.018 A 
ENDBRANCH   3  11
BRANCH   4  17
ATOM     17  C   UNL d   1     -38.364  14.482  16.367  0.00  0.00     0.148 A 
ATOM     18  N   UNL d   1     -38.295  13.709  16.109  0.00  0.00    -0.227 NA
ATOM     19  C   UNL d   1     -38.081  13.564  15.330  0.00  0.00     0.101 A 
ATOM     20  C   UNL d   1     -37.940  14.179  14.819  0.00  0.00     0.021 A 
ATOM     21  C   UNL d   1     -38.012  14.954  15.089  0.00  0.00     0.005 A 
ATOM     22  C   UNL d   1     -38.223  15.099  15.861  0.00  0.00     0.037 A 
ENDBRANCH   4  17
TORSDOF 2
ENDMDL
