MODEL 1
REMARK VINA RESULT:      -4.1      0.000      0.000
REMARK  7 active torsions:
REMARK  status: ('A' for Active; 'I' for Inactive)
REMARK    1  A    between atoms: N_4  and  C_1 
REMARK    2  A    between atoms: C_9  and  C_2 
REMARK    3  A    between atoms: C_7  and  N_4 
REMARK    4  A    between atoms: N_8  and  C_7 
REMARK       I    between atoms: C_10  and  N_8 
REMARK    5  A    between atoms: C_15  and  C_10 
REMARK    6  A    between atoms: C_18  and  C_15 
REMARK    7  A    between atoms: C_19  and  C_18 
ROOT
ATOM      1  C   UNL d   1      58.085   0.273  29.808  0.00  0.00     0.224 C 
ATOM      2  S   UNL d   1      57.891   0.680  29.115  0.00  0.00    -0.037 SA
ENDROOT
BRANCH   1   3
ATOM      3  N   UNL d   1      58.580  -0.363  29.787  0.00  0.00    -0.211 NA
BRANCH   3   4
ATOM      4  C   UNL d   1      59.316  -0.294  29.443  0.00  0.00     0.118 A 
ATOM      5  C   UNL d   1      59.765  -0.910  29.124  0.00  0.00     0.084 A 
ATOM      6  C   UNL d   1      60.446  -0.598  28.846  0.00  0.00     0.013 A 
ATOM      7  C   UNL d   1      61.062  -1.026  28.478  0.00  0.00     0.001 C 
ATOM      8  C   UNL d   1      60.450   0.177  28.973  0.00  0.00     0.031 A 
ATOM      9  S   UNL d   1      59.760   0.382  29.340  0.00  0.00    -0.068 SA
ATOM     10  C   UNL d   1      61.073   0.682  28.756  0.00  0.00     0.007 C 
BRANCH   5  11
ATOM     11  C   UNL d   1      59.540  -1.712  29.099  0.00  0.00     0.299 C 
ATOM     12  O   UNL d   1      59.758  -2.223  29.711  0.00  0.00    -0.264 OA
ATOM     13  N   UNL d   1      59.094  -2.009  28.459  0.00  0.00    -0.102 N 
ENDBRANCH   5  11
ENDBRANCH   3   4
ENDBRANCH   1   3
BRANCH   1  14
ATOM     14  N   UNL d   1      57.773   0.513  30.530  0.00  0.00    -0.179 NA
ATOM     15  C   UNL d   1      57.342   0.012  30.988  0.00  0.00     0.281 C 
ATOM     16  O   UNL d   1      57.205  -0.749  30.742  0.00  0.00    -0.265 OA
BRANCH  15  17
ATOM     17  C   UNL d   1      57.024   0.256  31.723  0.00  0.00     0.063 C 
BRANCH  17  18
ATOM     18  C   UNL d   1      56.562  -0.248  32.152  0.00  0.00     0.005 C 
BRANCH  18  19
ATOM     19  C   UNL d   1      56.191   0.039  32.829  0.00  0.00     0.000 A 
ATOM     20  C   UNL d   1      56.614   0.156  33.536  0.00  0.00     0.000 A 
ATOM     21  C   UNL d   1      56.236   0.439  34.196  0.00  0.00     0.000 A 
ATOM     22  C   UNL d   1      55.419   0.615  34.174  0.00  0.00     0.000 A 
ATOM     23  C   UNL d   1      55.006   0.499  33.475  0.00  0.00     0.000 A 
ATOM     24  C   UNL d   1      55.404   0.209  32.806  0.00  0.00     0.000 A 
ENDBRANCH  18  19
ENDBRANCH  17  18
ENDBRANCH  15  17
ENDBRANCH   1  14
TORSDOF 7
ENDMDL
MODEL 2
REMARK VINA RESULT:      -2.0      1.967      5.553
REMARK  7 active torsions:
REMARK  status: ('A' for Active; 'I' for Inactive)
REMARK    1  A    between atoms: N_4  and  C_1 
REMARK    2  A    between atoms: C_9  and  C_2 
REMARK    3  A    between atoms: C_7  and  N_4 
REMARK    4  A    between atoms: N_8  and  C_7 
REMARK       I    between atoms: C_10  and  N_8 
REMARK    5  A    between atoms: C_15  and  C_10 
REMARK    6  A    between atoms: C_18  and  C_15 
REMARK    7  A    between atoms: C_19  and  C_18 
ROOT
ATOM      1  C   UNL d   1      56.781  -0.513  32.226  0.00  0.00     0.224 C 
ATOM      2  S   UNL d   1      56.798  -1.316  32.421  0.00  0.00    -0.037 SA
ENDROOT
BRANCH   1   3
ATOM      3  N   UNL d   1      56.225  -0.024  32.545  0.00  0.00    -0.211 NA
BRANCH   3   4
ATOM      4  C   UNL d   1      56.269   0.183  33.334  0.00  0.00     0.118 A 
ATOM      5  C   UNL d   1      55.630   0.316  33.840  0.00  0.00     0.084 A 
ATOM      6  C   UNL d   1      55.922   0.504  34.559  0.00  0.00     0.013 A 
ATOM      7  C   UNL d   1      55.467   0.682  35.236  0.00  0.00     0.001 C 
ATOM      8  C   UNL d   1      56.707   0.497  34.533  0.00  0.00     0.031 A 
ATOM      9  S   UNL d   1      56.939   0.300  33.784  0.00  0.00    -0.068 SA
ATOM     10  C   UNL d   1      57.196   0.667  35.182  0.00  0.00     0.007 C 
BRANCH   5  11
ATOM     11  C   UNL d   1      54.825   0.261  33.630  0.00  0.00     0.299 C 
ATOM     12  O   UNL d   1      54.310  -0.203  34.078  0.00  0.00    -0.264 OA
ATOM     13  N   UNL d   1      54.531   0.673  32.965  0.00  0.00    -0.102 N 
ENDBRANCH   5  11
ENDBRANCH   3   4
ENDBRANCH   1   3
BRANCH   1  14
ATOM     14  N   UNL d   1      57.334  -0.202  31.703  0.00  0.00    -0.179 NA
ATOM     15  C   UNL d   1      57.411  -0.488  30.955  0.00  0.00     0.281 C 
ATOM     16  O   UNL d   1      56.938  -1.096  30.702  0.00  0.00    -0.265 OA
BRANCH  15  17
ATOM     17  C   UNL d   1      57.973  -0.172  30.422  0.00  0.00     0.063 C 
BRANCH  17  18
ATOM     18  C   UNL d   1      58.388  -0.662  29.933  0.00  0.00     0.005 C 
BRANCH  18  19
ATOM     19  C   UNL d   1      59.061  -0.368  29.559  0.00  0.00     0.000 A 
ATOM     20  C   UNL d   1      59.820  -0.501  29.873  0.00  0.00     0.000 A 
ATOM     21  C   UNL d   1      60.475  -0.205  29.495  0.00  0.00     0.000 A 
ATOM     22  C   UNL d   1      60.394   0.235  28.788  0.00  0.00     0.000 A 
ATOM     23  C   UNL d   1      59.644   0.363  28.483  0.00  0.00     0.000 A 
ATOM     24  C   UNL d   1      58.981   0.056  28.879  0.00  0.00     0.000 A 
ENDBRANCH  18  19
ENDBRANCH  17  18
ENDBRANCH  15  17
ENDBRANCH   1  14
TORSDOF 7
ENDMDL
MODEL 3
REMARK VINA RESULT:      -2.0      2.018      5.684
REMARK  7 active torsions:
REMARK  status: ('A' for Active; 'I' for Inactive)
REMARK    1  A    between atoms: N_4  and  C_1 
REMARK    2  A    between atoms: C_9  and  C_2 
REMARK    3  A    between atoms: C_7  and  N_4 
REMARK    4  A    between atoms: N_8  and  C_7 
REMARK       I    between atoms: C_10  and  N_8 
REMARK    5  A    between atoms: C_15  and  C_10 
REMARK    6  A    between atoms: C_18  and  C_15 
REMARK    7  A    between atoms: C_19  and  C_18 
ROOT
ATOM      1  C   UNL d   1      56.605  -0.532  32.206  0.00  0.00     0.224 C 
ATOM      2  S   UNL d   1      56.209  -1.257  32.204  0.00  0.00    -0.037 SA
ENDROOT
BRANCH   1   3
ATOM      3  N   UNL d   1      56.696  -0.115  32.890  0.00  0.00    -0.211 NA
BRANCH   3   4
ATOM      4  C   UNL d   1      56.044   0.067  33.345  0.00  0.00     0.118 A 
ATOM      5  C   UNL d   1      56.053   0.311  34.134  0.00  0.00     0.084 A 
ATOM      6  C   UNL d   1      55.297   0.429  34.363  0.00  0.00     0.013 A 
ATOM      7  C   UNL d   1      55.052   0.679  35.121  0.00  0.00     0.001 C 
ATOM      8  C   UNL d   1      54.814   0.272  33.763  0.00  0.00     0.031 A 
ATOM      9  S   UNL d   1      55.259   0.047  33.126  0.00  0.00    -0.068 SA
ATOM     10  C   UNL d   1      53.987   0.335  33.802  0.00  0.00     0.007 C 
BRANCH   5  11
ATOM     11  C   UNL d   1      56.735   0.414  34.603  0.00  0.00     0.299 C 
ATOM     12  O   UNL d   1      57.437   0.682  34.260  0.00  0.00    -0.264 OA
ATOM     13  N   UNL d   1      56.717   0.249  35.421  0.00  0.00    -0.102 N 
ENDBRANCH   5  11
ENDBRANCH   3   4
ENDBRANCH   1   3
BRANCH   1  14
ATOM     14  N   UNL d   1      56.912  -0.226  31.507  0.00  0.00    -0.179 NA
ATOM     15  C   UNL d   1      57.435  -0.645  31.061  0.00  0.00     0.281 C 
ATOM     16  O   UNL d   1      57.670  -1.385  31.295  0.00  0.00    -0.265 OA
BRANCH  15  17
ATOM     17  C   UNL d   1      57.748  -0.334  30.349  0.00  0.00     0.063 C 
BRANCH  17  18
ATOM     18  C   UNL d   1      58.137  -0.817  29.833  0.00  0.00     0.005 C 
BRANCH  18  19
ATOM     19  C   UNL d   1      58.784  -0.514  29.423  0.00  0.00     0.000 A 
ATOM     20  C   UNL d   1      58.849   0.299  29.261  0.00  0.00     0.000 A 
ATOM     21  C   UNL d   1      59.492   0.585  28.855  0.00  0.00     0.000 A 
ATOM     22  C   UNL d   1      60.094   0.066  28.596  0.00  0.00     0.000 A 
ATOM     23  C   UNL d   1      60.026  -0.735  28.757  0.00  0.00     0.000 A 
ATOM     24  C   UNL d   1      59.363  -1.015  29.173  0.00  0.00     0.000 A 
ENDBRANCH  18  19
ENDBRANCH  17  18
ENDBRANCH  15  17
ENDBRANCH   1  14
TORSDOF 7
ENDMDL
