MODEL 1
REMARK VINA RESULT:      -7.6      0.000      0.000
REMARK  7 active torsions:
REMARK  status: ('A' for Active; 'I' for Inactive)
REMARK    1  A    between atoms: O_9  and  N_1 
REMARK    2  A    between atoms: C_8  and  O_11 
REMARK    3  A    between atoms: C_15  and  O_9 
REMARK    4  A    between atoms: O_11  and  C_16 
REMARK    5  A    between atoms: C_18  and  C_15 
REMARK    6  A    between atoms: C_16  and  C_17 
REMARK    7  A    between atoms: C_17  and  C_18 
ROOT
ATOM      1  N   UNL d   1      52.374  33.749  53.358  0.00  0.00    -0.139 N 
ATOM      2  C   UNL d   1      52.805  33.057  53.187  0.00  0.00     0.287 A 
ATOM      3  C   UNL d   1      52.782  34.167  53.947  0.00  0.00     0.287 A 
ATOM      4  C   UNL d   1      53.477  33.053  53.672  0.00  0.00     0.063 A 
ATOM      5  C   UNL d   1      53.462  33.736  54.140  0.00  0.00     0.063 A 
ATOM      6  O   UNL d   1      52.585  34.886  54.307  0.00  0.00    -0.265 OA
ATOM      7  O   UNL d   1      52.636  32.463  52.649  0.00  0.00    -0.265 OA
ATOM      8  C   UNL d   1      54.070  33.879  54.681  0.00  0.00     0.005 A 
ATOM      9  C   UNL d   1      54.099  32.514  53.747  0.00  0.00     0.005 A 
ATOM     10  C   UNL d   1      54.689  33.341  54.755  0.00  0.00     0.000 A 
ATOM     11  C   UNL d   1      54.704  32.658  54.287  0.00  0.00     0.000 A 
ENDROOT
BRANCH   1  12
ATOM     12  O   UNL d   1      51.666  33.977  53.003  0.00  0.00    -0.221 OA
BRANCH  12  13
ATOM     13  C   UNL d   1      50.840  34.002  53.016  0.00  0.00     0.148 C 
BRANCH  13  14
ATOM     14  C   UNL d   1      50.438  34.370  52.397  0.00  0.00     0.031 C 
BRANCH  14  15
ATOM     15  C   UNL d   1      49.659  34.614  52.503  0.00  0.00     0.029 C 
BRANCH  15  16
ATOM     16  C   UNL d   1      49.155  34.667  51.854  0.00  0.00     0.126 C 
BRANCH  16  17
ATOM     17  O   UNL d   1      48.488  35.150  51.896  0.00  0.00    -0.271 OA
BRANCH  17  18
ATOM     18  C   UNL d   1      47.909  35.095  51.314  0.00  0.00     0.300 C 
ATOM     19  O   UNL d   1      48.016  34.587  50.673  0.00  0.00    -0.259 OA
ATOM     20  C   UNL d   1      47.224  35.547  51.372  0.00  0.00     0.074 C 
ENDBRANCH  17  18
ENDBRANCH  16  17
ENDBRANCH  15  16
ENDBRANCH  14  15
ENDBRANCH  13  14
ENDBRANCH  12  13
ENDBRANCH   1  12
TORSDOF 7
ENDMDL
MODEL 2
REMARK VINA RESULT:      -7.1      2.695      4.970
REMARK  7 active torsions:
REMARK  status: ('A' for Active; 'I' for Inactive)
REMARK    1  A    between atoms: O_9  and  N_1 
REMARK    2  A    between atoms: C_8  and  O_11 
REMARK    3  A    between atoms: C_15  and  O_9 
REMARK    4  A    between atoms: O_11  and  C_16 
REMARK    5  A    between atoms: C_18  and  C_15 
REMARK    6  A    between atoms: C_16  and  C_17 
REMARK    7  A    between atoms: C_17  and  C_18 
ROOT
ATOM      1  N   UNL d   1      53.088  32.850  53.499  0.00  0.00    -0.139 N 
ATOM      2  C   UNL d   1      52.649  33.480  53.176  0.00  0.00     0.287 A 
ATOM      3  C   UNL d   1      53.502  33.136  54.159  0.00  0.00     0.287 A 
ATOM      4  C   UNL d   1      52.795  34.151  53.640  0.00  0.00     0.063 A 
ATOM      5  C   UNL d   1      53.320  33.939  54.244  0.00  0.00     0.063 A 
ATOM      6  O   UNL d   1      54.013  32.732  54.668  0.00  0.00    -0.265 OA
ATOM      7  O   UNL d   1      52.152  33.483  52.525  0.00  0.00    -0.265 OA
ATOM      8  C   UNL d   1      53.565  34.505  54.795  0.00  0.00     0.005 A 
ATOM      9  C   UNL d   1      52.517  34.928  53.588  0.00  0.00     0.005 A 
ATOM     10  C   UNL d   1      53.287  35.278  54.741  0.00  0.00     0.000 A 
ATOM     11  C   UNL d   1      52.763  35.490  54.137  0.00  0.00     0.000 A 
ENDROOT
BRANCH   1  12
ATOM     12  O   UNL d   1      53.106  32.078  53.212  0.00  0.00    -0.221 OA
BRANCH  12  13
ATOM     13  C   UNL d   1      52.704  31.387  53.000  0.00  0.00     0.148 C 
BRANCH  13  14
ATOM     14  C   UNL d   1      53.114  30.673  52.975  0.00  0.00     0.031 C 
BRANCH  14  15
ATOM     15  C   UNL d   1      52.769  29.992  53.283  0.00  0.00     0.029 C 
BRANCH  15  16
ATOM     16  C   UNL d   1      53.211  29.489  53.761  0.00  0.00     0.126 C 
BRANCH  16  17
ATOM     17  O   UNL d   1      52.839  29.071  54.366  0.00  0.00    -0.271 OA
BRANCH  17  18
ATOM     18  C   UNL d   1      53.287  28.604  54.874  0.00  0.00     0.300 C 
ATOM     19  O   UNL d   1      53.735  27.980  54.574  0.00  0.00    -0.259 OA
ATOM     20  C   UNL d   1      53.290  28.762  55.681  0.00  0.00     0.074 C 
ENDBRANCH  17  18
ENDBRANCH  16  17
ENDBRANCH  15  16
ENDBRANCH  14  15
ENDBRANCH  13  14
ENDBRANCH  12  13
ENDBRANCH   1  12
TORSDOF 7
ENDMDL
MODEL 3
REMARK VINA RESULT:      -6.4      1.433      5.782
REMARK  7 active torsions:
REMARK  status: ('A' for Active; 'I' for Inactive)
REMARK    1  A    between atoms: O_9  and  N_1 
REMARK    2  A    between atoms: C_8  and  O_11 
REMARK    3  A    between atoms: C_15  and  O_9 
REMARK    4  A    between atoms: O_11  and  C_16 
REMARK    5  A    between atoms: C_18  and  C_15 
REMARK    6  A    between atoms: C_16  and  C_17 
REMARK    7  A    between atoms: C_17  and  C_18 
ROOT
ATOM      1  N   UNL d   1      48.698  35.223  52.324  0.00  0.00    -0.139 N 
ATOM      2  C   UNL d   1      48.160  35.085  51.704  0.00  0.00     0.287 A 
ATOM      3  C   UNL d   1      48.361  35.778  52.840  0.00  0.00     0.287 A 
ATOM      4  C   UNL d   1      47.493  35.557  51.841  0.00  0.00     0.063 A 
ATOM      5  C   UNL d   1      47.617  35.984  52.540  0.00  0.00     0.063 A 
ATOM      6  O   UNL d   1      48.671  36.098  53.536  0.00  0.00    -0.265 OA
ATOM      7  O   UNL d   1      48.233  34.586  51.058  0.00  0.00    -0.265 OA
ATOM      8  C   UNL d   1      47.037  36.505  52.814  0.00  0.00     0.005 A 
ATOM      9  C   UNL d   1      46.789  35.653  51.418  0.00  0.00     0.005 A 
ATOM     10  C   UNL d   1      46.336  36.599  52.391  0.00  0.00     0.000 A 
ATOM     11  C   UNL d   1      46.213  36.172  51.692  0.00  0.00     0.000 A 
ENDROOT
BRANCH   1  12
ATOM     12  O   UNL d   1      49.437  34.868  52.410  0.00  0.00    -0.221 OA
BRANCH  12  13
ATOM     13  C   UNL d   1      50.040  34.587  52.902  0.00  0.00     0.148 C 
BRANCH  13  14
ATOM     14  C   UNL d   1      50.691  34.210  52.568  0.00  0.00     0.031 C 
BRANCH  14  15
ATOM     15  C   UNL d   1      51.320  33.979  53.046  0.00  0.00     0.029 C 
BRANCH  15  16
ATOM     16  C   UNL d   1      51.827  33.382  52.794  0.00  0.00     0.126 C 
BRANCH  16  17
ATOM     17  O   UNL d   1      52.306  32.996  53.345  0.00  0.00    -0.271 OA
BRANCH  17  18
ATOM     18  C   UNL d   1      52.918  32.512  53.083  0.00  0.00     0.300 C 
ATOM     19  O   UNL d   1      52.778  31.951  52.495  0.00  0.00    -0.259 OA
ATOM     20  C   UNL d   1      53.669  32.590  53.408  0.00  0.00     0.074 C 
ENDBRANCH  17  18
ENDBRANCH  16  17
ENDBRANCH  15  16
ENDBRANCH  14  15
ENDBRANCH  13  14
ENDBRANCH  12  13
ENDBRANCH   1  12
TORSDOF 7
ENDMDL
MODEL 4
REMARK VINA RESULT:      -6.0      1.481      1.935
REMARK  7 active torsions:
REMARK  status: ('A' for Active; 'I' for Inactive)
REMARK    1  A    between atoms: O_9  and  N_1 
REMARK    2  A    between atoms: C_8  and  O_11 
REMARK    3  A    between atoms: C_15  and  O_9 
REMARK    4  A    between atoms: O_11  and  C_16 
REMARK    5  A    between atoms: C_18  and  C_15 
REMARK    6  A    between atoms: C_16  and  C_17 
REMARK    7  A    between atoms: C_17  and  C_18 
ROOT
ATOM      1  N   UNL d   1      52.350  32.451  53.033  0.00  0.00    -0.139 N 
ATOM      2  C   UNL d   1      52.058  31.672  53.086  0.00  0.00     0.287 A 
ATOM      3  C   UNL d   1      53.172  32.426  53.144  0.00  0.00     0.287 A 
ATOM      4  C   UNL d   1      52.703  31.172  53.231  0.00  0.00     0.063 A 
ATOM      5  C   UNL d   1      53.388  31.636  53.267  0.00  0.00     0.063 A 
ATOM      6  O   UNL d   1      53.716  33.048  53.142  0.00  0.00    -0.265 OA
ATOM      7  O   UNL d   1      51.288  31.404  53.016  0.00  0.00    -0.265 OA
ATOM      8  C   UNL d   1      54.121  31.280  53.406  0.00  0.00     0.005 A 
ATOM      9  C   UNL d   1      52.752  30.353  53.335  0.00  0.00     0.005 A 
ATOM     10  C   UNL d   1      54.168  30.465  53.509  0.00  0.00     0.000 A 
ATOM     11  C   UNL d   1      53.483  30.001  53.474  0.00  0.00     0.000 A 
ENDROOT
BRANCH   1  12
ATOM     12  O   UNL d   1      51.900  33.126  52.893  0.00  0.00    -0.221 OA
BRANCH  12  13
ATOM     13  C   UNL d   1      51.520  33.801  53.183  0.00  0.00     0.148 C 
BRANCH  13  14
ATOM     14  C   UNL d   1      50.928  34.156  52.732  0.00  0.00     0.031 C 
BRANCH  14  15
ATOM     15  C   UNL d   1      50.374  34.644  53.096  0.00  0.00     0.029 C 
BRANCH  15  16
ATOM     16  C   UNL d   1      49.695  34.867  52.688  0.00  0.00     0.126 C 
BRANCH  16  17
ATOM     17  O   UNL d   1      49.052  35.173  53.105  0.00  0.00    -0.271 OA
BRANCH  17  18
ATOM     18  C   UNL d   1      48.445  35.550  52.696  0.00  0.00     0.300 C 
ATOM     19  O   UNL d   1      48.238  35.297  51.939  0.00  0.00    -0.259 OA
ATOM     20  C   UNL d   1      48.046  36.179  53.044  0.00  0.00     0.074 C 
ENDBRANCH  17  18
ENDBRANCH  16  17
ENDBRANCH  15  16
ENDBRANCH  14  15
ENDBRANCH  13  14
ENDBRANCH  12  13
ENDBRANCH   1  12
TORSDOF 7
ENDMDL
MODEL 5
REMARK VINA RESULT:      -5.3      2.938      3.939
REMARK  7 active torsions:
REMARK  status: ('A' for Active; 'I' for Inactive)
REMARK    1  A    between atoms: O_9  and  N_1 
REMARK    2  A    between atoms: C_8  and  O_11 
REMARK    3  A    between atoms: C_15  and  O_9 
REMARK    4  A    between atoms: O_11  and  C_16 
REMARK    5  A    between atoms: C_18  and  C_15 
REMARK    6  A    between atoms: C_16  and  C_17 
REMARK    7  A    between atoms: C_17  and  C_18 
ROOT
ATOM      1  N   UNL d   1      53.077  31.686  53.314  0.00  0.00    -0.139 N 
ATOM      2  C   UNL d   1      52.827  31.028  52.870  0.00  0.00     0.287 A 
ATOM      3  C   UNL d   1      53.399  31.409  54.027  0.00  0.00     0.287 A 
ATOM      4  C   UNL d   1      52.997  30.347  53.311  0.00  0.00     0.063 A 
ATOM      5  C   UNL d   1      53.348  30.582  54.023  0.00  0.00     0.063 A 
ATOM      6  O   UNL d   1      53.723  31.839  54.655  0.00  0.00    -0.265 OA
ATOM      7  O   UNL d   1      52.475  31.008  52.130  0.00  0.00    -0.265 OA
ATOM      8  C   UNL d   1      53.578  30.013  54.577  0.00  0.00     0.005 A 
ATOM      9  C   UNL d   1      52.875  29.545  53.155  0.00  0.00     0.005 A 
ATOM     10  C   UNL d   1      53.456  29.214  54.420  0.00  0.00     0.000 A 
ATOM     11  C   UNL d   1      53.104  28.980  53.708  0.00  0.00     0.000 A 
ENDROOT
BRANCH   1  12
ATOM     12  O   UNL d   1      53.015  32.475  53.085  0.00  0.00    -0.221 OA
BRANCH  12  13
ATOM     13  C   UNL d   1      52.544  33.139  52.939  0.00  0.00     0.148 C 
BRANCH  13  14
ATOM     14  C   UNL d   1      52.903  33.872  52.828  0.00  0.00     0.031 C 
BRANCH  14  15
ATOM     15  C   UNL d   1      52.546  34.552  53.124  0.00  0.00     0.029 C 
BRANCH  15  16
ATOM     16  C   UNL d   1      52.976  35.064  53.604  0.00  0.00     0.126 C 
BRANCH  16  17
ATOM     17  O   UNL d   1      52.588  35.492  54.193  0.00  0.00    -0.271 OA
BRANCH  17  18
ATOM     18  C   UNL d   1      53.023  35.828  54.805  0.00  0.00     0.300 C 
ATOM     19  O   UNL d   1      53.202  35.383  55.476  0.00  0.00    -0.259 OA
ATOM     20  C   UNL d   1      53.278  36.608  54.747  0.00  0.00     0.074 C 
ENDBRANCH  17  18
ENDBRANCH  16  17
ENDBRANCH  15  16
ENDBRANCH  14  15
ENDBRANCH  13  14
ENDBRANCH  12  13
ENDBRANCH   1  12
TORSDOF 7
ENDMDL
MODEL 6
REMARK VINA RESULT:      -5.1      9.808     10.680
REMARK  7 active torsions:
REMARK  status: ('A' for Active; 'I' for Inactive)
REMARK    1  A    between atoms: O_9  and  N_1 
REMARK    2  A    between atoms: C_8  and  O_11 
REMARK    3  A    between atoms: C_15  and  O_9 
REMARK    4  A    between atoms: O_11  and  C_16 
REMARK    5  A    between atoms: C_18  and  C_15 
REMARK    6  A    between atoms: C_16  and  C_17 
REMARK    7  A    between atoms: C_17  and  C_18 
ROOT
ATOM      1  N   UNL d   1      44.944  28.667  57.246  0.00  0.00    -0.139 N 
ATOM      2  C   UNL d   1      45.091  28.916  58.027  0.00  0.00     0.287 A 
ATOM      3  C   UNL d   1      44.784  29.340  56.787  0.00  0.00     0.287 A 
ATOM      4  C   UNL d   1      45.021  29.741  58.045  0.00  0.00     0.063 A 
ATOM      5  C   UNL d   1      44.832  30.002  57.283  0.00  0.00     0.063 A 
ATOM      6  O   UNL d   1      44.604  29.390  55.981  0.00  0.00    -0.265 OA
ATOM      7  O   UNL d   1      45.274  28.466  58.686  0.00  0.00    -0.265 OA
ATOM      8  C   UNL d   1      44.727  30.809  57.136  0.00  0.00     0.005 A 
ATOM      9  C   UNL d   1      45.105  30.288  58.660  0.00  0.00     0.005 A 
ATOM     10  C   UNL d   1      44.811  31.351  57.749  0.00  0.00     0.000 A 
ATOM     11  C   UNL d   1      45.000  31.091  58.512  0.00  0.00     0.000 A 
ENDROOT
BRANCH   1  12
ATOM     12  O   UNL d   1      44.955  27.888  56.977  0.00  0.00    -0.221 OA
BRANCH  12  13
ATOM     13  C   UNL d   1      44.548  27.193  56.793  0.00  0.00     0.148 C 
BRANCH  13  14
ATOM     14  C   UNL d   1      44.971  26.530  56.545  0.00  0.00     0.031 C 
BRANCH  14  15
ATOM     15  C   UNL d   1      44.575  25.826  56.389  0.00  0.00     0.029 C 
BRANCH  15  16
ATOM     16  C   UNL d   1      44.935  25.248  55.928  0.00  0.00     0.126 C 
BRANCH  16  17
ATOM     17  O   UNL d   1      44.536  24.541  55.776  0.00  0.00    -0.271 OA
BRANCH  17  18
ATOM     18  C   UNL d   1      44.905  23.954  55.334  0.00  0.00     0.300 C 
ATOM     19  O   UNL d   1      45.427  23.429  55.698  0.00  0.00    -0.259 OA
ATOM     20  C   UNL d   1      44.752  23.890  54.528  0.00  0.00     0.074 C 
ENDBRANCH  17  18
ENDBRANCH  16  17
ENDBRANCH  15  16
ENDBRANCH  14  15
ENDBRANCH  13  14
ENDBRANCH  12  13
ENDBRANCH   1  12
TORSDOF 7
ENDMDL
MODEL 7
REMARK VINA RESULT:      -4.9      1.830      4.995
REMARK  7 active torsions:
REMARK  status: ('A' for Active; 'I' for Inactive)
REMARK    1  A    between atoms: O_9  and  N_1 
REMARK    2  A    between atoms: C_8  and  O_11 
REMARK    3  A    between atoms: C_15  and  O_9 
REMARK    4  A    between atoms: O_11  and  C_16 
REMARK    5  A    between atoms: C_18  and  C_15 
REMARK    6  A    between atoms: C_16  and  C_17 
REMARK    7  A    between atoms: C_17  and  C_18 
ROOT
ATOM      1  N   UNL d   1      52.262  33.474  53.140  0.00  0.00    -0.139 N 
ATOM      2  C   UNL d   1      51.780  33.403  52.464  0.00  0.00     0.287 A 
ATOM      3  C   UNL d   1      51.903  34.016  53.655  0.00  0.00     0.287 A 
ATOM      4  C   UNL d   1      51.127  33.902  52.566  0.00  0.00     0.063 A 
ATOM      5  C   UNL d   1      51.203  34.280  53.299  0.00  0.00     0.063 A 
ATOM      6  O   UNL d   1      52.159  34.277  54.397  0.00  0.00    -0.265 OA
ATOM      7  O   UNL d   1      51.891  32.939  51.798  0.00  0.00    -0.265 OA
ATOM      8  C   UNL d   1      50.625  34.815  53.550  0.00  0.00     0.005 A 
ATOM      9  C   UNL d   1      50.474  34.061  52.085  0.00  0.00     0.005 A 
ATOM     10  C   UNL d   1      49.975  34.972  53.069  0.00  0.00     0.000 A 
ATOM     11  C   UNL d   1      49.900  34.595  52.336  0.00  0.00     0.000 A 
ENDROOT
BRANCH   1  12
ATOM     12  O   UNL d   1      52.970  33.074  53.273  0.00  0.00    -0.221 OA
BRANCH  12  13
ATOM     13  C   UNL d   1      53.431  32.582  53.751  0.00  0.00     0.148 C 
BRANCH  13  14
ATOM     14  C   UNL d   1      53.788  31.917  53.421  0.00  0.00     0.031 C 
BRANCH  14  15
ATOM     15  C   UNL d   1      53.931  31.254  53.888  0.00  0.00     0.029 C 
BRANCH  15  16
ATOM     16  C   UNL d   1      53.490  30.569  53.770  0.00  0.00     0.126 C 
BRANCH  16  17
ATOM     17  O   UNL d   1      53.791  29.844  54.023  0.00  0.00    -0.271 OA
BRANCH  17  18
ATOM     18  C   UNL d   1      53.276  29.219  54.168  0.00  0.00     0.300 C 
ATOM     19  O   UNL d   1      52.671  29.049  53.633  0.00  0.00    -0.259 OA
ATOM     20  C   UNL d   1      53.366  28.763  54.846  0.00  0.00     0.074 C 
ENDBRANCH  17  18
ENDBRANCH  16  17
ENDBRANCH  15  16
ENDBRANCH  14  15
ENDBRANCH  13  14
ENDBRANCH  12  13
ENDBRANCH   1  12
TORSDOF 7
ENDMDL
MODEL 8
REMARK VINA RESULT:      -4.7     10.333     11.040
REMARK  7 active torsions:
REMARK  status: ('A' for Active; 'I' for Inactive)
REMARK    1  A    between atoms: O_9  and  N_1 
REMARK    2  A    between atoms: C_8  and  O_11 
REMARK    3  A    between atoms: C_15  and  O_9 
REMARK    4  A    between atoms: O_11  and  C_16 
REMARK    5  A    between atoms: C_18  and  C_15 
REMARK    6  A    between atoms: C_16  and  C_17 
REMARK    7  A    between atoms: C_17  and  C_18 
ROOT
ATOM      1  N   UNL d   1      45.118  28.131  58.109  0.00  0.00    -0.139 N 
ATOM      2  C   UNL d   1      45.051  28.100  57.279  0.00  0.00     0.287 A 
ATOM      3  C   UNL d   1      45.052  27.358  58.402  0.00  0.00     0.287 A 
ATOM      4  C   UNL d   1      44.944  27.306  57.066  0.00  0.00     0.063 A 
ATOM      5  C   UNL d   1      44.944  26.850  57.756  0.00  0.00     0.063 A 
ATOM      6  O   UNL d   1      45.082  27.094  59.185  0.00  0.00    -0.265 OA
ATOM      7  O   UNL d   1      45.080  28.712  56.735  0.00  0.00    -0.265 OA
ATOM      8  C   UNL d   1      44.847  26.031  57.710  0.00  0.00     0.005 A 
ATOM      9  C   UNL d   1      44.846  26.942  56.330  0.00  0.00     0.005 A 
ATOM     10  C   UNL d   1      44.750  25.669  56.977  0.00  0.00     0.000 A 
ATOM     11  C   UNL d   1      44.749  26.126  56.286  0.00  0.00     0.000 A 
ENDROOT
BRANCH   1  12
ATOM     12  O   UNL d   1      45.231  28.812  58.558  0.00  0.00    -0.221 OA
BRANCH  12  13
ATOM     13  C   UNL d   1      44.986  29.573  58.772  0.00  0.00     0.148 C 
BRANCH  13  14
ATOM     14  C   UNL d   1      45.262  29.903  59.474  0.00  0.00     0.031 C 
BRANCH  14  15
ATOM     15  C   UNL d   1      44.882  30.560  59.795  0.00  0.00     0.029 C 
BRANCH  15  16
ATOM     16  C   UNL d   1      44.640  30.549  60.581  0.00  0.00     0.126 C 
BRANCH  16  17
ATOM     17  O   UNL d   1      44.959  31.094  61.112  0.00  0.00    -0.271 OA
BRANCH  17  18
ATOM     18  C   UNL d   1      44.540  31.292  61.792  0.00  0.00     0.300 C 
ATOM     19  O   UNL d   1      44.345  32.079  61.943  0.00  0.00    -0.259 OA
ATOM     20  C   UNL d   1      44.315  30.703  62.321  0.00  0.00     0.074 C 
ENDBRANCH  17  18
ENDBRANCH  16  17
ENDBRANCH  15  16
ENDBRANCH  14  15
ENDBRANCH  13  14
ENDBRANCH  12  13
ENDBRANCH   1  12
TORSDOF 7
ENDMDL
MODEL 9
REMARK VINA RESULT:      -4.6     10.602     11.211
REMARK  7 active torsions:
REMARK  status: ('A' for Active; 'I' for Inactive)
REMARK    1  A    between atoms: O_9  and  N_1 
REMARK    2  A    between atoms: C_8  and  O_11 
REMARK    3  A    between atoms: C_15  and  O_9 
REMARK    4  A    between atoms: O_11  and  C_16 
REMARK    5  A    between atoms: C_18  and  C_15 
REMARK    6  A    between atoms: C_16  and  C_17 
REMARK    7  A    between atoms: C_17  and  C_18 
ROOT
ATOM      1  N   UNL d   1      44.685  28.788  59.231  0.00  0.00    -0.139 N 
ATOM      2  C   UNL d   1      44.515  28.558  60.013  0.00  0.00     0.287 A 
ATOM      3  C   UNL d   1      44.856  29.600  59.233  0.00  0.00     0.287 A 
ATOM      4  C   UNL d   1      44.582  29.230  60.493  0.00  0.00     0.063 A 
ATOM      5  C   UNL d   1      44.792  29.871  60.013  0.00  0.00     0.063 A 
ATOM      6  O   UNL d   1      45.058  30.091  58.599  0.00  0.00    -0.265 OA
ATOM      7  O   UNL d   1      44.314  27.817  60.301  0.00  0.00    -0.265 OA
ATOM      8  C   UNL d   1      44.897  30.619  60.347  0.00  0.00     0.005 A 
ATOM      9  C   UNL d   1      44.478  29.339  61.306  0.00  0.00     0.005 A 
ATOM     10  C   UNL d   1      44.794  30.726  61.157  0.00  0.00     0.000 A 
ATOM     11  C   UNL d   1      44.584  30.085  61.637  0.00  0.00     0.000 A 
ENDROOT
BRANCH   1  12
ATOM     12  O   UNL d   1      44.684  28.294  58.571  0.00  0.00    -0.221 OA
BRANCH  12  13
ATOM     13  C   UNL d   1      45.101  27.907  57.971  0.00  0.00     0.148 C 
BRANCH  13  14
ATOM     14  C   UNL d   1      44.693  27.420  57.446  0.00  0.00     0.031 C 
BRANCH  14  15
ATOM     15  C   UNL d   1      45.109  26.993  56.878  0.00  0.00     0.029 C 
BRANCH  15  16
ATOM     16  C   UNL d   1      44.747  26.358  56.499  0.00  0.00     0.126 C 
BRANCH  16  17
ATOM     17  O   UNL d   1      45.210  25.814  56.085  0.00  0.00    -0.271 OA
BRANCH  17  18
ATOM     18  C   UNL d   1      44.872  25.113  55.819  0.00  0.00     0.300 C 
ATOM     19  O   UNL d   1      45.066  24.398  56.182  0.00  0.00    -0.259 OA
ATOM     20  C   UNL d   1      44.341  25.126  55.191  0.00  0.00     0.074 C 
ENDBRANCH  17  18
ENDBRANCH  16  17
ENDBRANCH  15  16
ENDBRANCH  14  15
ENDBRANCH  13  14
ENDBRANCH  12  13
ENDBRANCH   1  12
TORSDOF 7
ENDMDL
