MODEL 1
REMARK VINA RESULT:      16.5      0.000      0.000
REMARK  5 active torsions:
REMARK  status: ('A' for Active; 'I' for Inactive)
REMARK    1  A    between atoms: C_18  and  N_1 
REMARK    2  A    between atoms: C_13  and  C_6 
REMARK    3  A    between atoms: C_12  and  C_7 
REMARK    4  A    between atoms: C_23  and  C_14 
REMARK    5  A    between atoms: C_19  and  C_18 
ROOT
ATOM      1  C   UNL d   1     -41.430-123.479 -49.650  0.00  0.00     0.121 A 
ATOM      2  C   UNL d   1     -42.176-123.128 -49.563  0.00  0.00     0.058 A 
ATOM      3  N   UNL d   1     -41.124-123.602 -48.895  0.00  0.00    -0.195 NA
ATOM      4  S   UNL d   1     -41.137-123.636 -50.402  0.00  0.00    -0.068 SA
ATOM      5  C   UNL d   1     -41.582-123.445 -51.073  0.00  0.00     0.026 A 
ATOM      6  C   UNL d   1     -42.327-123.094 -50.985  0.00  0.00    -0.001 A 
ATOM      7  C   UNL d   1     -41.600-123.462 -52.013  0.00  0.00    -0.011 A 
ATOM      8  C   UNL d   1     -42.414-123.075 -51.800  0.00  0.00    -0.027 A 
ATOM      9  C   UNL d   1     -42.624-122.935 -50.228  0.00  0.00     0.008 A 
ATOM     10  C   UNL d   1     -41.676-123.329 -48.345  0.00  0.00     0.311 A 
ATOM     11  S   UNL d   1     -42.323-123.038 -48.754  0.00  0.00    -0.024 SA
ATOM     12  C   UNL d   1     -41.144-123.692 -52.659  0.00  0.00     0.049 A 
ATOM     13  O   UNL d   1     -41.589-123.349 -47.525  0.00  0.00    -0.258 OA
ENDROOT
BRANCH   9  14
ATOM     14  C   UNL d   1     -43.361-122.588 -50.141  0.00  0.00     0.001 A 
ATOM     15  C   UNL d   1     -43.442-121.768 -50.154  0.00  0.00     0.000 A 
ATOM     16  C   UNL d   1     -44.183-121.418 -50.067  0.00  0.00     0.000 A 
ATOM     17  C   UNL d   1     -44.856-121.884 -49.965  0.00  0.00     0.000 A 
ATOM     18  C   UNL d   1     -44.778-122.710 -49.951  0.00  0.00     0.000 A 
ATOM     19  C   UNL d   1     -44.037-123.059 -50.038  0.00  0.00     0.000 A 
ENDBRANCH   9  14
BRANCH   8  20
ATOM     20  C   UNL d   1     -43.044-122.792 -52.243  0.00  0.00     0.125 A 
ATOM     21  C   UNL d   1     -43.252-122.339 -52.900  0.00  0.00     0.251 A 
ATOM     22  N   UNL d   1     -42.552-122.067 -53.246  0.00  0.00    -0.239 N 
ATOM     23  O   UNL d   1     -44.023-122.184 -53.169  0.00  0.00    -0.271 OA
ATOM     24  C   UNL d   1     -41.921-122.345 -52.811  0.00  0.00     0.263 A 
ATOM     25  C   UNL d   1     -42.225-122.799 -52.182  0.00  0.00     0.044 A 
ATOM     26  O   UNL d   1     -41.123-122.198 -52.972  0.00  0.00    -0.267 OA
BRANCH  22  27
ATOM     27  C   UNL d   1     -42.498-121.580 -53.937  0.00  0.00     0.134 C 
ATOM     28  C   UNL d   1     -42.317-120.758 -53.868  0.00  0.00     0.026 C 
BRANCH  27  29
ATOM     29  C   UNL d   1     -42.626-121.921 -54.707  0.00  0.00     0.228 C 
ATOM     30  O   UNL d   1     -43.267-122.461 -54.827  0.00  0.00    -0.643 OA
ATOM     31  O   UNL d   1     -42.114-121.718 -55.342  0.00  0.00    -0.643 OA
ENDBRANCH  27  29
ENDBRANCH  22  27
ENDBRANCH   8  20
TORSDOF 5
ENDMDL
MODEL 2
REMARK VINA RESULT:      18.7      1.763      4.499
REMARK  5 active torsions:
REMARK  status: ('A' for Active; 'I' for Inactive)
REMARK    1  A    between atoms: C_18  and  N_1 
REMARK    2  A    between atoms: C_13  and  C_6 
REMARK    3  A    between atoms: C_12  and  C_7 
REMARK    4  A    between atoms: C_23  and  C_14 
REMARK    5  A    between atoms: C_19  and  C_18 
ROOT
ATOM      1  C   UNL d   1     -41.546-122.900 -54.228  0.00  0.00     0.121 A 
ATOM      2  C   UNL d   1     -41.667-122.085 -54.142  0.00  0.00     0.058 A 
ATOM      3  N   UNL d   1     -41.596-123.074 -55.032  0.00  0.00    -0.195 NA
ATOM      4  S   UNL d   1     -41.407-123.367 -53.565  0.00  0.00    -0.068 SA
ATOM      5  C   UNL d   1     -41.388-123.027 -52.812  0.00  0.00     0.026 A 
ATOM      6  C   UNL d   1     -41.510-122.212 -52.725  0.00  0.00    -0.001 A 
ATOM      7  C   UNL d   1     -41.272-123.199 -51.895  0.00  0.00    -0.011 A 
ATOM      8  C   UNL d   1     -41.420-122.284 -51.913  0.00  0.00    -0.027 A 
ATOM      9  C   UNL d   1     -41.650-121.741 -53.393  0.00  0.00     0.008 A 
ATOM     10  C   UNL d   1     -41.747-122.371 -55.440  0.00  0.00     0.311 A 
ATOM     11  S   UNL d   1     -41.791-121.763 -54.893  0.00  0.00    -0.024 SA
ATOM     12  C   UNL d   1     -41.123-123.817 -51.372  0.00  0.00     0.049 A 
ATOM     13  O   UNL d   1     -41.838-122.298 -56.256  0.00  0.00    -0.258 OA
ENDROOT
BRANCH   9  14
ATOM     14  C   UNL d   1     -41.770-120.934 -53.307  0.00  0.00     0.001 A 
ATOM     15  C   UNL d   1     -42.533-120.622 -53.310  0.00  0.00     0.000 A 
ATOM     16  C   UNL d   1     -42.654-119.811 -53.224  0.00  0.00     0.000 A 
ATOM     17  C   UNL d   1     -42.014-119.299 -53.133  0.00  0.00     0.000 A 
ATOM     18  C   UNL d   1     -41.244-119.611 -53.130  0.00  0.00     0.000 A 
ATOM     19  C   UNL d   1     -41.123-120.421 -53.216  0.00  0.00     0.000 A 
ENDBRANCH   9  14
BRANCH   8  20
ATOM     20  C   UNL d   1     -41.458-121.700 -51.339  0.00  0.00     0.125 A 
ATOM     21  C   UNL d   1     -41.736-121.519 -50.584  0.00  0.00     0.251 A 
ATOM     22  N   UNL d   1     -42.131-122.187 -50.297  0.00  0.00    -0.239 N 
ATOM     23  O   UNL d   1     -41.640-120.798 -50.182  0.00  0.00    -0.271 OA
ATOM     24  C   UNL d   1     -42.097-122.773 -50.864  0.00  0.00     0.263 A 
ATOM     25  C   UNL d   1     -41.676-122.471 -51.518  0.00  0.00     0.044 A 
ATOM     26  O   UNL d   1     -42.425-123.530 -50.795  0.00  0.00    -0.267 OA
BRANCH  22  27
ATOM     27  C   UNL d   1     -42.507-122.255 -49.541  0.00  0.00     0.134 C 
ATOM     28  C   UNL d   1     -43.348-122.308 -49.486  0.00  0.00     0.026 C 
BRANCH  27  29
ATOM     29  C   UNL d   1     -42.035-122.269 -48.833  0.00  0.00     0.228 C 
ATOM     30  O   UNL d   1     -41.686-122.996 -48.574  0.00  0.00    -0.643 OA
ATOM     31  O   UNL d   1     -41.920-121.560 -48.396  0.00  0.00    -0.643 OA
ENDBRANCH  27  29
ENDBRANCH  22  27
ENDBRANCH   8  20
TORSDOF 5
ENDMDL
