MODEL 1
REMARK VINA RESULT:      29.5      0.000      0.000
REMARK  3 active torsions:
REMARK  status: ('A' for Active; 'I' for Inactive)
REMARK    1  A    between atoms: N_6  and  C_1 
REMARK    2  A    between atoms: C_9  and  C_2 
REMARK       I    between atoms: C_8  and  N_6 
REMARK       I    between atoms: C_11  and  N_7 
REMARK    3  A    between atoms: C_17  and  C_8 
ROOT
ATOM      1  C   UNL d   1      45.960 -17.148  43.487  0.00  0.00     0.119 A 
ATOM      2  C   UNL d   1      46.013 -17.918  43.771  0.00  0.00     0.084 A 
ATOM      3  C   UNL d   1      46.182 -17.954  42.451  0.00  0.00     0.049 A 
ATOM      4  C   UNL d   1      46.151 -18.420  43.126  0.00  0.00     0.016 A 
ATOM      5  S   UNL d   1      46.065 -17.168  42.665  0.00  0.00    -0.066 SA
ATOM      6  N   UNL d   1      46.415 -19.131  41.660  0.00  0.00    -0.272 N 
ATOM      7  C   UNL d   1      46.316 -18.320  41.711  0.00  0.00     0.089 A 
ATOM      8  C   UNL d   1      46.547 -19.497  40.934  0.00  0.00     0.265 C 
ATOM      9  C   UNL d   1      46.249 -19.239  43.084  0.00  0.00     0.020 A 
ATOM     10  C   UNL d   1      46.381 -19.594  42.352  0.00  0.00     0.083 A 
ATOM     11  O   UNL d   1      46.581 -19.038  40.249  0.00  0.00    -0.267 OA
ATOM     12  C   UNL d   1      46.646 -20.309  40.883  0.00  0.00     0.066 C 
ENDROOT
BRANCH   1  13
ATOM     13  N   UNL d   1      45.826 -16.461  43.939  0.00  0.00    -0.201 NA
ATOM     14  C   UNL d   1      45.957 -15.720  43.598  0.00  0.00     0.280 C 
ATOM     15  O   UNL d   1      46.218 -15.647  42.821  0.00  0.00    -0.265 OA
BRANCH  14  16
ATOM     16  C   UNL d   1      45.823 -15.041  44.046  0.00  0.00     0.058 A 
ATOM     17  C   UNL d   1      45.134 -14.973  44.498  0.00  0.00     0.005 A 
ATOM     18  C   UNL d   1      45.000 -14.293  44.947  0.00  0.00     0.000 A 
ATOM     19  C   UNL d   1      45.554 -13.671  44.950  0.00  0.00     0.000 A 
ATOM     20  C   UNL d   1      46.238 -13.752  44.494  0.00  0.00     0.000 A 
ATOM     21  C   UNL d   1      46.372 -14.431  44.046  0.00  0.00     0.005 A 
ENDBRANCH  14  16
ENDBRANCH   1  13
BRANCH   2  22
ATOM     22  C   UNL d   1      45.939 -18.138  44.558  0.00  0.00     0.299 C 
ATOM     23  O   UNL d   1      45.230 -17.988  44.954  0.00  0.00    -0.264 OA
ATOM     24  N   UNL d   1      46.564 -18.504  44.951  0.00  0.00    -0.102 N 
ENDBRANCH   2  22
TORSDOF 3
ENDMDL
