MODEL 1
REMARK VINA RESULT:      -7.2      0.000      0.000
REMARK  0 active torsions:
REMARK  status: ('A' for Active; 'I' for Inactive)
ROOT
ATOM      1  C   UNL d   1      52.770  32.524  53.037  0.00  0.00     0.286 A 
ATOM      2  N   UNL d   1      52.187  33.062  53.006  0.00  0.00    -0.170 NA
ATOM      3  C   UNL d   1      53.291  32.749  53.631  0.00  0.00     0.066 A 
ATOM      4  S   UNL d   1      52.298  33.644  53.561  0.00  0.00     0.017 SA
ATOM      5  C   UNL d   1      52.991  33.462  53.965  0.00  0.00     0.052 A 
ATOM      6  O   UNL d   1      52.847  31.861  52.566  0.00  0.00    -0.265 OA
ATOM      7  C   UNL d   1      53.986  32.417  53.915  0.00  0.00     0.005 A 
ATOM      8  C   UNL d   1      53.390  33.833  54.579  0.00  0.00     0.008 A 
ATOM      9  C   UNL d   1      54.392  32.788  54.535  0.00  0.00     0.000 A 
ATOM     10  C   UNL d   1      54.092  33.502  54.869  0.00  0.00     0.001 A 
ENDROOT
TORSDOF 0
ENDMDL
MODEL 2
REMARK VINA RESULT:      -7.1      1.741      2.159
REMARK  0 active torsions:
REMARK  status: ('A' for Active; 'I' for Inactive)
ROOT
ATOM      1  C   UNL d   1      54.459  33.894  54.992  0.00  0.00     0.286 A 
ATOM      2  N   UNL d   1      53.937  34.486  55.070  0.00  0.00    -0.170 NA
ATOM      3  C   UNL d   1      54.142  33.341  54.473  0.00  0.00     0.066 A 
ATOM      4  S   UNL d   1      53.274  34.350  54.620  0.00  0.00     0.017 SA
ATOM      5  C   UNL d   1      53.387  33.631  54.236  0.00  0.00     0.052 A 
ATOM      6  O   UNL d   1      55.188  33.835  55.357  0.00  0.00    -0.265 OA
ATOM      7  C   UNL d   1      54.421  32.626  54.183  0.00  0.00     0.005 A 
ATOM      8  C   UNL d   1      52.922  33.202  53.713  0.00  0.00     0.008 A 
ATOM      9  C   UNL d   1      53.956  32.189  53.655  0.00  0.00     0.000 A 
ATOM     10  C   UNL d   1      53.201  32.480  53.418  0.00  0.00     0.001 A 
ENDROOT
TORSDOF 0
ENDMDL
MODEL 3
REMARK VINA RESULT:      -6.7      1.386      2.054
REMARK  0 active torsions:
REMARK  status: ('A' for Active; 'I' for Inactive)
ROOT
ATOM      1  C   UNL d   1      53.968  32.879  54.151  0.00  0.00     0.286 A 
ATOM      2  N   UNL d   1      53.540  33.496  53.894  0.00  0.00    -0.170 NA
ATOM      3  C   UNL d   1      53.660  32.198  53.810  0.00  0.00     0.066 A 
ATOM      4  S   UNL d   1      52.952  33.252  53.389  0.00  0.00     0.017 SA
ATOM      5  C   UNL d   1      53.013  32.435  53.325  0.00  0.00     0.052 A 
ATOM      6  O   UNL d   1      54.604  32.906  54.663  0.00  0.00    -0.265 OA
ATOM      7  C   UNL d   1      53.868  31.406  53.866  0.00  0.00     0.005 A 
ATOM      8  C   UNL d   1      52.583  31.877  52.904  0.00  0.00     0.008 A 
ATOM      9  C   UNL d   1      53.437  30.839  53.443  0.00  0.00     0.000 A 
ATOM     10  C   UNL d   1      52.789  31.077  52.958  0.00  0.00     0.001 A 
ENDROOT
TORSDOF 0
ENDMDL
MODEL 4
REMARK VINA RESULT:      -6.7      2.044      2.696
REMARK  0 active torsions:
REMARK  status: ('A' for Active; 'I' for Inactive)
ROOT
ATOM      1  C   UNL d   1      53.097  35.158  54.420  0.00  0.00     0.286 A 
ATOM      2  N   UNL d   1      53.604  34.748  54.873  0.00  0.00    -0.170 NA
ATOM      3  C   UNL d   1      52.748  34.635  53.891  0.00  0.00     0.066 A 
ATOM      4  S   UNL d   1      53.609  33.963  54.665  0.00  0.00     0.017 SA
ATOM      5  C   UNL d   1      53.075  33.873  54.047  0.00  0.00     0.052 A 
ATOM      6  O   UNL d   1      52.941  35.959  54.464  0.00  0.00    -0.265 OA
ATOM      7  C   UNL d   1      52.190  34.733  53.297  0.00  0.00     0.005 A 
ATOM      8  C   UNL d   1      52.838  33.222  53.607  0.00  0.00     0.008 A 
ATOM      9  C   UNL d   1      51.949  34.079  52.851  0.00  0.00     0.000 A 
ATOM     10  C   UNL d   1      52.275  33.317  53.006  0.00  0.00     0.001 A 
ENDROOT
TORSDOF 0
ENDMDL
MODEL 5
REMARK VINA RESULT:      -4.3     15.189     15.458
REMARK  0 active torsions:
REMARK  status: ('A' for Active; 'I' for Inactive)
ROOT
ATOM      1  C   UNL d   1      50.323  27.673  67.582  0.00  0.00     0.286 A 
ATOM      2  N   UNL d   1      50.509  28.441  67.655  0.00  0.00    -0.170 NA
ATOM      3  C   UNL d   1      49.509  27.599  67.668  0.00  0.00     0.066 A 
ATOM      4  S   UNL d   1      49.844  28.889  67.789  0.00  0.00     0.017 SA
ATOM      5  C   UNL d   1      49.204  28.373  67.800  0.00  0.00     0.052 A 
ATOM      6  O   UNL d   1      50.842  27.056  67.445  0.00  0.00    -0.265 OA
ATOM      7  C   UNL d   1      49.005  26.952  67.647  0.00  0.00     0.005 A 
ATOM      8  C   UNL d   1      48.399  28.489  67.908  0.00  0.00     0.008 A 
ATOM      9  C   UNL d   1      48.191  27.064  67.756  0.00  0.00     0.000 A 
ATOM     10  C   UNL d   1      47.886  27.838  67.888  0.00  0.00     0.001 A 
ENDROOT
TORSDOF 0
ENDMDL
MODEL 6
REMARK VINA RESULT:      -4.2      9.927     10.155
REMARK  0 active torsions:
REMARK  status: ('A' for Active; 'I' for Inactive)
ROOT
ATOM      1  C   UNL d   1      45.441  27.300  57.174  0.00  0.00     0.286 A 
ATOM      2  N   UNL d   1      45.490  27.090  57.938  0.00  0.00    -0.170 NA
ATOM      3  C   UNL d   1      45.212  28.088  57.142  0.00  0.00     0.066 A 
ATOM      4  S   UNL d   1      45.302  27.714  58.423  0.00  0.00     0.017 SA
ATOM      5  C   UNL d   1      45.123  28.352  57.938  0.00  0.00     0.052 A 
ATOM      6  O   UNL d   1      45.589  26.824  56.527  0.00  0.00    -0.265 OA
ATOM      7  C   UNL d   1      45.072  28.601  56.517  0.00  0.00     0.005 A 
ATOM      8  C   UNL d   1      44.896  29.125  58.096  0.00  0.00     0.008 A 
ATOM      9  C   UNL d   1      44.842  29.382  56.672  0.00  0.00     0.000 A 
ATOM     10  C   UNL d   1      44.754  29.646  57.468  0.00  0.00     0.001 A 
ENDROOT
TORSDOF 0
ENDMDL
