MODEL 1
REMARK VINA RESULT:      -4.6      0.000      0.000
REMARK  0 active torsions:
REMARK  status: ('A' for Active; 'I' for Inactive)
ROOT
ATOM      1  C   UNL d   1     -41.659-122.608 -53.161  0.00  0.00     0.286 A 
ATOM      2  N   UNL d   1     -41.283-123.302 -53.243  0.00  0.00    -0.170 NA
ATOM      3  C   UNL d   1     -41.865-122.341 -53.910  0.00  0.00     0.066 A 
ATOM      4  S   UNL d   1     -41.228-123.512 -54.026  0.00  0.00     0.017 SA
ATOM      5  C   UNL d   1     -41.591-122.917 -54.461  0.00  0.00     0.052 A 
ATOM      6  O   UNL d   1     -41.818-122.219 -52.460  0.00  0.00    -0.265 OA
ATOM      7  C   UNL d   1     -42.256-121.669 -54.172  0.00  0.00     0.005 A 
ATOM      8  C   UNL d   1     -41.712-122.812 -55.266  0.00  0.00     0.008 A 
ATOM      9  C   UNL d   1     -42.380-121.559 -54.984  0.00  0.00     0.000 A 
ATOM     10  C   UNL d   1     -42.106-122.135 -55.535  0.00  0.00     0.001 A 
ENDROOT
TORSDOF 0
ENDMDL
MODEL 2
REMARK VINA RESULT:      -4.4      1.655      2.244
REMARK  0 active torsions:
REMARK  status: ('A' for Active; 'I' for Inactive)
ROOT
ATOM      1  C   UNL d   1     -42.314-121.903 -55.146  0.00  0.00     0.286 A 
ATOM      2  N   UNL d   1     -42.447-121.334 -54.609  0.00  0.00    -0.170 NA
ATOM      3  C   UNL d   1     -41.911-122.515 -54.774  0.00  0.00     0.066 A 
ATOM      4  S   UNL d   1     -42.147-121.544 -53.884  0.00  0.00     0.017 SA
ATOM      5  C   UNL d   1     -41.806-122.286 -53.969  0.00  0.00     0.052 A 
ATOM      6  O   UNL d   1     -42.533-121.892 -55.934  0.00  0.00    -0.265 OA
ATOM      7  C   UNL d   1     -41.629-123.238 -55.040  0.00  0.00     0.005 A 
ATOM      8  C   UNL d   1     -41.418-122.783 -53.444  0.00  0.00     0.008 A 
ATOM      9  C   UNL d   1     -41.237-123.743 -54.513  0.00  0.00     0.000 A 
ATOM     10  C   UNL d   1     -41.131-123.514 -53.709  0.00  0.00     0.001 A 
ENDROOT
TORSDOF 0
ENDMDL
MODEL 3
REMARK VINA RESULT:      -4.2      1.160      2.126
REMARK  0 active torsions:
REMARK  status: ('A' for Active; 'I' for Inactive)
ROOT
ATOM      1  C   UNL d   1     -41.694-122.314 -54.242  0.00  0.00     0.286 A 
ATOM      2  N   UNL d   1     -41.676-122.993 -54.653  0.00  0.00    -0.170 NA
ATOM      3  C   UNL d   1     -41.513-122.487 -53.459  0.00  0.00     0.066 A 
ATOM      4  S   UNL d   1     -41.489-123.619 -54.172  0.00  0.00     0.017 SA
ATOM      5  C   UNL d   1     -41.382-123.318 -53.414  0.00  0.00     0.052 A 
ATOM      6  O   UNL d   1     -41.861-121.570 -54.536  0.00  0.00    -0.265 OA
ATOM      7  C   UNL d   1     -41.448-122.020 -52.788  0.00  0.00     0.005 A 
ATOM      8  C   UNL d   1     -41.189-123.670 -52.699  0.00  0.00     0.008 A 
ATOM      9  C   UNL d   1     -41.253-122.370 -52.063  0.00  0.00     0.000 A 
ATOM     10  C   UNL d   1     -41.123-123.202 -52.018  0.00  0.00     0.001 A 
ENDROOT
TORSDOF 0
ENDMDL
MODEL 4
REMARK VINA RESULT:      -3.9      1.359      1.713
REMARK  0 active torsions:
REMARK  status: ('A' for Active; 'I' for Inactive)
ROOT
ATOM      1  C   UNL d   1     -41.246-122.452 -51.828  0.00  0.00     0.286 A 
ATOM      2  N   UNL d   1     -41.147-123.139 -51.443  0.00  0.00    -0.170 NA
ATOM      3  C   UNL d   1     -41.296-122.617 -52.632  0.00  0.00     0.066 A 
ATOM      4  S   UNL d   1     -41.129-123.763 -51.962  0.00  0.00     0.017 SA
ATOM      5  C   UNL d   1     -41.222-123.452 -52.717  0.00  0.00     0.052 A 
ATOM      6  O   UNL d   1     -41.291-121.707 -51.495  0.00  0.00    -0.265 OA
ATOM      7  C   UNL d   1     -41.397-122.140 -53.292  0.00  0.00     0.005 A 
ATOM      8  C   UNL d   1     -41.249-123.798 -53.461  0.00  0.00     0.008 A 
ATOM      9  C   UNL d   1     -41.425-122.484 -54.045  0.00  0.00     0.000 A 
ATOM     10  C   UNL d   1     -41.350-123.320 -54.130  0.00  0.00     0.001 A 
ENDROOT
TORSDOF 0
ENDMDL
MODEL 5
REMARK VINA RESULT:      -3.8      2.265      3.479
REMARK  0 active torsions:
REMARK  status: ('A' for Active; 'I' for Inactive)
ROOT
ATOM      1  C   UNL d   1     -41.148-122.609 -52.563  0.00  0.00     0.286 A 
ATOM      2  N   UNL d   1     -41.132-121.817 -52.514  0.00  0.00    -0.170 NA
ATOM      3  C   UNL d   1     -41.194-122.910 -51.800  0.00  0.00     0.066 A 
ATOM      4  S   UNL d   1     -41.167-121.574 -51.740  0.00  0.00     0.017 SA
ATOM      5  C   UNL d   1     -41.206-122.251 -51.275  0.00  0.00     0.052 A 
ATOM      6  O   UNL d   1     -41.123-123.056 -53.247  0.00  0.00    -0.265 OA
ATOM      7  C   UNL d   1     -41.226-123.675 -51.506  0.00  0.00     0.005 A 
ATOM      8  C   UNL d   1     -41.250-122.366 -50.464  0.00  0.00     0.008 A 
ATOM      9  C   UNL d   1     -41.271-123.797 -50.687  0.00  0.00     0.000 A 
ATOM     10  C   UNL d   1     -41.283-123.137 -50.163  0.00  0.00     0.001 A 
ENDROOT
TORSDOF 0
ENDMDL
MODEL 6
REMARK VINA RESULT:      -3.5      3.888      4.967
REMARK  0 active torsions:
REMARK  status: ('A' for Active; 'I' for Inactive)
ROOT
ATOM      1  C   UNL d   1     -42.497-122.499 -50.404  0.00  0.00     0.286 A 
ATOM      2  N   UNL d   1     -41.859-122.689 -50.836  0.00  0.00    -0.170 NA
ATOM      3  C   UNL d   1     -42.389-122.800 -49.647  0.00  0.00     0.066 A 
ATOM      4  S   UNL d   1     -41.323-123.109 -50.394  0.00  0.00     0.017 SA
ATOM      5  C   UNL d   1     -41.641-123.189 -49.641  0.00  0.00     0.052 A 
ATOM      6  O   UNL d   1     -43.151-122.079 -50.656  0.00  0.00    -0.265 OA
ATOM      7  C   UNL d   1     -42.852-122.780 -48.969  0.00  0.00     0.005 A 
ATOM      8  C   UNL d   1     -41.367-123.551 -48.957  0.00  0.00     0.008 A 
ATOM      9  C   UNL d   1     -42.579-123.145 -48.277  0.00  0.00     0.000 A 
ATOM     10  C   UNL d   1     -41.831-123.534 -48.271  0.00  0.00     0.001 A 
ENDROOT
TORSDOF 0
ENDMDL
MODEL 7
REMARK VINA RESULT:      -3.2      3.510      3.989
REMARK  0 active torsions:
REMARK  status: ('A' for Active; 'I' for Inactive)
ROOT
ATOM      1  C   UNL d   1     -42.545-122.864 -49.436  0.00  0.00     0.286 A 
ATOM      2  N   UNL d   1     -42.227-123.556 -49.213  0.00  0.00    -0.170 NA
ATOM      3  C   UNL d   1     -42.169-122.622 -50.125  0.00  0.00     0.066 A 
ATOM      4  S   UNL d   1     -41.646-123.789 -49.731  0.00  0.00     0.017 SA
ATOM      5  C   UNL d   1     -41.596-123.211 -50.313  0.00  0.00     0.052 A 
ATOM      6  O   UNL d   1     -43.142-122.456 -49.055  0.00  0.00    -0.265 OA
ATOM      7  C   UNL d   1     -42.260-121.963 -50.606  0.00  0.00     0.005 A 
ATOM      8  C   UNL d   1     -41.123-123.132 -50.979  0.00  0.00     0.008 A 
ATOM      9  C   UNL d   1     -41.784-121.879 -51.279  0.00  0.00     0.000 A 
ATOM     10  C   UNL d   1     -41.211-122.468 -51.467  0.00  0.00     0.001 A 
ENDROOT
TORSDOF 0
ENDMDL
MODEL 8
REMARK VINA RESULT:      -2.7      4.860      5.491
REMARK  0 active torsions:
REMARK  status: ('A' for Active; 'I' for Inactive)
ROOT
ATOM      1  C   UNL d   1     -42.066-123.103 -47.727  0.00  0.00     0.286 A 
ATOM      2  N   UNL d   1     -41.416-123.546 -47.623  0.00  0.00    -0.170 NA
ATOM      3  C   UNL d   1     -42.217-123.060 -48.534  0.00  0.00     0.066 A 
ATOM      4  S   UNL d   1     -41.123-123.803 -48.336  0.00  0.00     0.017 SA
ATOM      5  C   UNL d   1     -41.617-123.506 -48.921  0.00  0.00     0.052 A 
ATOM      6  O   UNL d   1     -42.514-122.748 -47.142  0.00  0.00    -0.265 OA
ATOM      7  C   UNL d   1     -42.804-122.686 -48.970  0.00  0.00     0.005 A 
ATOM      8  C   UNL d   1     -41.611-123.572 -49.739  0.00  0.00     0.008 A 
ATOM      9  C   UNL d   1     -42.802-122.750 -49.796  0.00  0.00     0.000 A 
ATOM     10  C   UNL d   1     -42.202-123.197 -50.184  0.00  0.00     0.001 A 
ENDROOT
TORSDOF 0
ENDMDL
