MODEL 1
REMARK VINA RESULT:      44.1      0.000      0.000
REMARK  6 active torsions:
REMARK  status: ('A' for Active; 'I' for Inactive)
REMARK    1  A    between atoms: N_3  and  S_1 
REMARK    2  A    between atoms: C_7  and  S_1 
REMARK    3  A    between atoms: C_2  and  N_3 
REMARK    4  A    between atoms: N_8  and  C_5 
REMARK    5  A    between atoms: C_20  and  N_8 
REMARK    6  A    between atoms: C_13  and  C_20 
ROOT
ATOM      1  C   UNL d   1      13.811  13.505  -3.322  0.00  0.00     0.211 A 
ATOM      2  N   UNL d   1      13.636  13.711  -4.110  0.00  0.00    -0.222 NA
ATOM      3  C   UNL d   1      13.692  12.719  -3.068  0.00  0.00     0.200 A 
ATOM      4  N   UNL d   1      13.408  12.167  -3.596  0.00  0.00    -0.223 NA
ATOM      5  C   UNL d   1      13.349  13.148  -4.641  0.00  0.00     0.101 A 
ATOM      6  C   UNL d   1      13.236  12.366  -4.373  0.00  0.00     0.101 A 
ATOM      7  C   UNL d   1      12.939  11.779  -4.916  0.00  0.00     0.021 A 
ATOM      8  C   UNL d   1      13.170  13.350  -5.444  0.00  0.00     0.021 A 
ATOM      9  C   UNL d   1      12.769  12.005  -5.706  0.00  0.00     0.002 A 
ATOM     10  C   UNL d   1      12.887  12.791  -5.960  0.00  0.00     0.002 A 
ENDROOT
BRANCH   1  11
ATOM     11  N   UNL d   1      14.079  14.002  -2.800  0.00  0.00    -0.136 NA
BRANCH  11  12
ATOM     12  S   UNL d   1      14.131  14.802  -2.896  0.00  0.00     0.287 S 
ATOM     13  O   UNL d   1      14.095  15.618  -3.176  0.00  0.00    -0.198 OA
ATOM     14  O   UNL d   1      13.776  14.521  -3.561  0.00  0.00    -0.198 OA
BRANCH  12  15
ATOM     15  C   UNL d   1      14.439  15.363  -2.399  0.00  0.00     0.105 A 
ATOM     16  C   UNL d   1      14.534  16.134  -2.653  0.00  0.00     0.013 A 
ATOM     17  C   UNL d   1      14.852  16.735  -2.155  0.00  0.00     0.001 A 
ATOM     18  C   UNL d   1      15.078  16.525  -1.368  0.00  0.00     0.000 A 
ATOM     19  C   UNL d   1      14.988  15.756  -1.104  0.00  0.00     0.001 A 
ATOM     20  C   UNL d   1      15.392  17.068  -0.844  0.00  0.00     0.000 C 
ATOM     21  C   UNL d   1      14.665  15.166  -1.620  0.00  0.00     0.013 A 
ENDBRANCH  12  15
ENDBRANCH  11  12
ENDBRANCH   1  11
BRANCH   3  22
ATOM     22  N   UNL d   1      13.869  12.562  -2.314  0.00  0.00    -0.221 NA
BRANCH  22  23
ATOM     23  C   UNL d   1      13.902  11.880  -1.921  0.00  0.00     0.125 C 
BRANCH  23  24
ATOM     24  C   UNL d   1      14.315  11.841  -1.249  0.00  0.00     0.119 A 
ATOM     25  O   UNL d   1      15.098  11.815  -1.181  0.00  0.00    -0.304 OA
ATOM     26  C   UNL d   1      15.276  11.780  -0.430  0.00  0.00     0.123 A 
ATOM     27  C   UNL d   1      14.606  11.782  -0.017  0.00  0.00     0.029 A 
ATOM     28  C   UNL d   1      14.009  11.820  -0.524  0.00  0.00     0.028 A 
ENDBRANCH  23  24
ENDBRANCH  22  23
ENDBRANCH   3  22
TORSDOF 6
ENDMDL
