MODEL 1
REMARK VINA RESULT:      33.2      0.000      0.000
REMARK  3 active torsions:
REMARK  status: ('A' for Active; 'I' for Inactive)
REMARK    1  A    between atoms: C_4  and  C_1 
REMARK    2  A    between atoms: N_2  and  C_9 
REMARK       I    between atoms: N_7  and  C_4 
REMARK    3  A    between atoms: C_11  and  N_7 
ROOT
ATOM      1  C   UNL d   1     -54.770-102.081 -40.224  0.00  0.00     0.087 A 
ATOM      2  S   UNL d   1     -54.749-102.726 -39.710  0.00  0.00    -0.082 SA
ATOM      3  C   UNL d   1     -54.787-101.397 -39.779  0.00  0.00     0.012 A 
ATOM      4  C   UNL d   1     -54.776-101.604 -38.975  0.00  0.00     0.008 A 
ATOM      5  C   UNL d   1     -54.752-102.450 -38.931  0.00  0.00     0.030 A 
ATOM      6  C   UNL d   1     -54.770-101.531 -37.565  0.00  0.00     0.127 A 
ATOM      7  C   UNL d   1     -54.784-101.165 -38.293  0.00  0.00     0.024 A 
ATOM      8  C   UNL d   1     -54.738-102.808 -38.208  0.00  0.00     0.008 A 
ATOM      9  C   UNL d   1     -54.746-102.376 -37.521  0.00  0.00     0.024 A 
ENDROOT
BRANCH   1  10
ATOM     10  C   UNL d   1     -54.774-102.124 -41.048  0.00  0.00     0.286 C 
ATOM     11  N   UNL d   1     -54.819-101.440 -41.506  0.00  0.00    -0.189 NA
ATOM     12  O   UNL d   1     -54.732-102.870 -41.432  0.00  0.00    -0.265 OA
BRANCH  11  13
ATOM     13  C   UNL d   1     -54.824-101.465 -42.331  0.00  0.00     0.166 A 
ATOM     14  N   UNL d   1     -54.736-100.748 -42.752  0.00  0.00    -0.225 NA
ATOM     15  C   UNL d   1     -54.739-100.756 -43.577  0.00  0.00     0.101 A 
ATOM     16  C   UNL d   1     -54.829-101.480 -43.988  0.00  0.00     0.021 A 
ATOM     17  C   UNL d   1     -54.914-102.175 -43.575  0.00  0.00     0.005 A 
ATOM     18  C   UNL d   1     -54.912-102.168 -42.739  0.00  0.00     0.039 A 
ENDBRANCH  11  13
ENDBRANCH   1  10
BRANCH   6  19
ATOM     19  N   UNL d   1     -54.778-101.089 -36.843  0.00  0.00    -0.114 N 
ATOM     20  O   UNL d   1     -54.736-100.279 -36.837  0.00  0.00    -0.532 OA
ATOM     21  O   UNL d   1     -54.830-101.504 -36.128  0.00  0.00    -0.532 OA
ENDBRANCH   6  19
TORSDOF 3
ENDMDL
