MODEL 1
REMARK VINA RESULT:      17.5      0.000      0.000
REMARK  3 active torsions:
REMARK  status: ('A' for Active; 'I' for Inactive)
REMARK    1  A    between atoms: C_2  and  C_1 
REMARK    2  A    between atoms: C_3  and  C_1 
REMARK    3  A    between atoms: C_5  and  C_2 
ROOT
ATOM      1  C   UNL d   1     -57.008 -98.756 -44.710  0.00  0.00     0.000 C 
ENDROOT
BRANCH   1   2
ATOM      2  C   UNL d   1     -56.313 -98.794 -44.270  0.00  0.00     0.000 C 
BRANCH   2   3
ATOM      3  C   UNL d   1     -55.785 -99.417 -44.398  0.00  0.00     0.000 A 
ATOM      4  C   UNL d   1     -55.781-100.061 -43.879  0.00  0.00     0.000 A 
ATOM      5  C   UNL d   1     -55.258-100.686 -44.000  0.00  0.00     0.000 A 
ATOM      6  C   UNL d   1     -54.733-100.669 -44.642  0.00  0.00     0.000 A 
ATOM      7  C   UNL d   1     -54.736-100.029 -45.160  0.00  0.00     0.000 A 
ATOM      8  C   UNL d   1     -55.260 -99.401 -45.040  0.00  0.00     0.000 A 
ENDBRANCH   2   3
ENDBRANCH   1   2
BRANCH   1   9
ATOM      9  C   UNL d   1     -57.736 -98.773 -44.329  0.00  0.00     0.000 A 
ATOM     10  C   UNL d   1     -57.768 -98.756 -43.504  0.00  0.00     0.002 A 
ATOM     11  C   UNL d   1     -58.496 -98.773 -43.122  0.00  0.00     0.021 A 
ATOM     12  C   UNL d   1     -59.195 -98.807 -43.560  0.00  0.00     0.103 A 
ATOM     13  C   UNL d   1     -59.159 -98.824 -44.385  0.00  0.00     0.021 A 
ATOM     14  N   UNL d   1     -59.925 -98.823 -43.170  0.00  0.00    -0.148 N 
ATOM     15  C   UNL d   1     -58.431 -98.807 -44.770  0.00  0.00     0.002 A 
ENDBRANCH   1   9
TORSDOF 3
ENDMDL
