MODEL 1
REMARK VINA RESULT:      -6.7      0.000      0.000
REMARK  5 active torsions:
REMARK  status: ('A' for Active; 'I' for Inactive)
REMARK    1  A    between atoms: N_2  and  C_1 
REMARK    2  A    between atoms: C_8  and  C_1 
REMARK    3  A    between atoms: O_5  and  N_2 
REMARK    4  A    between atoms: C_3  and  O_5 
REMARK    5  A    between atoms: C_4  and  C_3 
ROOT
ATOM      1  C   UNL d   1     -48.491  11.676  23.100  0.00  0.00     0.319 C 
ATOM      2  O   UNL d   1     -48.638  10.936  23.599  0.00  0.00    -0.257 OA
ENDROOT
BRANCH   1   3
ATOM      3  O   UNL d   1     -47.637  11.977  22.992  0.00  0.00    -0.168 OA
BRANCH   3   4
ATOM      4  N   UNL d   1     -47.010  11.589  23.361  0.00  0.00    -0.100 NA
BRANCH   4   5
ATOM      5  C   UNL d   1     -46.264  11.942  23.357  0.00  0.00     0.228 C 
ATOM      6  N   UNL d   1     -46.189  12.772  23.349  0.00  0.00    -0.123 N 
BRANCH   5   7
ATOM      7  C   UNL d   1     -45.595  11.461  23.360  0.00  0.00     0.121 A 
ATOM      8  N   UNL d   1     -44.910  11.749  23.009  0.00  0.00    -0.241 NA
ATOM      9  C   UNL d   1     -44.218  11.271  23.004  0.00  0.00     0.099 A 
ATOM     10  C   UNL d   1     -44.242  10.520  23.352  0.00  0.00     0.021 A 
ATOM     11  C   UNL d   1     -44.934  10.250  23.697  0.00  0.00     0.003 A 
ATOM     12  C   UNL d   1     -45.605  10.723  23.698  0.00  0.00     0.022 A 
ENDBRANCH   5   7
ENDBRANCH   4   5
ENDBRANCH   3   4
ENDBRANCH   1   3
BRANCH   1  13
ATOM     13  C   UNL d   1     -49.120  12.082  22.742  0.00  0.00     0.065 A 
ATOM     14  C   UNL d   1     -49.608  12.547  23.216  0.00  0.00     0.005 A 
ATOM     15  C   UNL d   1     -50.235  12.954  22.867  0.00  0.00     0.000 A 
ATOM     16  C   UNL d   1     -50.742  13.429  23.326  0.00  0.00     0.000 C 
ATOM     17  C   UNL d   1     -50.369  12.897  22.064  0.00  0.00     0.000 A 
ATOM     18  C   UNL d   1     -49.878  12.433  21.600  0.00  0.00     0.000 A 
ATOM     19  C   UNL d   1     -50.999  13.302  21.691  0.00  0.00     0.000 C 
ATOM     20  C   UNL d   1     -49.253  12.026  21.942  0.00  0.00     0.005 A 
ENDBRANCH   1  13
TORSDOF 5
ENDMDL
MODEL 2
REMARK VINA RESULT:      -6.7      1.331      1.832
REMARK  5 active torsions:
REMARK  status: ('A' for Active; 'I' for Inactive)
REMARK    1  A    between atoms: N_2  and  C_1 
REMARK    2  A    between atoms: C_8  and  C_1 
REMARK    3  A    between atoms: O_5  and  N_2 
REMARK    4  A    between atoms: C_3  and  O_5 
REMARK    5  A    between atoms: C_4  and  C_3 
ROOT
ATOM      1  C   UNL d   1     -48.353  12.831  21.941  0.00  0.00     0.319 C 
ATOM      2  O   UNL d   1     -48.305  12.654  21.055  0.00  0.00    -0.257 OA
ENDROOT
BRANCH   1   3
ATOM      3  O   UNL d   1     -47.643  13.225  22.355  0.00  0.00    -0.168 OA
BRANCH   3   4
ATOM      4  N   UNL d   1     -46.880  13.123  22.059  0.00  0.00    -0.100 NA
BRANCH   4   5
ATOM      5  C   UNL d   1     -46.239  13.387  22.506  0.00  0.00     0.228 C 
ATOM      6  N   UNL d   1     -46.334  14.006  23.056  0.00  0.00    -0.123 N 
BRANCH   5   7
ATOM      7  C   UNL d   1     -45.504  13.029  22.400  0.00  0.00     0.121 A 
ATOM      8  N   UNL d   1     -45.317  12.382  22.871  0.00  0.00    -0.241 NA
ATOM      9  C   UNL d   1     -44.572  12.005  22.777  0.00  0.00     0.099 A 
ATOM     10  C   UNL d   1     -44.041  12.294  22.210  0.00  0.00     0.021 A 
ATOM     11  C   UNL d   1     -44.245  12.940  21.749  0.00  0.00     0.003 A 
ATOM     12  C   UNL d   1     -44.975  13.302  21.849  0.00  0.00     0.022 A 
ENDBRANCH   5   7
ENDBRANCH   4   5
ENDBRANCH   3   4
ENDBRANCH   1   3
BRANCH   1  13
ATOM     13  C   UNL d   1     -49.032  12.640  22.379  0.00  0.00     0.065 A 
ATOM     14  C   UNL d   1     -49.681  13.146  22.337  0.00  0.00     0.005 A 
ATOM     15  C   UNL d   1     -50.359  12.963  22.771  0.00  0.00     0.000 A 
ATOM     16  C   UNL d   1     -51.027  13.460  22.744  0.00  0.00     0.000 C 
ATOM     17  C   UNL d   1     -50.386  12.291  23.233  0.00  0.00     0.000 A 
ATOM     18  C   UNL d   1     -49.736  11.793  23.268  0.00  0.00     0.000 A 
ATOM     19  C   UNL d   1     -51.064  12.088  23.679  0.00  0.00     0.000 C 
ATOM     20  C   UNL d   1     -49.059  11.970  22.840  0.00  0.00     0.005 A 
ENDBRANCH   1  13
TORSDOF 5
ENDMDL
MODEL 3
REMARK VINA RESULT:      -6.4      1.981      5.046
REMARK  5 active torsions:
REMARK  status: ('A' for Active; 'I' for Inactive)
REMARK    1  A    between atoms: N_2  and  C_1 
REMARK    2  A    between atoms: C_8  and  C_1 
REMARK    3  A    between atoms: O_5  and  N_2 
REMARK    4  A    between atoms: C_3  and  O_5 
REMARK    5  A    between atoms: C_4  and  C_3 
ROOT
ATOM      1  C   UNL d   1     -46.996  13.576  22.942  0.00  0.00     0.319 C 
ATOM      2  O   UNL d   1     -46.578  14.351  23.147  0.00  0.00    -0.257 OA
ENDROOT
BRANCH   1   3
ATOM      3  O   UNL d   1     -47.817  13.604  22.547  0.00  0.00    -0.168 OA
BRANCH   3   4
ATOM      4  N   UNL d   1     -48.314  14.252  22.666  0.00  0.00    -0.100 NA
BRANCH   4   5
ATOM      5  C   UNL d   1     -49.066  14.246  22.326  0.00  0.00     0.228 C 
ATOM      6  N   UNL d   1     -49.193  13.883  21.587  0.00  0.00    -0.123 N 
BRANCH   5   7
ATOM      7  C   UNL d   1     -49.688  14.605  22.730  0.00  0.00     0.121 A 
ATOM      8  N   UNL d   1     -49.541  15.317  23.114  0.00  0.00    -0.241 NA
ATOM      9  C   UNL d   1     -50.165  15.697  23.530  0.00  0.00     0.099 A 
ATOM     10  C   UNL d   1     -50.914  15.346  23.545  0.00  0.00     0.021 A 
ATOM     11  C   UNL d   1     -51.043  14.636  23.156  0.00  0.00     0.003 A 
ATOM     12  C   UNL d   1     -50.428  14.272  22.752  0.00  0.00     0.022 A 
ENDBRANCH   5   7
ENDBRANCH   4   5
ENDBRANCH   3   4
ENDBRANCH   1   3
BRANCH   1  13
ATOM     13  C   UNL d   1     -46.644  12.843  23.109  0.00  0.00     0.065 A 
ATOM     14  C   UNL d   1     -45.883  12.701  22.825  0.00  0.00     0.005 A 
ATOM     15  C   UNL d   1     -45.526  11.974  22.986  0.00  0.00     0.000 A 
ATOM     16  C   UNL d   1     -44.758  11.807  22.710  0.00  0.00     0.000 C 
ATOM     17  C   UNL d   1     -45.921  11.406  23.420  0.00  0.00     0.000 A 
ATOM     18  C   UNL d   1     -46.677  11.557  23.698  0.00  0.00     0.000 A 
ATOM     19  C   UNL d   1     -45.576  10.664  23.594  0.00  0.00     0.000 C 
ATOM     20  C   UNL d   1     -47.037  12.278  23.541  0.00  0.00     0.005 A 
ENDBRANCH   1  13
TORSDOF 5
ENDMDL
MODEL 4
REMARK VINA RESULT:      -6.0      8.567      9.851
REMARK  5 active torsions:
REMARK  status: ('A' for Active; 'I' for Inactive)
REMARK    1  A    between atoms: N_2  and  C_1 
REMARK    2  A    between atoms: C_8  and  C_1 
REMARK    3  A    between atoms: O_5  and  N_2 
REMARK    4  A    between atoms: C_3  and  O_5 
REMARK    5  A    between atoms: C_4  and  C_3 
ROOT
ATOM      1  C   UNL d   1     -40.512  14.336  18.396  0.00  0.00     0.319 C 
ATOM      2  O   UNL d   1     -41.174  13.721  18.420  0.00  0.00    -0.257 OA
ENDROOT
BRANCH   1   3
ATOM      3  O   UNL d   1     -40.441  14.940  19.076  0.00  0.00    -0.168 OA
BRANCH   3   4
ATOM      4  N   UNL d   1     -40.501  14.691  19.860  0.00  0.00    -0.100 NA
BRANCH   4   5
ATOM      5  C   UNL d   1     -40.501  15.258  20.460  0.00  0.00     0.228 C 
ATOM      6  N   UNL d   1     -41.007  15.919  20.418  0.00  0.00    -0.123 N 
BRANCH   5   7
ATOM      7  C   UNL d   1     -39.992  15.161  21.101  0.00  0.00     0.121 A 
ATOM      8  N   UNL d   1     -39.584  15.820  21.375  0.00  0.00    -0.241 NA
ATOM      9  C   UNL d   1     -39.061  15.739  22.028  0.00  0.00     0.099 A 
ATOM     10  C   UNL d   1     -38.967  14.996  22.381  0.00  0.00     0.021 A 
ATOM     11  C   UNL d   1     -39.381  14.350  22.094  0.00  0.00     0.003 A 
ATOM     12  C   UNL d   1     -39.890  14.439  21.456  0.00  0.00     0.022 A 
ENDBRANCH   5   7
ENDBRANCH   4   5
ENDBRANCH   3   4
ENDBRANCH   1   3
BRANCH   1  13
ATOM     13  C   UNL d   1     -39.971  14.359  17.767  0.00  0.00     0.065 A 
ATOM     14  C   UNL d   1     -39.412  13.756  17.709  0.00  0.00     0.005 A 
ATOM     15  C   UNL d   1     -38.871  13.772  17.086  0.00  0.00     0.000 A 
ATOM     16  C   UNL d   1     -38.296  13.173  17.007  0.00  0.00     0.000 C 
ATOM     17  C   UNL d   1     -38.890  14.374  16.537  0.00  0.00     0.000 A 
ATOM     18  C   UNL d   1     -39.449  14.969  16.602  0.00  0.00     0.000 A 
ATOM     19  C   UNL d   1     -38.350  14.407  15.899  0.00  0.00     0.000 C 
ATOM     20  C   UNL d   1     -39.990  14.959  17.220  0.00  0.00     0.005 A 
ENDBRANCH   1  13
TORSDOF 5
ENDMDL
MODEL 5
REMARK VINA RESULT:      -6.0      1.523      2.089
REMARK  5 active torsions:
REMARK  status: ('A' for Active; 'I' for Inactive)
REMARK    1  A    between atoms: N_2  and  C_1 
REMARK    2  A    between atoms: C_8  and  C_1 
REMARK    3  A    between atoms: O_5  and  N_2 
REMARK    4  A    between atoms: C_3  and  O_5 
REMARK    5  A    between atoms: C_4  and  C_3 
ROOT
ATOM      1  C   UNL d   1     -48.563  13.347  22.288  0.00  0.00     0.319 C 
ATOM      2  O   UNL d   1     -48.556  13.174  21.401  0.00  0.00    -0.257 OA
ENDROOT
BRANCH   1   3
ATOM      3  O   UNL d   1     -47.863  13.068  22.802  0.00  0.00    -0.168 OA
BRANCH   3   4
ATOM      4  N   UNL d   1     -47.110  12.996  22.474  0.00  0.00    -0.100 NA
BRANCH   4   5
ATOM      5  C   UNL d   1     -46.499  12.691  22.938  0.00  0.00     0.228 C 
ATOM      6  N   UNL d   1     -46.657  12.389  23.698  0.00  0.00    -0.123 N 
BRANCH   5   7
ATOM      7  C   UNL d   1     -45.732  12.689  22.637  0.00  0.00     0.121 A 
ATOM      8  N   UNL d   1     -45.247  12.049  22.816  0.00  0.00    -0.241 NA
ATOM      9  C   UNL d   1     -44.462  12.031  22.517  0.00  0.00     0.099 A 
ATOM     10  C   UNL d   1     -44.193  12.658  22.048  0.00  0.00     0.021 A 
ATOM     11  C   UNL d   1     -44.690  13.288  21.880  0.00  0.00     0.003 A 
ATOM     12  C   UNL d   1     -45.456  13.297  22.176  0.00  0.00     0.022 A 
ENDBRANCH   5   7
ENDBRANCH   4   5
ENDBRANCH   3   4
ENDBRANCH   1   3
BRANCH   1  13
ATOM     13  C   UNL d   1     -49.194  13.756  22.640  0.00  0.00     0.065 A 
ATOM     14  C   UNL d   1     -49.115  14.567  22.766  0.00  0.00     0.005 A 
ATOM     15  C   UNL d   1     -49.738  14.980  23.115  0.00  0.00     0.000 A 
ATOM     16  C   UNL d   1     -49.681  15.800  23.252  0.00  0.00     0.000 C 
ATOM     17  C   UNL d   1     -50.422  14.591  23.332  0.00  0.00     0.000 A 
ATOM     18  C   UNL d   1     -50.492  13.784  23.203  0.00  0.00     0.000 A 
ATOM     19  C   UNL d   1     -51.064  14.992  23.687  0.00  0.00     0.000 C 
ATOM     20  C   UNL d   1     -49.875  13.369  22.857  0.00  0.00     0.005 A 
ENDBRANCH   1  13
TORSDOF 5
ENDMDL
MODEL 6
REMARK VINA RESULT:      -5.8      2.082      4.778
REMARK  5 active torsions:
REMARK  status: ('A' for Active; 'I' for Inactive)
REMARK    1  A    between atoms: N_2  and  C_1 
REMARK    2  A    between atoms: C_8  and  C_1 
REMARK    3  A    between atoms: O_5  and  N_2 
REMARK    4  A    between atoms: C_3  and  O_5 
REMARK    5  A    between atoms: C_4  and  C_3 
ROOT
ATOM      1  C   UNL d   1     -48.510  11.771  22.915  0.00  0.00     0.319 C 
ATOM      2  O   UNL d   1     -48.573  10.979  22.483  0.00  0.00    -0.257 OA
ENDROOT
BRANCH   1   3
ATOM      3  O   UNL d   1     -49.265  12.155  23.253  0.00  0.00    -0.168 OA
BRANCH   3   4
ATOM      4  N   UNL d   1     -49.873  12.391  22.749  0.00  0.00    -0.100 NA
BRANCH   4   5
ATOM      5  C   UNL d   1     -50.520  12.794  23.064  0.00  0.00     0.228 C 
ATOM      6  N   UNL d   1     -50.983  12.447  23.663  0.00  0.00    -0.123 N 
BRANCH   5   7
ATOM      7  C   UNL d   1     -50.700  13.546  22.777  0.00  0.00     0.121 A 
ATOM      8  N   UNL d   1     -50.876  13.623  21.978  0.00  0.00    -0.241 NA
ATOM      9  C   UNL d   1     -51.062  14.381  21.668  0.00  0.00     0.099 A 
ATOM     10  C   UNL d   1     -51.064  15.036  22.175  0.00  0.00     0.021 A 
ATOM     11  C   UNL d   1     -50.886  14.940  22.969  0.00  0.00     0.003 A 
ATOM     12  C   UNL d   1     -50.706  14.195  23.263  0.00  0.00     0.022 A 
ENDBRANCH   5   7
ENDBRANCH   4   5
ENDBRANCH   3   4
ENDBRANCH   1   3
BRANCH   1  13
ATOM     13  C   UNL d   1     -47.778  12.151  23.007  0.00  0.00     0.065 A 
ATOM     14  C   UNL d   1     -47.598  12.782  22.509  0.00  0.00     0.005 A 
ATOM     15  C   UNL d   1     -46.872  13.164  22.595  0.00  0.00     0.000 A 
ATOM     16  C   UNL d   1     -46.668  13.805  22.102  0.00  0.00     0.000 C 
ATOM     17  C   UNL d   1     -46.341  12.922  23.165  0.00  0.00     0.000 A 
ATOM     18  C   UNL d   1     -46.529  12.293  23.656  0.00  0.00     0.000 A 
ATOM     19  C   UNL d   1     -45.600  13.296  23.267  0.00  0.00     0.000 C 
ATOM     20  C   UNL d   1     -47.249  11.909  23.575  0.00  0.00     0.005 A 
ENDBRANCH   1  13
TORSDOF 5
ENDMDL
MODEL 7
REMARK VINA RESULT:      -5.5      8.423      9.740
REMARK  5 active torsions:
REMARK  status: ('A' for Active; 'I' for Inactive)
REMARK    1  A    between atoms: N_2  and  C_1 
REMARK    2  A    between atoms: C_8  and  C_1 
REMARK    3  A    between atoms: O_5  and  N_2 
REMARK    4  A    between atoms: C_3  and  O_5 
REMARK    5  A    between atoms: C_4  and  C_3 
ROOT
ATOM      1  C   UNL d   1     -40.444  14.427  20.549  0.00  0.00     0.319 C 
ATOM      2  O   UNL d   1     -41.335  14.312  20.645  0.00  0.00    -0.257 OA
ENDROOT
BRANCH   1   3
ATOM      3  O   UNL d   1     -40.066  14.311  19.727  0.00  0.00    -0.168 OA
BRANCH   3   4
ATOM      4  N   UNL d   1     -40.512  14.431  19.045  0.00  0.00    -0.100 NA
BRANCH   4   5
ATOM      5  C   UNL d   1     -40.150  14.336  18.309  0.00  0.00     0.228 C 
ATOM      6  N   UNL d   1     -39.614  13.711  18.179  0.00  0.00    -0.123 N 
BRANCH   5   7
ATOM      7  C   UNL d   1     -40.327  14.868  17.705  0.00  0.00     0.121 A 
ATOM      8  N   UNL d   1     -41.096  14.881  17.414  0.00  0.00    -0.241 NA
ATOM      9  C   UNL d   1     -41.294  15.417  16.798  0.00  0.00     0.099 A 
ATOM     10  C   UNL d   1     -40.711  15.922  16.497  0.00  0.00     0.021 A 
ATOM     11  C   UNL d   1     -39.950  15.895  16.800  0.00  0.00     0.003 A 
ATOM     12  C   UNL d   1     -39.765  15.368  17.402  0.00  0.00     0.022 A 
ENDBRANCH   5   7
ENDBRANCH   4   5
ENDBRANCH   3   4
ENDBRANCH   1   3
BRANCH   1  13
ATOM     13  C   UNL d   1     -39.967  14.637  21.195  0.00  0.00     0.065 A 
ATOM     14  C   UNL d   1     -39.572  14.038  21.602  0.00  0.00     0.005 A 
ATOM     15  C   UNL d   1     -39.096  14.239  22.245  0.00  0.00     0.000 A 
ATOM     16  C   UNL d   1     -38.687  13.651  22.671  0.00  0.00     0.000 C 
ATOM     17  C   UNL d   1     -39.018  15.018  22.476  0.00  0.00     0.000 A 
ATOM     18  C   UNL d   1     -39.415  15.606  22.066  0.00  0.00     0.000 A 
ATOM     19  C   UNL d   1     -38.541  15.241  23.125  0.00  0.00     0.000 C 
ATOM     20  C   UNL d   1     -39.889  15.413  21.425  0.00  0.00     0.005 A 
ENDBRANCH   1  13
TORSDOF 5
ENDMDL
MODEL 8
REMARK VINA RESULT:      -5.4      8.561      9.149
REMARK  5 active torsions:
REMARK  status: ('A' for Active; 'I' for Inactive)
REMARK    1  A    between atoms: N_2  and  C_1 
REMARK    2  A    between atoms: C_8  and  C_1 
REMARK    3  A    between atoms: O_5  and  N_2 
REMARK    4  A    between atoms: C_3  and  O_5 
REMARK    5  A    between atoms: C_4  and  C_3 
ROOT
ATOM      1  C   UNL d   1     -40.506  14.800  20.120  0.00  0.00     0.319 C 
ATOM      2  O   UNL d   1     -41.216  14.434  20.543  0.00  0.00    -0.257 OA
ENDROOT
BRANCH   1   3
ATOM      3  O   UNL d   1     -39.741  14.960  20.592  0.00  0.00    -0.168 OA
BRANCH   3   4
ATOM      4  N   UNL d   1     -39.634  14.623  21.336  0.00  0.00    -0.100 NA
BRANCH   4   5
ATOM      5  C   UNL d   1     -38.937  14.779  21.749  0.00  0.00     0.228 C 
ATOM      6  N   UNL d   1     -38.512  15.482  21.610  0.00  0.00    -0.123 N 
BRANCH   5   7
ATOM      7  C   UNL d   1     -38.667  14.229  22.300  0.00  0.00     0.121 A 
ATOM      8  N   UNL d   1     -38.235  13.586  22.026  0.00  0.00    -0.241 NA
ATOM      9  C   UNL d   1     -37.953  13.015  22.574  0.00  0.00     0.099 A 
ATOM     10  C   UNL d   1     -38.116  13.113  23.380  0.00  0.00     0.021 A 
ATOM     11  C   UNL d   1     -38.548  13.761  23.636  0.00  0.00     0.003 A 
ATOM     12  C   UNL d   1     -38.820  14.313  23.093  0.00  0.00     0.022 A 
ENDBRANCH   5   7
ENDBRANCH   4   5
ENDBRANCH   3   4
ENDBRANCH   1   3
BRANCH   1  13
ATOM     13  C   UNL d   1     -40.540  14.990  19.314  0.00  0.00     0.065 A 
ATOM     14  C   UNL d   1     -40.302  14.422  18.766  0.00  0.00     0.005 A 
ATOM     15  C   UNL d   1     -40.333  14.604  17.962  0.00  0.00     0.000 A 
ATOM     16  C   UNL d   1     -40.099  14.045  17.390  0.00  0.00     0.000 C 
ATOM     17  C   UNL d   1     -40.595  15.336  17.713  0.00  0.00     0.000 A 
ATOM     18  C   UNL d   1     -40.829  15.895  18.265  0.00  0.00     0.000 A 
ATOM     19  C   UNL d   1     -40.633  15.540  16.902  0.00  0.00     0.000 C 
ATOM     20  C   UNL d   1     -40.800  15.719  19.066  0.00  0.00     0.005 A 
ENDBRANCH   1  13
TORSDOF 5
ENDMDL
