MODEL 1
REMARK VINA RESULT:      -8.7      0.000      0.000
REMARK  6 active torsions:
REMARK  status: ('A' for Active; 'I' for Inactive)
REMARK       I    between atoms: C_3  and  N_1 
REMARK    1  A    between atoms: C_8  and  C_3 
REMARK    2  A    between atoms: S_4  and  N_9 
REMARK    3  A    between atoms: C_24  and  S_4 
REMARK    4  A    between atoms: C_10  and  C_5 
REMARK    5  A    between atoms: C_11  and  C_6 
REMARK    6  A    between atoms: N_9  and  C_23 
ROOT
ATOM      1  N   UNL d   1      53.319  32.353  53.880  0.00  0.00    -0.193 N 
ATOM      2  N   UNL d   1      52.932  33.076  53.690  0.00  0.00    -0.163 NA
ATOM      3  C   UNL d   1      54.045  32.284  54.264  0.00  0.00     0.303 C 
ATOM      4  C   UNL d   1      52.867  31.740  53.626  0.00  0.00     0.088 A 
ATOM      5  C   UNL d   1      52.229  32.880  53.312  0.00  0.00     0.103 A 
ATOM      6  C   UNL d   1      52.179  32.051  53.267  0.00  0.00     0.040 A 
ATOM      7  O   UNL d   1      54.360  31.543  54.416  0.00  0.00    -0.263 OA
ENDROOT
BRANCH   5   8
ATOM      8  C   UNL d   1      51.657  33.388  53.019  0.00  0.00     0.019 A 
ATOM      9  C   UNL d   1      50.895  33.370  53.342  0.00  0.00     0.003 A 
ATOM     10  C   UNL d   1      50.322  33.871  53.055  0.00  0.00     0.020 A 
ATOM     11  C   UNL d   1      50.497  34.400  52.443  0.00  0.00     0.094 A 
ATOM     12  C   UNL d   1      51.257  34.418  52.123  0.00  0.00     0.020 A 
ATOM     13  C   UNL d   1      51.838  33.912  52.410  0.00  0.00     0.003 A 
BRANCH  11  14
ATOM     14  N   UNL d   1      49.920  34.917  52.143  0.00  0.00    -0.158 NA
BRANCH  14  15
ATOM     15  S   UNL d   1      49.343  34.634  51.644  0.00  0.00     0.286 S 
ATOM     16  O   UNL d   1      49.924  34.276  51.170  0.00  0.00    -0.198 OA
ATOM     17  O   UNL d   1      48.740  34.347  51.134  0.00  0.00    -0.198 OA
BRANCH  15  18
ATOM     18  C   UNL d   1      48.759  34.993  52.117  0.00  0.00     0.117 C 
ATOM     19  C   UNL d   1      48.078  35.296  51.778  0.00  0.00     0.014 C 
ENDBRANCH  15  18
ENDBRANCH  14  15
ENDBRANCH  11  14
ENDBRANCH   5   8
BRANCH   4  20
ATOM     20  C   UNL d   1      53.018  30.948  53.690  0.00  0.00     0.018 A 
ATOM     21  C   UNL d   1      53.341  30.524  53.059  0.00  0.00     0.002 A 
ATOM     22  C   UNL d   1      53.496  29.712  53.124  0.00  0.00     0.000 A 
ATOM     23  C   UNL d   1      53.321  29.321  53.839  0.00  0.00     0.000 A 
ATOM     24  C   UNL d   1      52.996  29.745  54.474  0.00  0.00     0.000 A 
ATOM     25  C   UNL d   1      53.470  28.516  53.917  0.00  0.00     0.000 C 
ATOM     26  C   UNL d   1      52.845  30.552  54.402  0.00  0.00     0.002 A 
ENDBRANCH   4  20
BRANCH   3  27
ATOM     27  C   UNL d   1      54.450  32.965  54.494  0.00  0.00     0.158 A 
ATOM     28  O   UNL d   1      54.981  33.386  54.023  0.00  0.00    -0.300 OA
ATOM     29  C   UNL d   1      55.256  34.022  54.465  0.00  0.00     0.123 A 
ATOM     30  C   UNL d   1      54.894  33.994  55.209  0.00  0.00     0.029 A 
ATOM     31  C   UNL d   1      54.398  33.339  55.221  0.00  0.00     0.032 A 
ENDBRANCH   3  27
TORSDOF 6
ENDMDL
MODEL 2
REMARK VINA RESULT:      -8.0      1.146      1.586
REMARK  6 active torsions:
REMARK  status: ('A' for Active; 'I' for Inactive)
REMARK       I    between atoms: C_3  and  N_1 
REMARK    1  A    between atoms: C_8  and  C_3 
REMARK    2  A    between atoms: S_4  and  N_9 
REMARK    3  A    between atoms: C_24  and  S_4 
REMARK    4  A    between atoms: C_10  and  C_5 
REMARK    5  A    between atoms: C_11  and  C_6 
REMARK    6  A    between atoms: N_9  and  C_23 
ROOT
ATOM      1  N   UNL d   1      52.277  33.335  53.486  0.00  0.00    -0.193 N 
ATOM      2  N   UNL d   1      51.768  33.984  53.314  0.00  0.00    -0.163 NA
ATOM      3  C   UNL d   1      52.948  33.365  53.962  0.00  0.00     0.303 C 
ATOM      4  C   UNL d   1      52.002  32.681  53.110  0.00  0.00     0.088 A 
ATOM      5  C   UNL d   1      51.175  33.700  52.821  0.00  0.00     0.103 A 
ATOM      6  C   UNL d   1      51.311  32.890  52.688  0.00  0.00     0.040 A 
ATOM      7  O   UNL d   1      53.396  32.690  54.084  0.00  0.00    -0.263 OA
ENDROOT
BRANCH   5   8
ATOM      8  C   UNL d   1      50.547  34.116  52.499  0.00  0.00     0.019 A 
ATOM      9  C   UNL d   1      50.478  34.175  51.676  0.00  0.00     0.003 A 
ATOM     10  C   UNL d   1      49.856  34.586  51.350  0.00  0.00     0.020 A 
ATOM     11  C   UNL d   1      49.292  34.945  51.837  0.00  0.00     0.094 A 
ATOM     12  C   UNL d   1      49.361  34.886  52.657  0.00  0.00     0.020 A 
ATOM     13  C   UNL d   1      49.989  34.470  52.989  0.00  0.00     0.003 A 
BRANCH  11  14
ATOM     14  N   UNL d   1      48.653  35.367  51.515  0.00  0.00    -0.158 NA
BRANCH  14  15
ATOM     15  S   UNL d   1      47.963  34.979  51.329  0.00  0.00     0.286 S 
ATOM     16  O   UNL d   1      48.382  34.470  50.822  0.00  0.00    -0.198 OA
ATOM     17  O   UNL d   1      47.245  34.584  51.143  0.00  0.00    -0.198 OA
BRANCH  15  18
ATOM     18  C   UNL d   1      47.541  35.487  51.835  0.00  0.00     0.117 C 
ATOM     19  C   UNL d   1      46.778  35.721  51.649  0.00  0.00     0.014 C 
ENDBRANCH  15  18
ENDBRANCH  14  15
ENDBRANCH  11  14
ENDBRANCH   5   8
BRANCH   4  20
ATOM     20  C   UNL d   1      52.312  31.934  53.117  0.00  0.00     0.018 A 
ATOM     21  C   UNL d   1      52.989  31.750  52.682  0.00  0.00     0.002 A 
ATOM     22  C   UNL d   1      53.307  30.984  52.689  0.00  0.00     0.000 A 
ATOM     23  C   UNL d   1      52.934  30.394  53.142  0.00  0.00     0.000 A 
ATOM     24  C   UNL d   1      52.253  30.576  53.580  0.00  0.00     0.000 A 
ATOM     25  C   UNL d   1      53.238  29.629  53.158  0.00  0.00     0.000 C 
ATOM     26  C   UNL d   1      51.943  31.340  53.569  0.00  0.00     0.002 A 
ENDBRANCH   4  20
BRANCH   3  27
ATOM     27  C   UNL d   1      53.166  34.079  54.314  0.00  0.00     0.158 A 
ATOM     28  O   UNL d   1      53.455  34.741  53.913  0.00  0.00    -0.300 OA
ATOM     29  C   UNL d   1      53.601  35.326  54.470  0.00  0.00     0.123 A 
ATOM     30  C   UNL d   1      53.402  35.027  55.216  0.00  0.00     0.029 A 
ATOM     31  C   UNL d   1      53.134  34.257  55.113  0.00  0.00     0.032 A 
ENDBRANCH   3  27
TORSDOF 6
ENDMDL
MODEL 3
REMARK VINA RESULT:      -7.7      2.041      4.994
REMARK  6 active torsions:
REMARK  status: ('A' for Active; 'I' for Inactive)
REMARK       I    between atoms: C_3  and  N_1 
REMARK    1  A    between atoms: C_8  and  C_3 
REMARK    2  A    between atoms: S_4  and  N_9 
REMARK    3  A    between atoms: C_24  and  S_4 
REMARK    4  A    between atoms: C_10  and  C_5 
REMARK    5  A    between atoms: C_11  and  C_6 
REMARK    6  A    between atoms: N_9  and  C_23 
ROOT
ATOM      1  N   UNL d   1      51.985  34.016  53.320  0.00  0.00    -0.193 N 
ATOM      2  N   UNL d   1      52.542  33.438  53.575  0.00  0.00    -0.163 NA
ATOM      3  C   UNL d   1      52.021  34.823  53.484  0.00  0.00     0.303 C 
ATOM      4  C   UNL d   1      51.411  33.654  52.891  0.00  0.00     0.088 A 
ATOM      5  C   UNL d   1      52.286  32.713  53.285  0.00  0.00     0.103 A 
ATOM      6  C   UNL d   1      51.583  32.836  52.858  0.00  0.00     0.040 A 
ATOM      7  O   UNL d   1      51.440  35.325  53.200  0.00  0.00    -0.263 OA
ENDROOT
BRANCH   5   8
ATOM      8  C   UNL d   1      52.638  31.980  53.383  0.00  0.00     0.019 A 
ATOM      9  C   UNL d   1      52.405  31.351  52.897  0.00  0.00     0.003 A 
ATOM     10  C   UNL d   1      52.750  30.620  52.988  0.00  0.00     0.020 A 
ATOM     11  C   UNL d   1      53.333  30.502  53.563  0.00  0.00     0.094 A 
ATOM     12  C   UNL d   1      53.565  31.129  54.046  0.00  0.00     0.020 A 
ATOM     13  C   UNL d   1      53.217  31.869  53.956  0.00  0.00     0.003 A 
BRANCH  11  14
ATOM     14  N   UNL d   1      53.693  29.760  53.665  0.00  0.00    -0.158 NA
BRANCH  14  15
ATOM     15  S   UNL d   1      53.252  29.128  53.927  0.00  0.00     0.286 S 
ATOM     16  O   UNL d   1      52.830  29.121  53.211  0.00  0.00    -0.198 OA
ATOM     17  O   UNL d   1      52.802  28.476  54.207  0.00  0.00    -0.198 OA
BRANCH  15  18
ATOM     18  C   UNL d   1      53.673  29.133  54.645  0.00  0.00     0.117 C 
ATOM     19  C   UNL d   1      53.686  28.469  55.125  0.00  0.00     0.014 C 
ENDBRANCH  15  18
ENDBRANCH  14  15
ENDBRANCH  11  14
ENDBRANCH   5   8
BRANCH   4  20
ATOM     20  C   UNL d   1      50.766  33.989  52.537  0.00  0.00     0.018 A 
ATOM     21  C   UNL d   1      50.091  34.176  52.972  0.00  0.00     0.002 A 
ATOM     22  C   UNL d   1      49.428  34.520  52.610  0.00  0.00     0.000 A 
ATOM     23  C   UNL d   1      49.450  34.676  51.792  0.00  0.00     0.000 A 
ATOM     24  C   UNL d   1      50.127  34.489  51.351  0.00  0.00     0.000 A 
ATOM     25  C   UNL d   1      48.800  35.017  51.419  0.00  0.00     0.000 C 
ATOM     26  C   UNL d   1      50.782  34.147  51.719  0.00  0.00     0.002 A 
ENDBRANCH   4  20
BRANCH   3  27
ATOM     27  C   UNL d   1      52.646  35.118  53.935  0.00  0.00     0.158 A 
ATOM     28  O   UNL d   1      52.668  35.147  54.760  0.00  0.00    -0.300 OA
ATOM     29  C   UNL d   1      53.386  35.480  54.978  0.00  0.00     0.123 A 
ATOM     30  C   UNL d   1      53.808  35.658  54.289  0.00  0.00     0.029 A 
ATOM     31  C   UNL d   1      53.346  35.432  53.648  0.00  0.00     0.032 A 
ENDBRANCH   3  27
TORSDOF 6
ENDMDL
