MODEL 1
REMARK VINA RESULT:      -8.8      0.000      0.000
REMARK  5 active torsions:
REMARK  status: ('A' for Active; 'I' for Inactive)
REMARK    1  A    between atoms: N_7  and  C_1 
REMARK    2  A    between atoms: S_6  and  C_2 
REMARK    3  A    between atoms: C_3  and  S_6 
REMARK    4  A    between atoms: C_13  and  N_5 
REMARK    5  A    between atoms: C_18  and  C_13 
ROOT
ATOM      1  C   UNL d   1      53.972  32.831  53.659  0.00  0.00     0.232 A 
ATOM      2  C   UNL d   1      53.221  32.556  53.484  0.00  0.00     0.139 A 
ATOM      3  N   UNL d   1      53.904  33.561  54.044  0.00  0.00    -0.204 NA
ATOM      4  N   UNL d   1      52.677  33.111  53.757  0.00  0.00    -0.282 N 
ATOM      5  C   UNL d   1      53.093  33.734  54.104  0.00  0.00     0.150 A 
ATOM      6  C   UNL d   1      52.771  34.405  54.448  0.00  0.00     0.041 C 
ENDROOT
BRANCH   2   7
ATOM      7  S   UNL d   1      53.038  31.850  53.102  0.00  0.00    -0.029 SA
BRANCH   7   8
ATOM      8  C   UNL d   1      53.115  31.131  53.501  0.00  0.00     0.181 A 
ATOM      9  N   UNL d   1      53.178  31.035  54.322  0.00  0.00    -0.221 NA
ATOM     10  C   UNL d   1      53.244  30.235  54.480  0.00  0.00     0.100 A 
ATOM     11  C   UNL d   1      53.322  29.804  55.181  0.00  0.00     0.021 A 
ATOM     12  C   UNL d   1      53.224  29.824  53.763  0.00  0.00     0.084 A 
ATOM     13  C   UNL d   1      53.377  28.994  55.169  0.00  0.00     0.002 A 
ATOM     14  C   UNL d   1      53.357  28.592  54.448  0.00  0.00     0.002 A 
ATOM     15  C   UNL d   1      53.281  29.000  53.741  0.00  0.00     0.019 A 
ATOM     16  N   UNL d   1      53.144  30.384  53.157  0.00  0.00    -0.282 N 
ATOM     17  C   UNL d   1      53.102  30.218  52.350  0.00  0.00     0.101 C 
ENDBRANCH   7   8
ENDBRANCH   2   7
BRANCH   1  18
ATOM     18  N   UNL d   1      54.775  33.002  53.782  0.00  0.00    -0.093 N 
ATOM     19  O   UNL d   1      55.293  33.028  53.139  0.00  0.00    -0.530 OA
ATOM     20  O   UNL d   1      55.059  33.148  54.541  0.00  0.00    -0.530 OA
ENDBRANCH   1  18
BRANCH   4  21
ATOM     21  C   UNL d   1      51.852  33.054  53.695  0.00  0.00     0.082 C 
BRANCH  21  22
ATOM     22  C   UNL d   1      51.455  33.534  53.156  0.00  0.00     0.018 A 
ATOM     23  C   UNL d   1      51.767  33.671  52.400  0.00  0.00     0.002 A 
ATOM     24  C   UNL d   1      51.370  34.148  51.867  0.00  0.00     0.000 A 
ATOM     25  C   UNL d   1      50.650  34.496  52.088  0.00  0.00     0.000 A 
ATOM     26  C   UNL d   1      50.338  34.363  52.834  0.00  0.00     0.000 A 
ATOM     27  C   UNL d   1      50.740  33.882  53.371  0.00  0.00     0.002 A 
ENDBRANCH  21  22
ENDBRANCH   4  21
TORSDOF 5
ENDMDL
MODEL 2
REMARK VINA RESULT:      -7.2      1.967      4.367
REMARK  5 active torsions:
REMARK  status: ('A' for Active; 'I' for Inactive)
REMARK    1  A    between atoms: N_7  and  C_1 
REMARK    2  A    between atoms: S_6  and  C_2 
REMARK    3  A    between atoms: C_3  and  S_6 
REMARK    4  A    between atoms: C_13  and  N_5 
REMARK    5  A    between atoms: C_18  and  C_13 
ROOT
ATOM      1  C   UNL d   1      52.701  31.951  53.143  0.00  0.00     0.232 A 
ATOM      2  C   UNL d   1      52.753  32.709  53.449  0.00  0.00     0.139 A 
ATOM      3  N   UNL d   1      53.464  31.686  52.959  0.00  0.00    -0.204 NA
ATOM      4  N   UNL d   1      53.548  32.924  53.458  0.00  0.00    -0.282 N 
ATOM      5  C   UNL d   1      53.991  32.297  53.157  0.00  0.00     0.150 A 
ATOM      6  C   UNL d   1      54.806  32.273  53.067  0.00  0.00     0.041 C 
ENDROOT
BRANCH   2   7
ATOM      7  S   UNL d   1      52.123  33.175  53.702  0.00  0.00    -0.029 SA
BRANCH   7   8
ATOM      8  C   UNL d   1      51.605  33.505  53.152  0.00  0.00     0.181 A 
ATOM      9  N   UNL d   1      51.787  33.701  52.367  0.00  0.00    -0.221 NA
ATOM     10  C   UNL d   1      51.116  34.012  52.019  0.00  0.00     0.100 A 
ATOM     11  C   UNL d   1      50.957  34.302  51.261  0.00  0.00     0.021 A 
ATOM     12  C   UNL d   1      50.508  34.014  52.579  0.00  0.00     0.084 A 
ATOM     13  C   UNL d   1      50.220  34.582  51.069  0.00  0.00     0.002 A 
ATOM     14  C   UNL d   1      49.618  34.581  51.635  0.00  0.00     0.002 A 
ATOM     15  C   UNL d   1      49.755  34.298  52.392  0.00  0.00     0.019 A 
ATOM     16  N   UNL d   1      50.816  33.698  53.281  0.00  0.00    -0.282 N 
ATOM     17  C   UNL d   1      50.400  33.597  53.987  0.00  0.00     0.101 C 
ENDBRANCH   7   8
ENDBRANCH   2   7
BRANCH   1  18
ATOM     18  N   UNL d   1      52.522  31.195  52.851  0.00  0.00    -0.093 N 
ATOM     19  O   UNL d   1      52.180  30.631  53.349  0.00  0.00    -0.530 OA
ATOM     20  O   UNL d   1      52.684  31.001  52.067  0.00  0.00    -0.530 OA
ENDBRANCH   1  18
BRANCH   4  21
ATOM     21  C   UNL d   1      53.851  33.648  53.724  0.00  0.00     0.082 C 
BRANCH  21  22
ATOM     22  C   UNL d   1      54.293  33.669  54.420  0.00  0.00     0.018 A 
ATOM     23  C   UNL d   1      53.954  33.443  55.143  0.00  0.00     0.002 A 
ATOM     24  C   UNL d   1      54.395  33.465  55.832  0.00  0.00     0.000 A 
ATOM     25  C   UNL d   1      55.185  33.716  55.803  0.00  0.00     0.000 A 
ATOM     26  C   UNL d   1      55.523  33.940  55.092  0.00  0.00     0.000 A 
ATOM     27  C   UNL d   1      55.077  33.918  54.397  0.00  0.00     0.002 A 
ENDBRANCH  21  22
ENDBRANCH   4  21
TORSDOF 5
ENDMDL
MODEL 3
REMARK VINA RESULT:      -7.0      1.195      4.210
REMARK  5 active torsions:
REMARK  status: ('A' for Active; 'I' for Inactive)
REMARK    1  A    between atoms: N_7  and  C_1 
REMARK    2  A    between atoms: S_6  and  C_2 
REMARK    3  A    between atoms: C_3  and  S_6 
REMARK    4  A    between atoms: C_13  and  N_5 
REMARK    5  A    between atoms: C_18  and  C_13 
ROOT
ATOM      1  C   UNL d   1      53.115  33.770  54.090  0.00  0.00     0.232 A 
ATOM      2  C   UNL d   1      52.756  33.145  53.703  0.00  0.00     0.139 A 
ATOM      3  N   UNL d   1      53.934  33.717  53.977  0.00  0.00    -0.204 NA
ATOM      4  N   UNL d   1      53.346  32.696  53.344  0.00  0.00    -0.282 N 
ATOM      5  C   UNL d   1      54.075  33.044  53.510  0.00  0.00     0.150 A 
ATOM      6  C   UNL d   1      54.811  32.779  53.262  0.00  0.00     0.041 C 
ENDROOT
BRANCH   2   7
ATOM      7  S   UNL d   1      51.948  32.990  53.675  0.00  0.00    -0.029 SA
BRANCH   7   8
ATOM      8  C   UNL d   1      51.465  33.402  53.148  0.00  0.00     0.181 A 
ATOM      9  N   UNL d   1      51.667  33.624  52.375  0.00  0.00    -0.221 NA
ATOM     10  C   UNL d   1      51.030  34.021  52.049  0.00  0.00     0.100 A 
ATOM     11  C   UNL d   1      50.902  34.368  51.310  0.00  0.00     0.021 A 
ATOM     12  C   UNL d   1      50.426  34.052  52.611  0.00  0.00     0.084 A 
ATOM     13  C   UNL d   1      50.197  34.733  51.137  0.00  0.00     0.002 A 
ATOM     14  C   UNL d   1      49.598  34.759  51.705  0.00  0.00     0.002 A 
ATOM     15  C   UNL d   1      49.705  34.420  52.444  0.00  0.00     0.019 A 
ATOM     16  N   UNL d   1      50.700  33.666  53.292  0.00  0.00    -0.282 N 
ATOM     17  C   UNL d   1      50.275  33.566  53.993  0.00  0.00     0.101 C 
ENDBRANCH   7   8
ENDBRANCH   2   7
BRANCH   1  18
ATOM     18  N   UNL d   1      53.362  34.438  54.517  0.00  0.00    -0.093 N 
ATOM     19  O   UNL d   1      53.447  34.395  55.337  0.00  0.00    -0.530 OA
ATOM     20  O   UNL d   1      53.523  35.147  54.128  0.00  0.00    -0.530 OA
ENDBRANCH   1  18
BRANCH   4  21
ATOM     21  C   UNL d   1      53.227  32.010  52.894  0.00  0.00     0.082 C 
BRANCH  21  22
ATOM     22  C   UNL d   1      53.276  31.274  53.259  0.00  0.00     0.018 A 
ATOM     23  C   UNL d   1      53.760  31.162  53.924  0.00  0.00     0.002 A 
ATOM     24  C   UNL d   1      53.807  30.430  54.285  0.00  0.00     0.000 A 
ATOM     25  C   UNL d   1      53.366  29.796  53.981  0.00  0.00     0.000 A 
ATOM     26  C   UNL d   1      52.887  29.901  53.325  0.00  0.00     0.000 A 
ATOM     27  C   UNL d   1      52.841  30.641  52.961  0.00  0.00     0.002 A 
ENDBRANCH  21  22
ENDBRANCH   4  21
TORSDOF 5
ENDMDL
MODEL 4
REMARK VINA RESULT:      -6.2      1.859      2.956
REMARK  5 active torsions:
REMARK  status: ('A' for Active; 'I' for Inactive)
REMARK    1  A    between atoms: N_7  and  C_1 
REMARK    2  A    between atoms: S_6  and  C_2 
REMARK    3  A    between atoms: C_3  and  S_6 
REMARK    4  A    between atoms: C_13  and  N_5 
REMARK    5  A    between atoms: C_18  and  C_13 
ROOT
ATOM      1  C   UNL d   1      52.678  31.745  53.004  0.00  0.00     0.232 A 
ATOM      2  C   UNL d   1      52.644  32.561  53.069  0.00  0.00     0.139 A 
ATOM      3  N   UNL d   1      51.915  31.439  53.105  0.00  0.00    -0.204 NA
ATOM      4  N   UNL d   1      51.860  32.771  53.212  0.00  0.00    -0.282 N 
ATOM      5  C   UNL d   1      51.406  32.082  53.235  0.00  0.00     0.150 A 
ATOM      6  C   UNL d   1      50.597  32.035  53.363  0.00  0.00     0.041 C 
ENDROOT
BRANCH   2   7
ATOM      7  S   UNL d   1      53.279  33.081  53.004  0.00  0.00    -0.029 SA
BRANCH   7   8
ATOM      8  C   UNL d   1      53.756  33.235  53.658  0.00  0.00     0.181 A 
ATOM      9  N   UNL d   1      53.501  33.291  54.445  0.00  0.00    -0.221 NA
ATOM     10  C   UNL d   1      54.152  33.450  54.914  0.00  0.00     0.100 A 
ATOM     11  C   UNL d   1      54.245  33.564  55.728  0.00  0.00     0.021 A 
ATOM     12  C   UNL d   1      54.818  33.495  54.429  0.00  0.00     0.084 A 
ATOM     13  C   UNL d   1      54.976  33.717  56.045  0.00  0.00     0.002 A 
ATOM     14  C   UNL d   1      55.638  33.760  55.553  0.00  0.00     0.002 A 
ATOM     15  C   UNL d   1      55.567  33.650  54.743  0.00  0.00     0.019 A 
ATOM     16  N   UNL d   1      54.569  33.361  53.650  0.00  0.00    -0.282 N 
ATOM     17  C   UNL d   1      55.055  33.355  52.982  0.00  0.00     0.101 C 
ENDBRANCH   7   8
ENDBRANCH   2   7
BRANCH   1  18
ATOM     18  N   UNL d   1      52.838  30.935  52.919  0.00  0.00    -0.093 N 
ATOM     19  O   UNL d   1      52.951  30.614  52.166  0.00  0.00    -0.530 OA
ATOM     20  O   UNL d   1      52.885  30.447  53.581  0.00  0.00    -0.530 OA
ENDBRANCH   1  18
BRANCH   4  21
ATOM     21  C   UNL d   1      51.576  33.543  53.314  0.00  0.00     0.082 C 
BRANCH  21  22
ATOM     22  C   UNL d   1      51.079  33.869  52.744  0.00  0.00     0.018 A 
ATOM     23  C   UNL d   1      51.351  34.003  51.972  0.00  0.00     0.002 A 
ATOM     24  C   UNL d   1      50.855  34.326  51.408  0.00  0.00     0.000 A 
ATOM     25  C   UNL d   1      50.075  34.521  51.613  0.00  0.00     0.000 A 
ATOM     26  C   UNL d   1      49.802  34.390  52.374  0.00  0.00     0.000 A 
ATOM     27  C   UNL d   1      50.304  34.063  52.943  0.00  0.00     0.002 A 
ENDBRANCH  21  22
ENDBRANCH   4  21
TORSDOF 5
ENDMDL
