MODEL 1
REMARK VINA RESULT:      -5.5      0.000      0.000
REMARK  5 active torsions:
REMARK  status: ('A' for Active; 'I' for Inactive)
REMARK    1  A    between atoms: C_2  and  C_4 
REMARK    2  A    between atoms: C_4  and  C_10 
REMARK    3  A    between atoms: S_8  and  C_6 
REMARK    4  A    between atoms: C_14  and  C_7 
REMARK    5  A    between atoms: C_10  and  S_8 
ROOT
ATOM      1  N   UNL d   1      57.010  -0.734  31.219  0.00  0.00    -0.148 NA
ATOM      2  N   UNL d   1      57.532  -0.713  30.581  0.00  0.00    -0.141 NA
ATOM      3  C   UNL d   1      57.971  -0.034  30.424  0.00  0.00     0.133 A 
ATOM      4  C   UNL d   1      56.929  -0.068  31.703  0.00  0.00     0.103 A 
ATOM      5  C   UNL d   1      57.362   0.610  31.553  0.00  0.00     0.023 A 
ATOM      6  C   UNL d   1      57.883   0.634  30.919  0.00  0.00     0.029 A 
ENDROOT
BRANCH   3   7
ATOM      7  S   UNL d   1      58.486  -0.017  29.792  0.00  0.00    -0.062 SA
BRANCH   7   8
ATOM      8  C   UNL d   1      58.977  -0.662  29.641  0.00  0.00     0.079 C 
BRANCH   8   9
ATOM      9  C   UNL d   1      59.503  -0.644  29.015  0.00  0.00     0.208 C 
ATOM     10  O   UNL d   1      59.496  -0.003  28.495  0.00  0.00    -0.285 OA
BRANCH   9  11
ATOM     11  C   UNL d   1      60.038  -1.253  28.896  0.00  0.00     0.069 A 
ATOM     12  S   UNL d   1      59.899  -1.932  28.455  0.00  0.00    -0.083 SA
ATOM     13  C   UNL d   1      60.578  -2.396  28.480  0.00  0.00     0.035 A 
ATOM     14  C   UNL d   1      61.133  -1.994  28.941  0.00  0.00     0.008 A 
ATOM     15  C   UNL d   1      60.799  -1.293  29.196  0.00  0.00     0.010 A 
ENDBRANCH   9  11
ENDBRANCH   8   9
ENDBRANCH   7   8
ENDBRANCH   3   7
BRANCH   4  16
ATOM     16  C   UNL d   1      56.407  -0.090  32.341  0.00  0.00     0.019 A 
ATOM     17  C   UNL d   1      56.198  -0.818  32.684  0.00  0.00     0.002 A 
ATOM     18  C   UNL d   1      55.673  -0.841  33.326  0.00  0.00     0.000 A 
ATOM     19  C   UNL d   1      55.354  -0.136  33.628  0.00  0.00     0.000 A 
ATOM     20  C   UNL d   1      55.559   0.579  33.292  0.00  0.00     0.000 A 
ATOM     21  C   UNL d   1      56.082   0.614  32.650  0.00  0.00     0.002 A 
ENDBRANCH   4  16
TORSDOF 5
ENDMDL
MODEL 2
REMARK VINA RESULT:      -3.5      9.135     10.102
REMARK  5 active torsions:
REMARK  status: ('A' for Active; 'I' for Inactive)
REMARK    1  A    between atoms: C_2  and  C_4 
REMARK    2  A    between atoms: C_4  and  C_10 
REMARK    3  A    between atoms: S_8  and  C_6 
REMARK    4  A    between atoms: C_14  and  C_7 
REMARK    5  A    between atoms: C_10  and  S_8 
ROOT
ATOM      1  N   UNL d   1      59.066  -9.797  31.796  0.00  0.00    -0.148 NA
ATOM      2  N   UNL d   1      59.285  -9.797  32.592  0.00  0.00    -0.141 NA
ATOM      3  C   UNL d   1      58.710  -9.807  33.182  0.00  0.00     0.133 A 
ATOM      4  C   UNL d   1      58.264  -9.807  31.593  0.00  0.00     0.103 A 
ATOM      5  C   UNL d   1      57.688  -9.817  32.174  0.00  0.00     0.023 A 
ATOM      6  C   UNL d   1      57.902  -9.817  32.967  0.00  0.00     0.029 A 
ENDROOT
BRANCH   3   7
ATOM      7  S   UNL d   1      58.930  -9.807  33.968  0.00  0.00    -0.062 SA
BRANCH   7   8
ATOM      8  C   UNL d   1      59.334  -9.162  34.283  0.00  0.00     0.079 C 
BRANCH   8   9
ATOM      9  C   UNL d   1      59.469  -9.113  35.089  0.00  0.00     0.208 C 
ATOM     10  O   UNL d   1      59.378  -9.785  35.559  0.00  0.00    -0.285 OA
BRANCH   9  11
ATOM     11  C   UNL d   1      59.693  -8.405  35.436  0.00  0.00     0.069 A 
ATOM     12  S   UNL d   1      60.466  -8.144  35.534  0.00  0.00    -0.083 SA
ATOM     13  C   UNL d   1      60.442  -7.410  35.905  0.00  0.00     0.035 A 
ATOM     14  C   UNL d   1      59.647  -7.224  36.032  0.00  0.00     0.008 A 
ATOM     15  C   UNL d   1      59.189  -7.837  35.743  0.00  0.00     0.010 A 
ENDBRANCH   9  11
ENDBRANCH   8   9
ENDBRANCH   7   8
ENDBRANCH   3   7
BRANCH   4  16
ATOM     16  C   UNL d   1      58.047  -9.807  30.797  0.00  0.00     0.019 A 
ATOM     17  C   UNL d   1      57.243  -9.810  30.585  0.00  0.00     0.002 A 
ATOM     18  C   UNL d   1      57.023  -9.810  29.786  0.00  0.00     0.000 A 
ATOM     19  C   UNL d   1      57.606  -9.806  29.194  0.00  0.00     0.000 A 
ATOM     20  C   UNL d   1      58.395  -9.803  29.402  0.00  0.00     0.000 A 
ATOM     21  C   UNL d   1      58.626  -9.803  30.198  0.00  0.00     0.002 A 
ENDBRANCH   4  16
TORSDOF 5
ENDMDL
MODEL 3
REMARK VINA RESULT:      -3.2      2.022      5.308
REMARK  5 active torsions:
REMARK  status: ('A' for Active; 'I' for Inactive)
REMARK    1  A    between atoms: C_2  and  C_4 
REMARK    2  A    between atoms: C_4  and  C_10 
REMARK    3  A    between atoms: S_8  and  C_6 
REMARK    4  A    between atoms: C_14  and  C_7 
REMARK    5  A    between atoms: C_10  and  S_8 
ROOT
ATOM      1  N   UNL d   1      57.971  -1.191  30.572  0.00  0.00    -0.148 NA
ATOM      2  N   UNL d   1      57.334  -1.194  31.096  0.00  0.00    -0.141 NA
ATOM      3  C   UNL d   1      56.968  -0.487  31.310  0.00  0.00     0.133 A 
ATOM      4  C   UNL d   1      58.242  -0.473  30.262  0.00  0.00     0.103 A 
ATOM      5  C   UNL d   1      57.883   0.232  30.471  0.00  0.00     0.023 A 
ATOM      6  C   UNL d   1      57.248   0.233  30.992  0.00  0.00     0.029 A 
ENDROOT
BRANCH   3   7
ATOM      7  S   UNL d   1      56.338  -0.494  31.829  0.00  0.00    -0.062 SA
BRANCH   7   8
ATOM      8  C   UNL d   1      56.451  -0.294  32.620  0.00  0.00     0.079 C 
BRANCH   8   9
ATOM      9  C   UNL d   1      55.909  -0.525  33.187  0.00  0.00     0.208 C 
ATOM     10  O   UNL d   1      55.516  -1.246  33.105  0.00  0.00    -0.285 OA
BRANCH   9  11
ATOM     11  C   UNL d   1      55.749  -0.050  33.835  0.00  0.00     0.069 A 
ATOM     12  S   UNL d   1      56.304   0.226  34.375  0.00  0.00    -0.083 SA
ATOM     13  C   UNL d   1      55.911   0.682  34.936  0.00  0.00     0.035 A 
ATOM     14  C   UNL d   1      55.110   0.682  34.734  0.00  0.00     0.008 A 
ATOM     15  C   UNL d   1      55.013   0.232  34.058  0.00  0.00     0.010 A 
ENDBRANCH   9  11
ENDBRANCH   8   9
ENDBRANCH   7   8
ENDBRANCH   3   7
BRANCH   4  16
ATOM     16  C   UNL d   1      58.879  -0.471  29.738  0.00  0.00     0.019 A 
ATOM     17  C   UNL d   1      59.398   0.178  29.716  0.00  0.00     0.002 A 
ATOM     18  C   UNL d   1      60.039   0.181  29.190  0.00  0.00     0.000 A 
ATOM     19  C   UNL d   1      60.165  -0.465  28.683  0.00  0.00     0.000 A 
ATOM     20  C   UNL d   1      59.656  -1.103  28.705  0.00  0.00     0.000 A 
ATOM     21  C   UNL d   1      59.012  -1.117  29.227  0.00  0.00     0.002 A 
ENDBRANCH   4  16
TORSDOF 5
ENDMDL
