MODEL 1
REMARK VINA RESULT:     101.4      0.000      0.000
REMARK  5 active torsions:
REMARK  status: ('A' for Active; 'I' for Inactive)
REMARK    1  A    between atoms: S_5  and  C_2 
REMARK    2  A    between atoms: C_16  and  S_5 
REMARK    3  A    between atoms: N_13  and  C_10 
REMARK    4  A    between atoms: C_23  and  N_13 
REMARK    5  A    between atoms: C_18  and  C_23 
ROOT
ATOM      1  C   UNL d   1     -54.921-101.084 -40.816  0.00  0.00     0.198 A 
ATOM      2  C   UNL d   1     -54.879-101.335 -41.598  0.00  0.00     0.227 A 
ATOM      3  N   UNL d   1     -54.841-101.745 -40.332  0.00  0.00    -0.192 N 
ATOM      4  N   UNL d   1     -55.023-100.337 -40.481  0.00  0.00    -0.205 NA
ATOM      5  N   UNL d   1     -54.773-102.147 -41.602  0.00  0.00    -0.115 NA
ATOM      6  N   UNL d   1     -54.748-102.407 -40.820  0.00  0.00    -0.058 NA
ATOM      7  C   UNL d   1     -54.861-101.660 -39.514  0.00  0.00     0.096 A 
ATOM      8  C   UNL d   1     -54.963-100.912 -39.179  0.00  0.00     0.083 A 
ATOM      9  C   UNL d   1     -55.044-100.249 -39.657  0.00  0.00     0.172 A 
ATOM     10  S   UNL d   1     -54.962-100.994 -38.348  0.00  0.00    -0.082 SA
ATOM     11  C   UNL d   1     -54.796-102.217 -38.896  0.00  0.00     0.027 A 
ATOM     12  C   UNL d   1     -54.858-101.803 -38.176  0.00  0.00     0.037 A 
ENDROOT
BRANCH   2  13
ATOM     13  S   UNL d   1     -54.935-100.848 -42.270  0.00  0.00     0.231 S 
ATOM     14  O   UNL d   1     -55.160-101.493 -42.744  0.00  0.00    -0.215 OA
ATOM     15  O   UNL d   1     -54.711-100.209 -41.793  0.00  0.00    -0.215 OA
BRANCH  13  16
ATOM     16  C   UNL d   1     -54.980-100.332 -42.916  0.00  0.00     0.090 A 
ATOM     17  C   UNL d   1     -55.231 -99.557 -42.817  0.00  0.00     0.011 A 
ATOM     18  C   UNL d   1     -55.276 -99.044 -43.460  0.00  0.00     0.001 A 
ATOM     19  C   UNL d   1     -55.066 -99.310 -44.215  0.00  0.00     0.000 A 
ATOM     20  C   UNL d   1     -54.809-100.100 -44.319  0.00  0.00     0.001 A 
ATOM     21  C   UNL d   1     -54.768-100.610 -43.664  0.00  0.00     0.011 A 
ENDBRANCH  13  16
ENDBRANCH   2  13
BRANCH   9  22
ATOM     22  N   UNL d   1     -55.146 -99.495 -39.318  0.00  0.00    -0.223 NA
BRANCH  22  23
ATOM     23  C   UNL d   1     -54.713 -99.278 -38.652  0.00  0.00     0.125 C 
BRANCH  23  24
ATOM     24  C   UNL d   1     -55.096 -99.157 -37.931  0.00  0.00     0.119 A 
ATOM     25  O   UNL d   1     -55.889 -98.963 -37.828  0.00  0.00    -0.304 OA
ATOM     26  C   UNL d   1     -56.034 -98.894 -37.014  0.00  0.00     0.123 A 
ATOM     27  C   UNL d   1     -55.329 -99.046 -36.614  0.00  0.00     0.029 A 
ATOM     28  C   UNL d   1     -54.750 -99.209 -37.181  0.00  0.00     0.028 A 
ENDBRANCH  23  24
ENDBRANCH  22  23
ENDBRANCH   9  22
TORSDOF 5
ENDMDL
