MODEL 1
REMARK VINA RESULT:      15.4      0.000      0.000
REMARK  3 active torsions:
REMARK  status: ('A' for Active; 'I' for Inactive)
REMARK       I    between atoms: N_3  and  C_1 
REMARK       I    between atoms: N_5  and  C_1 
REMARK    1  A    between atoms: C_2  and  O_6 
REMARK       I    between atoms: N_4  and  C_2 
REMARK    2  A    between atoms: C_10  and  N_5 
REMARK    3  A    between atoms: O_6  and  C_11 
ROOT
ATOM      1  C   UNL d   1      45.766 -16.720  44.641  0.00  0.00     0.086 A 
ATOM      2  C   UNL d   1      45.420 -15.110  44.739  0.00  0.00     0.105 A 
ATOM      3  C   UNL d   1      44.968 -16.457  44.649  0.00  0.00     0.021 A 
ATOM      4  C   UNL d   1      46.386 -16.154  44.683  0.00  0.00     0.021 A 
ATOM      5  C   UNL d   1      44.797 -15.663  44.697  0.00  0.00     0.026 A 
ATOM      6  C   UNL d   1      46.215 -15.361  44.732  0.00  0.00     0.026 A 
ENDROOT
BRANCH   1   7
ATOM      7  N   UNL d   1      45.936 -17.513  44.592  0.00  0.00    -0.192 NA
ATOM      8  C   UNL d   1      46.114 -17.866  43.875  0.00  0.00     0.354 C 
ATOM      9  N   UNL d   1      46.287 -18.672  43.826  0.00  0.00    -0.252 N 
ATOM     10  O   UNL d   1      46.117 -17.388  43.184  0.00  0.00    -0.244 OA
ATOM     11  C   UNL d   1      46.466 -19.011  43.085  0.00  0.00     0.111 A 
ATOM     12  C   UNL d   1      46.286 -19.149  44.505  0.00  0.00     0.111 A 
ATOM     13  C   UNL d   1      46.641 -19.828  43.035  0.00  0.00     0.142 A 
ATOM     14  O   UNL d   1      46.636 -20.295  43.727  0.00  0.00    -0.300 OA
ATOM     15  C   UNL d   1      46.459 -19.954  44.456  0.00  0.00     0.142 A 
ENDBRANCH   1   7
BRANCH   2  16
ATOM     16  O   UNL d   1      45.247 -14.305  44.788  0.00  0.00    -0.259 OA
BRANCH  16  17
ATOM     17  C   UNL d   1      45.734 -13.755  44.417  0.00  0.00     0.377 C 
ATOM     18  N   UNL d   1      45.415 -13.217  43.878  0.00  0.00    -0.252 N 
ATOM     19  C   UNL d   1      45.903 -12.667  43.508  0.00  0.00     0.085 A 
ATOM     20  C   UNL d   1      44.610 -13.230  43.711  0.00  0.00     0.085 A 
ATOM     21  C   UNL d   1      45.588 -12.128  42.969  0.00  0.00     0.019 A 
ATOM     22  C   UNL d   1      44.782 -12.140  42.800  0.00  0.00     0.003 A 
ATOM     23  C   UNL d   1      44.290 -12.690  43.169  0.00  0.00     0.019 A 
ATOM     24  O   UNL d   1      46.538 -13.739  44.582  0.00  0.00    -0.237 OA
ENDBRANCH  16  17
ENDBRANCH   2  16
TORSDOF 3
ENDMDL
