MODEL 1
REMARK VINA RESULT:      49.7      0.000      0.000
REMARK  3 active torsions:
REMARK  status: ('A' for Active; 'I' for Inactive)
REMARK    1  A    between atoms: C_8  and  N_2 
REMARK    2  A    between atoms: C_12  and  C_8 
REMARK    3  A    between atoms: N_11  and  C_12 
ROOT
ATOM      1  C   UNL d   1     -57.861 -98.821 -45.088  0.00  0.00     0.166 A 
ATOM      2  N   UNL d   1     -58.677 -98.800 -45.220  0.00  0.00    -0.288 N 
ATOM      3  C   UNL d   1     -57.727 -98.863 -44.274  0.00  0.00     0.117 A 
ATOM      4  N   UNL d   1     -57.231 -98.807 -45.619  0.00  0.00    -0.225 NA
ATOM      5  N   UNL d   1     -56.957 -98.892 -43.991  0.00  0.00    -0.241 NA
ATOM      6  C   UNL d   1     -58.463 -98.868 -43.901  0.00  0.00     0.037 A 
ATOM      7  C   UNL d   1     -59.033 -98.829 -44.482  0.00  0.00     0.067 A 
ATOM      8  C   UNL d   1     -56.462 -98.835 -45.340  0.00  0.00     0.101 A 
ATOM      9  C   UNL d   1     -56.326 -98.877 -44.527  0.00  0.00     0.099 A 
ATOM     10  C   UNL d   1     -58.655 -98.904 -43.082  0.00  0.00     0.003 A 
ATOM     11  C   UNL d   1     -59.840 -98.825 -44.259  0.00  0.00     0.018 A 
ATOM     12  C   UNL d   1     -55.831 -98.821 -45.876  0.00  0.00     0.021 A 
ATOM     13  C   UNL d   1     -55.597 -98.901 -44.322  0.00  0.00     0.021 A 
ATOM     14  C   UNL d   1     -59.439 -98.900 -42.872  0.00  0.00     0.000 A 
ATOM     15  C   UNL d   1     -59.960 -98.860 -43.481  0.00  0.00     0.002 A 
ATOM     16  C   UNL d   1     -54.928 -98.891 -44.782  0.00  0.00     0.002 A 
ATOM     17  C   UNL d   1     -55.068 -98.849 -45.597  0.00  0.00     0.002 A 
ENDROOT
BRANCH   2  18
ATOM     18  C   UNL d   1     -59.352 -98.764 -45.693  0.00  0.00     0.101 C 
BRANCH  18  19
ATOM     19  C   UNL d   1     -59.503 -99.534 -45.900  0.00  0.00     0.100 C 
BRANCH  19  20
ATOM     20  N   UNL d   1     -59.652 -99.511 -46.711  0.00  0.00    -0.298 N 
ATOM     21  C   UNL d   1     -59.760-100.212 -47.131  0.00  0.00     0.107 A 
ATOM     22  C   UNL d   1     -59.910-100.187 -47.943  0.00  0.00     0.142 A 
ATOM     23  O   UNL d   1     -59.952 -99.459 -48.337  0.00  0.00    -0.300 OA
ATOM     24  C   UNL d   1     -59.844 -98.758 -47.916  0.00  0.00     0.142 A 
ATOM     25  C   UNL d   1     -59.693 -98.784 -47.101  0.00  0.00     0.107 A 
ENDBRANCH  19  20
ENDBRANCH  18  19
ENDBRANCH   2  18
TORSDOF 3
ENDMDL
