MODEL 1
REMARK VINA RESULT:      54.9      0.000      0.000
REMARK  7 active torsions:
REMARK  status: ('A' for Active; 'I' for Inactive)
REMARK    1  A    between atoms: C_10  and  N_2 
REMARK    2  A    between atoms: S_11  and  C_5 
REMARK    3  A    between atoms: C_12  and  C_10 
REMARK    4  A    between atoms: C_22  and  S_11 
REMARK    5  A    between atoms: C_14  and  C_22 
REMARK       I    between atoms: N_16  and  C_14 
REMARK    6  A    between atoms: C_23  and  N_16 
REMARK    7  A    between atoms: C_24  and  C_23 
ROOT
ATOM      1  C   UNL d   1      13.732  12.421  -2.326  0.00  0.00     0.104 A 
ATOM      2  N   UNL d   1      13.309  13.092  -3.508  0.00  0.00    -0.250 N 
ATOM      3  C   UNL d   1      14.229  13.063  -2.140  0.00  0.00     0.095 A 
ATOM      4  C   UNL d   1      13.274  12.440  -3.011  0.00  0.00     0.274 A 
ATOM      5  C   UNL d   1      13.806  13.734  -3.322  0.00  0.00     0.182 A 
ATOM      6  N   UNL d   1      14.263  13.717  -2.641  0.00  0.00    -0.222 NA
ATOM      7  S   UNL d   1      13.820  11.852  -1.719  0.00  0.00    -0.081 SA
ATOM      8  C   UNL d   1      14.616  12.880  -1.422  0.00  0.00     0.024 A 
ATOM      9  C   UNL d   1      14.366  12.143  -1.166  0.00  0.00     0.031 A 
ATOM     10  O   UNL d   1      12.773  11.794  -3.198  0.00  0.00    -0.266 OA
ATOM     11  C   UNL d   1      15.166  13.305  -0.976  0.00  0.00     0.002 A 
ATOM     12  C   UNL d   1      14.655  11.811  -0.465  0.00  0.00     0.006 A 
ATOM     13  C   UNL d   1      15.467  12.990  -0.272  0.00  0.00     0.000 A 
ATOM     14  C   UNL d   1      15.208  12.239  -0.018  0.00  0.00     0.001 A 
ENDROOT
BRANCH   5  15
ATOM     15  S   UNL d   1      13.842  14.397  -3.828  0.00  0.00    -0.044 SA
BRANCH  15  16
ATOM     16  C   UNL d   1      13.669  15.160  -3.526  0.00  0.00     0.101 C 
BRANCH  16  17
ATOM     17  C   UNL d   1      14.182  15.784  -3.676  0.00  0.00     0.286 C 
ATOM     18  N   UNL d   1      14.093  16.225  -4.369  0.00  0.00    -0.204 NA
ATOM     19  O   UNL d   1      14.779  15.968  -3.138  0.00  0.00    -0.265 OA
BRANCH  18  20
ATOM     20  C   UNL d   1      14.607  16.852  -4.520  0.00  0.00     0.127 C 
BRANCH  20  21
ATOM     21  C   UNL d   1      14.342  17.505  -4.945  0.00  0.00     0.119 A 
ATOM     22  O   UNL d   1      13.789  17.660  -5.538  0.00  0.00    -0.304 OA
ATOM     23  C   UNL d   1      13.813  18.463  -5.709  0.00  0.00     0.123 A 
ATOM     24  C   UNL d   1      14.382  18.809  -5.219  0.00  0.00     0.029 A 
ATOM     25  C   UNL d   1      14.702  18.215  -4.752  0.00  0.00     0.028 A 
ENDBRANCH  20  21
ENDBRANCH  18  20
ENDBRANCH  16  17
ENDBRANCH  15  16
ENDBRANCH   5  15
BRANCH   2  26
ATOM     26  C   UNL d   1      12.848  13.114  -4.199  0.00  0.00     0.110 C 
BRANCH  26  27
ATOM     27  C   UNL d   1      13.082  12.688  -4.872  0.00  0.00     0.118 A 
ATOM     28  O   UNL d   1      13.671  12.908  -5.384  0.00  0.00    -0.304 OA
ATOM     29  C   UNL d   1      13.723  12.348  -5.959  0.00  0.00     0.123 A 
ATOM     30  C   UNL d   1      13.172  11.782  -5.809  0.00  0.00     0.029 A 
ATOM     31  C   UNL d   1      12.780  11.995  -5.140  0.00  0.00     0.028 A 
ENDBRANCH  26  27
ENDBRANCH   2  26
TORSDOF 7
ENDMDL
