MODEL 1
REMARK VINA RESULT:      -4.6      0.000      0.000
REMARK  1 active torsions:
REMARK  status: ('A' for Active; 'I' for Inactive)
REMARK    1  A    between atoms: C_7  and  C_2 
ROOT
ATOM      1  N   UNL d   1     -41.754-123.817 -51.302  0.00  0.00    -0.147 NA
ATOM      2  C   UNL d   1     -41.737-123.115 -50.877  0.00  0.00     0.103 A 
ATOM      3  N   UNL d   1     -41.566-123.812 -52.097  0.00  0.00    -0.137 NA
ATOM      4  C   UNL d   1     -41.532-122.400 -51.239  0.00  0.00     0.022 A 
ATOM      5  C   UNL d   1     -41.360-123.103 -52.465  0.00  0.00     0.157 A 
ATOM      6  C   UNL d   1     -41.344-122.394 -52.034  0.00  0.00     0.031 A 
ATOM      7  S   UNL d   1     -41.164-123.097 -53.291  0.00  0.00    -0.056 SA
ATOM      8  C   UNL d   1     -41.515-121.692 -50.813  0.00  0.00     0.002 A 
ATOM      9  C   UNL d   1     -41.138-121.681 -52.402  0.00  0.00     0.002 A 
ATOM     10  C   UNL d   1     -41.311-120.989 -51.176  0.00  0.00     0.000 A 
ATOM     11  C   UNL d   1     -41.123-120.983 -51.971  0.00  0.00     0.000 A 
ENDROOT
BRANCH   2  12
ATOM     12  C   UNL d   1     -41.933-123.121 -50.051  0.00  0.00     0.019 A 
ATOM     13  C   UNL d   1     -41.342-123.273 -49.489  0.00  0.00     0.002 A 
ATOM     14  C   UNL d   1     -41.532-123.279 -48.689  0.00  0.00     0.000 A 
ATOM     15  C   UNL d   1     -42.313-123.133 -48.451  0.00  0.00     0.000 A 
ATOM     16  C   UNL d   1     -42.899-122.982 -49.011  0.00  0.00     0.000 A 
ATOM     17  C   UNL d   1     -42.506-123.139 -47.636  0.00  0.00     0.000 C 
ATOM     18  C   UNL d   1     -42.709-122.976 -49.811  0.00  0.00     0.002 A 
ENDBRANCH   2  12
TORSDOF 1
ENDMDL
MODEL 2
REMARK VINA RESULT:      -3.5      1.943      3.053
REMARK  1 active torsions:
REMARK  status: ('A' for Active; 'I' for Inactive)
REMARK    1  A    between atoms: C_7  and  C_2 
ROOT
ATOM      1  N   UNL d   1     -42.279-121.256 -53.508  0.00  0.00    -0.147 NA
ATOM      2  C   UNL d   1     -41.932-121.957 -53.256  0.00  0.00     0.103 A 
ATOM      3  N   UNL d   1     -42.396-121.129 -54.307  0.00  0.00    -0.137 NA
ATOM      4  C   UNL d   1     -41.699-122.538 -53.797  0.00  0.00     0.022 A 
ATOM      5  C   UNL d   1     -42.166-121.703 -54.852  0.00  0.00     0.157 A 
ATOM      6  C   UNL d   1     -41.816-122.411 -54.596  0.00  0.00     0.031 A 
ATOM      7  S   UNL d   1     -42.287-121.571 -55.682  0.00  0.00    -0.056 SA
ATOM      8  C   UNL d   1     -41.351-123.243 -53.546  0.00  0.00     0.002 A 
ATOM      9  C   UNL d   1     -41.585-122.989 -55.142  0.00  0.00     0.002 A 
ATOM     10  C   UNL d   1     -41.123-123.814 -54.085  0.00  0.00     0.000 A 
ATOM     11  C   UNL d   1     -41.239-123.687 -54.883  0.00  0.00     0.000 A 
ENDROOT
BRANCH   2  12
ATOM     12  C   UNL d   1     -41.811-122.089 -52.426  0.00  0.00     0.019 A 
ATOM     13  C   UNL d   1     -42.268-122.657 -52.029  0.00  0.00     0.002 A 
ATOM     14  C   UNL d   1     -42.151-122.785 -51.226  0.00  0.00     0.000 A 
ATOM     15  C   UNL d   1     -41.576-122.345 -50.820  0.00  0.00     0.000 A 
ATOM     16  C   UNL d   1     -41.123-121.782 -51.217  0.00  0.00     0.000 A 
ATOM     17  C   UNL d   1     -41.456-122.476 -50.000  0.00  0.00     0.000 C 
ATOM     18  C   UNL d   1     -41.241-121.654 -52.020  0.00  0.00     0.002 A 
ENDBRANCH   2  12
TORSDOF 1
ENDMDL
MODEL 3
REMARK VINA RESULT:      -3.4      1.880      3.663
REMARK  1 active torsions:
REMARK  status: ('A' for Active; 'I' for Inactive)
REMARK    1  A    between atoms: C_7  and  C_2 
ROOT
ATOM      1  N   UNL d   1     -41.123-122.731 -49.028  0.00  0.00    -0.147 NA
ATOM      2  C   UNL d   1     -41.708-122.890 -49.583  0.00  0.00     0.103 A 
ATOM      3  N   UNL d   1     -41.266-122.881 -48.238  0.00  0.00    -0.137 NA
ATOM      4  C   UNL d   1     -42.440-123.200 -49.356  0.00  0.00     0.022 A 
ATOM      5  C   UNL d   1     -41.994-123.189 -48.003  0.00  0.00     0.157 A 
ATOM      6  C   UNL d   1     -42.583-123.350 -48.565  0.00  0.00     0.031 A 
ATOM      7  S   UNL d   1     -42.142-123.345 -47.182  0.00  0.00    -0.056 SA
ATOM      8  C   UNL d   1     -43.029-123.361 -49.912  0.00  0.00     0.002 A 
ATOM      9  C   UNL d   1     -43.316-123.660 -48.332  0.00  0.00     0.002 A 
ATOM     10  C   UNL d   1     -43.752-123.667 -49.682  0.00  0.00     0.000 A 
ATOM     11  C   UNL d   1     -43.895-123.816 -48.891  0.00  0.00     0.000 A 
ENDROOT
BRANCH   2  12
ATOM     12  C   UNL d   1     -41.559-122.735 -50.404  0.00  0.00     0.019 A 
ATOM     13  C   UNL d   1     -41.303-123.350 -50.899  0.00  0.00     0.002 A 
ATOM     14  C   UNL d   1     -41.159-123.200 -51.694  0.00  0.00     0.000 A 
ATOM     15  C   UNL d   1     -41.271-122.434 -51.995  0.00  0.00     0.000 A 
ATOM     16  C   UNL d   1     -41.525-121.825 -51.501  0.00  0.00     0.000 A 
ATOM     17  C   UNL d   1     -41.124-122.281 -52.805  0.00  0.00     0.000 C 
ATOM     18  C   UNL d   1     -41.669-121.975 -50.705  0.00  0.00     0.002 A 
ENDBRANCH   2  12
TORSDOF 1
ENDMDL
