MODEL 1
REMARK VINA RESULT:       0.5      0.000      0.000
REMARK  2 active torsions:
REMARK  status: ('A' for Active; 'I' for Inactive)
REMARK    1  A    between atoms: C_9  and  C_1 
REMARK    2  A    between atoms: N_7  and  C_2 
ROOT
ATOM      1  C   UNL d   1      30.672  17.425 -24.377  0.00  0.00     0.022 A 
ATOM      2  C   UNL d   1      29.874  17.434 -24.559  0.00  0.00     0.123 A 
ATOM      3  C   UNL d   1      29.542  18.083 -24.914  0.00  0.00     0.295 A 
ATOM      4  C   UNL d   1      31.150  18.087 -24.558  0.00  0.00     0.020 A 
ATOM      5  N   UNL d   1      30.001  18.739 -25.097  0.00  0.00    -0.207 NA
ATOM      6  C   UNL d   1      30.819  18.736 -24.914  0.00  0.00     0.085 A 
ATOM      7  C   UNL d   1      31.942  18.074 -24.377  0.00  0.00     0.013 A 
ATOM      8  O   UNL d   1      28.716  18.059 -25.087  0.00  0.00    -0.264 OA
ATOM      9  C   UNL d   1      31.270  19.388 -25.097  0.00  0.00     0.020 A 
ATOM     10  C   UNL d   1      32.420  18.737 -24.558  0.00  0.00     0.058 A 
ATOM     11  C   UNL d   1      32.088  19.386 -24.914  0.00  0.00     0.013 A 
ATOM     12 CL   UNL d   1      33.241  18.759 -24.386  0.00  0.00    -0.082 Cl
ENDROOT
BRANCH   1  13
ATOM     13  C   UNL d   1      31.014  16.758 -24.011  0.00  0.00     0.002 A 
ATOM     14  C   UNL d   1      31.272  16.130 -24.462  0.00  0.00     0.000 A 
ATOM     15  C   UNL d   1      31.608  15.472 -24.101  0.00  0.00     0.000 A 
ATOM     16  C   UNL d   1      31.682  15.453 -23.279  0.00  0.00     0.000 A 
ATOM     17  C   UNL d   1      31.426  16.078 -22.824  0.00  0.00     0.000 A 
ATOM     18  C   UNL d   1      31.084  16.746 -23.190  0.00  0.00     0.000 A 
ENDBRANCH   1  13
BRANCH   2  19
ATOM     19  N   UNL d   1      29.424  16.787 -24.377  0.00  0.00    -0.296 N 
ATOM     20  C   UNL d   1      29.046  16.746 -23.636  0.00  0.00     0.107 A 
ATOM     21  C   UNL d   1      28.583  16.086 -23.439  0.00  0.00     0.142 A 
ATOM     22  O   UNL d   1      28.497  15.464 -23.987  0.00  0.00    -0.300 OA
ATOM     23  C   UNL d   1      28.871  15.507 -24.717  0.00  0.00     0.142 A 
ATOM     24  C   UNL d   1      29.336  16.162 -24.922  0.00  0.00     0.107 A 
ENDBRANCH   2  19
TORSDOF 2
ENDMDL
MODEL 2
REMARK VINA RESULT:       0.7      1.767      3.105
REMARK  2 active torsions:
REMARK  status: ('A' for Active; 'I' for Inactive)
REMARK    1  A    between atoms: C_9  and  C_1 
REMARK    2  A    between atoms: N_7  and  C_2 
ROOT
ATOM      1  C   UNL d   1      30.507  17.219 -24.226  0.00  0.00     0.022 A 
ATOM      2  C   UNL d   1      30.796  17.949 -24.460  0.00  0.00     0.123 A 
ATOM      3  C   UNL d   1      30.289  18.527 -24.719  0.00  0.00     0.295 A 
ATOM      4  C   UNL d   1      29.685  17.067 -24.253  0.00  0.00     0.020 A 
ATOM      5  N   UNL d   1      29.481  18.389 -24.750  0.00  0.00    -0.207 NA
ATOM      6  C   UNL d   1      29.178  17.644 -24.512  0.00  0.00     0.085 A 
ATOM      7  C   UNL d   1      29.402  16.342 -24.020  0.00  0.00     0.013 A 
ATOM      8  O   UNL d   1      30.621  19.267 -24.952  0.00  0.00    -0.264 OA
ATOM      9  C   UNL d   1      28.376  17.511 -24.544  0.00  0.00     0.020 A 
ATOM     10  C   UNL d   1      28.580  16.189 -24.047  0.00  0.00     0.058 A 
ATOM     11  C   UNL d   1      28.073  16.767 -24.306  0.00  0.00     0.013 A 
ATOM     12 CL   UNL d   1      28.252  15.452 -23.815  0.00  0.00    -0.082 Cl
ENDROOT
BRANCH   1  13
ATOM     13  C   UNL d   1      31.029  16.625 -23.960  0.00  0.00     0.002 A 
ATOM     14  C   UNL d   1      31.204  16.558 -23.167  0.00  0.00     0.000 A 
ATOM     15  C   UNL d   1      31.719  15.972 -22.905  0.00  0.00     0.000 A 
ATOM     16  C   UNL d   1      32.055  15.453 -23.451  0.00  0.00     0.000 A 
ATOM     17  C   UNL d   1      31.882  15.515 -24.246  0.00  0.00     0.000 A 
ATOM     18  C   UNL d   1      31.360  16.110 -24.512  0.00  0.00     0.000 A 
ENDBRANCH   1  13
BRANCH   2  19
ATOM     19  N   UNL d   1      31.594  18.082 -24.429  0.00  0.00    -0.296 N 
ATOM     20  C   UNL d   1      31.936  18.353 -23.719  0.00  0.00     0.107 A 
ATOM     21  C   UNL d   1      32.752  18.493 -23.675  0.00  0.00     0.142 A 
ATOM     22  O   UNL d   1      33.231  18.360 -24.345  0.00  0.00    -0.300 OA
ATOM     23  C   UNL d   1      32.891  18.092 -25.044  0.00  0.00     0.142 A 
ATOM     24  C   UNL d   1      32.075  17.950 -25.097  0.00  0.00     0.107 A 
ENDBRANCH   2  19
TORSDOF 2
ENDMDL
MODEL 3
REMARK VINA RESULT:       0.8      4.696      6.479
REMARK  2 active torsions:
REMARK  status: ('A' for Active; 'I' for Inactive)
REMARK    1  A    between atoms: C_9  and  C_1 
REMARK    2  A    between atoms: N_7  and  C_2 
ROOT
ATOM      1  C   UNL d   1      32.766  21.597 -21.976  0.00  0.00     0.022 A 
ATOM      2  C   UNL d   1      32.766  21.587 -21.156  0.00  0.00     0.123 A 
ATOM      3  C   UNL d   1      32.921  20.899 -20.756  0.00  0.00     0.295 A 
ATOM      4  C   UNL d   1      32.926  20.896 -22.403  0.00  0.00     0.020 A 
ATOM      5  N   UNL d   1      33.079  20.205 -21.164  0.00  0.00    -0.207 NA
ATOM      6  C   UNL d   1      33.081  20.208 -22.002  0.00  0.00     0.085 A 
ATOM      7  C   UNL d   1      32.926  20.911 -23.215  0.00  0.00     0.013 A 
ATOM      8  O   UNL d   1      32.912  20.924 -19.912  0.00  0.00    -0.264 OA
ATOM      9  C   UNL d   1      33.239  19.518 -22.404  0.00  0.00     0.020 A 
ATOM     10  C   UNL d   1      33.086  20.210 -23.643  0.00  0.00     0.058 A 
ATOM     11  C   UNL d   1      33.241  19.522 -23.242  0.00  0.00     0.013 A 
ATOM     12 CL   UNL d   1      33.094  20.187 -24.482  0.00  0.00    -0.082 Cl
ENDROOT
BRANCH   1  13
ATOM     13  C   UNL d   1      32.607  22.305 -22.388  0.00  0.00     0.002 A 
ATOM     14  C   UNL d   1      31.838  22.525 -22.543  0.00  0.00     0.000 A 
ATOM     15  C   UNL d   1      31.681  23.223 -22.950  0.00  0.00     0.000 A 
ATOM     16  C   UNL d   1      32.309  23.698 -23.199  0.00  0.00     0.000 A 
ATOM     17  C   UNL d   1      33.080  23.482 -23.045  0.00  0.00     0.000 A 
ATOM     18  C   UNL d   1      33.240  22.774 -22.633  0.00  0.00     0.000 A 
ENDBRANCH   1  13
BRANCH   2  19
ATOM     19  N   UNL d   1      32.609  22.272 -20.757  0.00  0.00    -0.296 N 
ATOM     20  C   UNL d   1      33.240  22.766 -20.529  0.00  0.00     0.107 A 
ATOM     21  C   UNL d   1      33.091  23.472 -20.119  0.00  0.00     0.142 A 
ATOM     22  O   UNL d   1      32.306  23.685 -19.935  0.00  0.00    -0.300 OA
ATOM     23  C   UNL d   1      31.686  23.196 -20.161  0.00  0.00     0.142 A 
ATOM     24  C   UNL d   1      31.825  22.489 -20.571  0.00  0.00     0.107 A 
ENDBRANCH   2  19
TORSDOF 2
ENDMDL
MODEL 4
REMARK VINA RESULT:       2.0      1.113      2.256
REMARK  2 active torsions:
REMARK  status: ('A' for Active; 'I' for Inactive)
REMARK    1  A    between atoms: C_9  and  C_1 
REMARK    2  A    between atoms: N_7  and  C_2 
ROOT
ATOM      1  C   UNL d   1      30.685  17.472 -24.402  0.00  0.00     0.022 A 
ATOM      2  C   UNL d   1      30.723  16.671 -24.231  0.00  0.00     0.123 A 
ATOM      3  C   UNL d   1      31.436  16.286 -24.225  0.00  0.00     0.295 A 
ATOM      4  C   UNL d   1      31.386  17.896 -24.570  0.00  0.00     0.020 A 
ATOM      5  N   UNL d   1      32.131  16.693 -24.388  0.00  0.00    -0.207 NA
ATOM      6  C   UNL d   1      32.100  17.512 -24.563  0.00  0.00     0.085 A 
ATOM      7  C   UNL d   1      31.345  18.690 -24.738  0.00  0.00     0.013 A 
ATOM      8  O   UNL d   1      31.438  15.462 -24.046  0.00  0.00    -0.264 OA
ATOM      9  C   UNL d   1      32.791  17.911 -24.725  0.00  0.00     0.020 A 
ATOM     10  C   UNL d   1      32.046  19.115 -24.906  0.00  0.00     0.058 A 
ATOM     11  C   UNL d   1      32.760  18.730 -24.900  0.00  0.00     0.013 A 
ATOM     12 CL   UNL d   1      32.042  19.935 -25.084  0.00  0.00    -0.082 Cl
ENDROOT
BRANCH   1  13
ATOM     13  C   UNL d   1      29.951  17.867 -24.409  0.00  0.00     0.002 A 
ATOM     14  C   UNL d   1      29.505  17.893 -25.090  0.00  0.00     0.000 A 
ATOM     15  C   UNL d   1      28.781  18.283 -25.097  0.00  0.00     0.000 A 
ATOM     16  C   UNL d   1      28.510  18.649 -24.408  0.00  0.00     0.000 A 
ATOM     17  C   UNL d   1      28.953  18.626 -23.723  0.00  0.00     0.000 A 
ATOM     18  C   UNL d   1      29.688  18.230 -23.717  0.00  0.00     0.000 A 
ENDBRANCH   1  13
BRANCH   2  19
ATOM     19  N   UNL d   1      30.036  16.274 -24.071  0.00  0.00    -0.296 N 
ATOM     20  C   UNL d   1      29.625  15.900 -24.692  0.00  0.00     0.107 A 
ATOM     21  C   UNL d   1      28.920  15.490 -24.539  0.00  0.00     0.142 A 
ATOM     22  O   UNL d   1      28.625  15.453 -23.760  0.00  0.00    -0.300 OA
ATOM     23  C   UNL d   1      29.033  15.822 -23.149  0.00  0.00     0.142 A 
ATOM     24  C   UNL d   1      29.738  16.234 -23.293  0.00  0.00     0.107 A 
ENDBRANCH   2  19
TORSDOF 2
ENDMDL
MODEL 5
REMARK VINA RESULT:       3.2      4.329      5.820
REMARK  2 active torsions:
REMARK  status: ('A' for Active; 'I' for Inactive)
REMARK    1  A    between atoms: C_9  and  C_1 
REMARK    2  A    between atoms: N_7  and  C_2 
ROOT
ATOM      1  C   UNL d   1      32.780  21.005 -22.080  0.00  0.00     0.022 A 
ATOM      2  C   UNL d   1      32.781  21.755 -22.411  0.00  0.00     0.123 A 
ATOM      3  C   UNL d   1      32.932  21.853 -23.201  0.00  0.00     0.295 A 
ATOM      4  C   UNL d   1      32.935  20.337 -22.559  0.00  0.00     0.020 A 
ATOM      5  N   UNL d   1      33.086  21.205 -23.681  0.00  0.00    -0.207 NA
ATOM      6  C   UNL d   1      33.087  20.436 -23.349  0.00  0.00     0.085 A 
ATOM      7  C   UNL d   1      32.933  19.595 -22.227  0.00  0.00     0.013 A 
ATOM      8  O   UNL d   1      32.926  22.639 -23.508  0.00  0.00    -0.264 OA
ATOM      9  C   UNL d   1      33.240  19.795 -23.828  0.00  0.00     0.020 A 
ATOM     10  C   UNL d   1      33.089  18.926 -22.706  0.00  0.00     0.058 A 
ATOM     11  C   UNL d   1      33.240  19.025 -23.496  0.00  0.00     0.013 A 
ATOM     12 CL   UNL d   1      33.095  18.146 -22.398  0.00  0.00    -0.082 Cl
ENDROOT
BRANCH   1  13
ATOM     13  C   UNL d   1      32.624  20.903 -21.267  0.00  0.00     0.002 A 
ATOM     14  C   UNL d   1      33.239  20.854 -20.735  0.00  0.00     0.000 A 
ATOM     15  C   UNL d   1      33.086  20.754 -19.933  0.00  0.00     0.000 A 
ATOM     16  C   UNL d   1      32.304  20.703 -19.672  0.00  0.00     0.000 A 
ATOM     17  C   UNL d   1      31.685  20.752 -20.201  0.00  0.00     0.000 A 
ATOM     18  C   UNL d   1      31.841  20.854 -21.015  0.00  0.00     0.000 A 
ENDBRANCH   1  13
BRANCH   2  19
ATOM     19  N   UNL d   1      32.629  22.391 -21.935  0.00  0.00    -0.296 N 
ATOM     20  C   UNL d   1      33.240  22.704 -21.463  0.00  0.00     0.107 A 
ATOM     21  C   UNL d   1      33.096  23.357 -20.972  0.00  0.00     0.142 A 
ATOM     22  O   UNL d   1      32.335  23.699 -20.953  0.00  0.00    -0.300 OA
ATOM     23  C   UNL d   1      31.734  23.388 -21.420  0.00  0.00     0.142 A 
ATOM     24  C   UNL d   1      31.870  22.736 -21.914  0.00  0.00     0.107 A 
ENDBRANCH   2  19
TORSDOF 2
ENDMDL
