MODEL 1
REMARK VINA RESULT:      -7.7      0.000      0.000
REMARK  1 active torsions:
REMARK  status: ('A' for Active; 'I' for Inactive)
REMARK    1  A    between atoms: C_8  and  CA_5 
ROOT
ATOM      1  N   UNL d   1      52.953  33.590  53.865  0.00  0.00    -0.224 NA
ATOM      2  C   UNL d   1      53.082  32.804  53.680  0.00  0.00     0.162 A 
ATOM      3  N   UNL d   1      52.620  32.436  53.113  0.00  0.00    -0.225 NA
ATOM      4  C   UNL d   1      53.679  32.386  54.067  0.00  0.00     0.036 A 
ATOM      5  CA  UNL d   1      53.410  33.970  54.432  0.00  0.00     0.125 A 
ATOM      6  C   UNL d   1      54.143  32.758  54.636  0.00  0.00     0.005 A 
ATOM      7  C   UNL d   1      54.008  33.552  54.819  0.00  0.00     0.023 A 
ATOM      8  C   UNL d   1      52.755  31.642  52.930  0.00  0.00     0.101 A 
ATOM      9  C   UNL d   1      53.817  31.599  53.889  0.00  0.00     0.005 A 
ATOM     10  C   UNL d   1      53.352  31.225  53.317  0.00  0.00     0.021 A 
ENDROOT
BRANCH   5  11
ATOM     11  C   UNL d   1      53.280  34.752  54.615  0.00  0.00     0.253 C 
ATOM     12  O   UNL d   1      53.330  35.005  55.399  0.00  0.00    -0.281 OA
ENDBRANCH   5  11
TORSDOF 1
ENDMDL
MODEL 2
REMARK VINA RESULT:      -7.6      1.556      2.633
REMARK  1 active torsions:
REMARK  status: ('A' for Active; 'I' for Inactive)
REMARK    1  A    between atoms: C_8  and  CA_5 
ROOT
ATOM      1  N   UNL d   1      52.814  32.815  53.615  0.00  0.00    -0.224 NA
ATOM      2  C   UNL d   1      53.327  33.202  54.121  0.00  0.00     0.162 A 
ATOM      3  N   UNL d   1      53.122  33.932  54.430  0.00  0.00    -0.225 NA
ATOM      4  C   UNL d   1      54.049  32.854  54.315  0.00  0.00     0.036 A 
ATOM      5  CA  UNL d   1      53.008  32.082  53.298  0.00  0.00     0.125 A 
ATOM      6  C   UNL d   1      54.254  32.121  54.002  0.00  0.00     0.005 A 
ATOM      7  C   UNL d   1      53.731  31.734  53.492  0.00  0.00     0.023 A 
ATOM      8  C   UNL d   1      53.645  34.319  54.940  0.00  0.00     0.101 A 
ATOM      9  C   UNL d   1      54.571  33.234  54.820  0.00  0.00     0.005 A 
ATOM     10  C   UNL d   1      54.367  33.971  55.135  0.00  0.00     0.021 A 
ENDROOT
BRANCH   5  11
ATOM     11  C   UNL d   1      52.496  31.698  52.796  0.00  0.00     0.253 C 
ATOM     12  O   UNL d   1      52.720  30.984  52.448  0.00  0.00    -0.281 OA
ENDBRANCH   5  11
TORSDOF 1
ENDMDL
MODEL 3
REMARK VINA RESULT:      -7.6      1.153      1.562
REMARK  1 active torsions:
REMARK  status: ('A' for Active; 'I' for Inactive)
REMARK    1  A    between atoms: C_8  and  CA_5 
ROOT
ATOM      1  N   UNL d   1      53.548  33.624  54.716  0.00  0.00    -0.224 NA
ATOM      2  C   UNL d   1      53.068  33.375  54.102  0.00  0.00     0.162 A 
ATOM      3  N   UNL d   1      52.313  33.681  54.023  0.00  0.00    -0.225 NA
ATOM      4  C   UNL d   1      53.350  32.815  53.565  0.00  0.00     0.036 A 
ATOM      5  CA  UNL d   1      54.308  33.323  54.805  0.00  0.00     0.125 A 
ATOM      6  C   UNL d   1      54.109  32.508  53.645  0.00  0.00     0.005 A 
ATOM      7  C   UNL d   1      54.589  32.764  54.268  0.00  0.00     0.023 A 
ATOM      8  C   UNL d   1      51.833  33.426  53.401  0.00  0.00     0.101 A 
ATOM      9  C   UNL d   1      52.877  32.559  52.947  0.00  0.00     0.005 A 
ATOM     10  C   UNL d   1      52.114  32.866  52.864  0.00  0.00     0.021 A 
ENDROOT
BRANCH   5  11
ATOM     11  C   UNL d   1      54.783  33.572  55.417  0.00  0.00     0.253 C 
ATOM     12  O   UNL d   1      55.434  34.056  55.260  0.00  0.00    -0.281 OA
ENDBRANCH   5  11
TORSDOF 1
ENDMDL
MODEL 4
REMARK VINA RESULT:      -7.5      1.944      2.907
REMARK  1 active torsions:
REMARK  status: ('A' for Active; 'I' for Inactive)
REMARK    1  A    between atoms: C_8  and  CA_5 
ROOT
ATOM      1  N   UNL d   1      52.574  31.427  52.792  0.00  0.00    -0.224 NA
ATOM      2  C   UNL d   1      52.687  32.214  52.984  0.00  0.00     0.162 A 
ATOM      3  N   UNL d   1      52.215  32.789  52.643  0.00  0.00    -0.225 NA
ATOM      4  C   UNL d   1      53.278  32.423  53.520  0.00  0.00     0.036 A 
ATOM      5  CA  UNL d   1      53.042  30.840  53.128  0.00  0.00     0.125 A 
ATOM      6  C   UNL d   1      53.752  31.843  53.862  0.00  0.00     0.005 A 
ATOM      7  C   UNL d   1      53.632  31.049  53.664  0.00  0.00     0.023 A 
ATOM      8  C   UNL d   1      52.334  33.583  52.840  0.00  0.00     0.101 A 
ATOM      9  C   UNL d   1      53.400  33.208  53.719  0.00  0.00     0.005 A 
ATOM     10  C   UNL d   1      52.925  33.792  53.377  0.00  0.00     0.021 A 
ENDROOT
BRANCH   5  11
ATOM     11  C   UNL d   1      52.927  30.058  52.935  0.00  0.00     0.253 C 
ATOM     12  O   UNL d   1      52.548  29.555  53.469  0.00  0.00    -0.281 OA
ENDBRANCH   5  11
TORSDOF 1
ENDMDL
MODEL 5
REMARK VINA RESULT:      -7.3      1.471      2.289
REMARK  1 active torsions:
REMARK  status: ('A' for Active; 'I' for Inactive)
REMARK    1  A    between atoms: C_8  and  CA_5 
ROOT
ATOM      1  N   UNL d   1      52.458  33.983  53.830  0.00  0.00    -0.224 NA
ATOM      2  C   UNL d   1      53.129  33.661  54.170  0.00  0.00     0.162 A 
ATOM      3  N   UNL d   1      53.504  34.052  54.784  0.00  0.00    -0.225 NA
ATOM      4  C   UNL d   1      53.424  32.943  53.890  0.00  0.00     0.036 A 
ATOM      5  CA  UNL d   1      52.073  33.599  53.213  0.00  0.00     0.125 A 
ATOM      6  C   UNL d   1      53.047  32.552  53.273  0.00  0.00     0.005 A 
ATOM      7  C   UNL d   1      52.369  32.882  52.934  0.00  0.00     0.023 A 
ATOM      8  C   UNL d   1      54.181  33.723  55.123  0.00  0.00     0.101 A 
ATOM      9  C   UNL d   1      54.096  32.613  54.223  0.00  0.00     0.005 A 
ATOM     10  C   UNL d   1      54.477  33.005  54.843  0.00  0.00     0.021 A 
ENDROOT
BRANCH   5  11
ATOM     11  C   UNL d   1      51.406  33.921  52.877  0.00  0.00     0.253 C 
ATOM     12  O   UNL d   1      51.418  34.160  52.087  0.00  0.00    -0.281 OA
ENDBRANCH   5  11
TORSDOF 1
ENDMDL
MODEL 6
REMARK VINA RESULT:      -4.8      9.861     10.210
REMARK  1 active torsions:
REMARK  status: ('A' for Active; 'I' for Inactive)
REMARK    1  A    between atoms: C_8  and  CA_5 
ROOT
ATOM      1  N   UNL d   1      45.285  28.496  58.074  0.00  0.00    -0.224 NA
ATOM      2  C   UNL d   1      45.153  29.300  58.149  0.00  0.00     0.162 A 
ATOM      3  N   UNL d   1      45.284  29.671  58.867  0.00  0.00    -0.225 NA
ATOM      4  C   UNL d   1      44.887  29.733  57.499  0.00  0.00     0.036 A 
ATOM      5  CA  UNL d   1      45.157  28.114  57.358  0.00  0.00     0.125 A 
ATOM      6  C   UNL d   1      44.756  29.359  56.777  0.00  0.00     0.005 A 
ATOM      7  C   UNL d   1      44.892  28.546  56.708  0.00  0.00     0.023 A 
ATOM      8  C   UNL d   1      45.149  30.483  58.937  0.00  0.00     0.101 A 
ATOM      9  C   UNL d   1      44.752  30.538  57.563  0.00  0.00     0.005 A 
ATOM     10  C   UNL d   1      44.883  30.915  58.287  0.00  0.00     0.021 A 
ENDROOT
BRANCH   5  11
ATOM     11  C   UNL d   1      45.289  27.314  57.286  0.00  0.00     0.253 C 
ATOM     12  O   UNL d   1      45.883  27.040  56.783  0.00  0.00    -0.281 OA
ENDBRANCH   5  11
TORSDOF 1
ENDMDL
