MODEL 1
REMARK VINA RESULT:      -7.7      0.000      0.000
REMARK  4 active torsions:
REMARK  status: ('A' for Active; 'I' for Inactive)
REMARK    1  A    between atoms: C_3  and  N_1 
REMARK       I    between atoms: C_4  and  N_1 
REMARK    2  A    between atoms: C_9  and  C_4 
REMARK    3  A    between atoms: C_5  and  C_10 
REMARK    4  A    between atoms: C_10  and  C_9 
ROOT
ATOM      1  N   UNL d   1      53.538  31.690  53.365  0.00  0.00    -0.189 NA
ATOM      2  C   UNL d   1      52.832  31.931  52.982  0.00  0.00     0.281 C 
ATOM      3  O   UNL d   1      52.438  31.415  52.493  0.00  0.00    -0.265 OA
ENDROOT
BRANCH   1   4
ATOM      4  C   UNL d   1      53.931  32.238  53.866  0.00  0.00     0.166 A 
ATOM      5  N   UNL d   1      53.727  32.296  54.666  0.00  0.00    -0.225 NA
ATOM      6  C   UNL d   1      54.095  32.820  55.166  0.00  0.00     0.107 A 
ATOM      7  C   UNL d   1      54.675  33.301  54.888  0.00  0.00     0.054 A 
ATOM      8  C   UNL d   1      54.917  33.280  54.089  0.00  0.00     0.011 A 
ATOM      9 BR   UNL d   1      55.037  33.839  55.451  0.00  0.00    -0.048 Br
ATOM     10  C   UNL d   1      54.554  32.759  53.585  0.00  0.00     0.039 A 
ENDBRANCH   1   4
BRANCH   2  11
ATOM     11  C   UNL d   1      52.518  32.711  53.096  0.00  0.00     0.069 C 
BRANCH  11  12
ATOM     12  C   UNL d   1      51.843  32.920  52.699  0.00  0.00     0.075 C 
BRANCH  12  13
ATOM     13  C   UNL d   1      51.491  33.651  52.851  0.00  0.00     0.211 C 
ATOM     14  O   UNL d   1      51.762  34.333  52.447  0.00  0.00    -0.644 OA
ATOM     15  O   UNL d   1      50.894  33.704  53.381  0.00  0.00    -0.644 OA
ENDBRANCH  12  13
ENDBRANCH  11  12
ENDBRANCH   2  11
TORSDOF 4
ENDMDL
MODEL 2
REMARK VINA RESULT:      -7.5      1.481      2.502
REMARK  4 active torsions:
REMARK  status: ('A' for Active; 'I' for Inactive)
REMARK    1  A    between atoms: C_3  and  N_1 
REMARK       I    between atoms: C_4  and  N_1 
REMARK    2  A    between atoms: C_9  and  C_4 
REMARK    3  A    between atoms: C_5  and  C_10 
REMARK    4  A    between atoms: C_10  and  C_9 
ROOT
ATOM      1  N   UNL d   1      53.014  32.364  52.836  0.00  0.00    -0.189 NA
ATOM      2  C   UNL d   1      52.863  31.540  52.797  0.00  0.00     0.281 C 
ATOM      3  O   UNL d   1      52.405  31.238  52.198  0.00  0.00    -0.265 OA
ENDROOT
BRANCH   1   4
ATOM      4  C   UNL d   1      53.490  32.657  53.463  0.00  0.00     0.166 A 
ATOM      5  N   UNL d   1      53.146  32.898  54.175  0.00  0.00    -0.225 NA
ATOM      6  C   UNL d   1      53.590  33.183  54.792  0.00  0.00     0.107 A 
ATOM      7  C   UNL d   1      54.388  33.238  54.722  0.00  0.00     0.054 A 
ATOM      8  C   UNL d   1      54.783  33.007  54.023  0.00  0.00     0.011 A 
ATOM      9 BR   UNL d   1      54.818  33.545  55.399  0.00  0.00    -0.048 Br
ATOM     10  C   UNL d   1      54.345  32.722  53.404  0.00  0.00     0.039 A 
ENDBRANCH   1   4
BRANCH   2  11
ATOM     11  C   UNL d   1      53.185  31.010  53.377  0.00  0.00     0.069 C 
BRANCH  11  12
ATOM     12  C   UNL d   1      53.051  30.215  53.293  0.00  0.00     0.075 C 
BRANCH  12  13
ATOM     13  C   UNL d   1      53.306  29.694  53.881  0.00  0.00     0.211 C 
ATOM     14  O   UNL d   1      52.760  29.418  54.454  0.00  0.00    -0.644 OA
ATOM     15  O   UNL d   1      54.070  29.457  53.902  0.00  0.00    -0.644 OA
ENDBRANCH  12  13
ENDBRANCH  11  12
ENDBRANCH   2  11
TORSDOF 4
ENDMDL
MODEL 3
REMARK VINA RESULT:      -6.8      2.192      3.128
REMARK  4 active torsions:
REMARK  status: ('A' for Active; 'I' for Inactive)
REMARK    1  A    between atoms: C_3  and  N_1 
REMARK       I    between atoms: C_4  and  N_1 
REMARK    2  A    between atoms: C_9  and  C_4 
REMARK    3  A    between atoms: C_5  and  C_10 
REMARK    4  A    between atoms: C_10  and  C_9 
ROOT
ATOM      1  N   UNL d   1      53.084  32.276  53.019  0.00  0.00    -0.189 NA
ATOM      2  C   UNL d   1      53.687  32.389  53.592  0.00  0.00     0.281 C 
ATOM      3  O   UNL d   1      54.305  31.863  53.642  0.00  0.00    -0.265 OA
ENDROOT
BRANCH   1   4
ATOM      4  C   UNL d   1      52.455  32.831  52.984  0.00  0.00     0.166 A 
ATOM      5  N   UNL d   1      51.749  32.692  53.392  0.00  0.00    -0.225 NA
ATOM      6  C   UNL d   1      51.130  33.216  53.370  0.00  0.00     0.107 A 
ATOM      7  C   UNL d   1      51.191  33.893  52.943  0.00  0.00     0.054 A 
ATOM      8  C   UNL d   1      51.883  34.080  52.513  0.00  0.00     0.011 A 
ATOM      9 BR   UNL d   1      50.513  34.420  52.947  0.00  0.00    -0.048 Br
ATOM     10  C   UNL d   1      52.505  33.560  52.531  0.00  0.00     0.039 A 
ENDBRANCH   1   4
BRANCH   2  11
ATOM     11  C   UNL d   1      53.665  33.049  54.125  0.00  0.00     0.069 C 
BRANCH  11  12
ATOM     12  C   UNL d   1      54.194  33.072  54.738  0.00  0.00     0.075 C 
BRANCH  12  13
ATOM     13  C   UNL d   1      54.369  33.793  55.099  0.00  0.00     0.211 C 
ATOM     14  O   UNL d   1      55.149  34.098  55.057  0.00  0.00    -0.644 OA
ATOM     15  O   UNL d   1      53.796  34.197  55.485  0.00  0.00    -0.644 OA
ENDBRANCH  12  13
ENDBRANCH  11  12
ENDBRANCH   2  11
TORSDOF 4
ENDMDL
MODEL 4
REMARK VINA RESULT:      -6.8      2.239      3.154
REMARK  4 active torsions:
REMARK  status: ('A' for Active; 'I' for Inactive)
REMARK    1  A    between atoms: C_3  and  N_1 
REMARK       I    between atoms: C_4  and  N_1 
REMARK    2  A    between atoms: C_9  and  C_4 
REMARK    3  A    between atoms: C_5  and  C_10 
REMARK    4  A    between atoms: C_10  and  C_9 
ROOT
ATOM      1  N   UNL d   1      53.434  33.437  53.709  0.00  0.00    -0.189 NA
ATOM      2  C   UNL d   1      53.673  32.634  53.654  0.00  0.00     0.281 C 
ATOM      3  O   UNL d   1      54.403  32.407  53.930  0.00  0.00    -0.265 OA
ENDROOT
BRANCH   1   4
ATOM      4  C   UNL d   1      52.676  33.651  53.419  0.00  0.00     0.166 A 
ATOM      5  N   UNL d   1      52.005  33.572  53.897  0.00  0.00    -0.225 NA
ATOM      6  C   UNL d   1      51.264  33.774  53.635  0.00  0.00     0.107 A 
ATOM      7  C   UNL d   1      51.165  34.061  52.891  0.00  0.00     0.054 A 
ATOM      8  C   UNL d   1      51.811  34.160  52.370  0.00  0.00     0.011 A 
ATOM      9 BR   UNL d   1      50.365  34.262  52.654  0.00  0.00    -0.048 Br
ATOM     10  C   UNL d   1      52.553  33.959  52.626  0.00  0.00     0.039 A 
ENDBRANCH   1   4
BRANCH   2  11
ATOM     11  C   UNL d   1      53.161  32.049  53.313  0.00  0.00     0.069 C 
BRANCH  11  12
ATOM     12  C   UNL d   1      53.399  31.275  53.316  0.00  0.00     0.075 C 
BRANCH  12  13
ATOM     13  C   UNL d   1      52.923  30.700  52.964  0.00  0.00     0.211 C 
ATOM     14  O   UNL d   1      52.418  30.232  53.441  0.00  0.00    -0.644 OA
ATOM     15  O   UNL d   1      52.946  30.593  52.171  0.00  0.00    -0.644 OA
ENDBRANCH  12  13
ENDBRANCH  11  12
ENDBRANCH   2  11
TORSDOF 4
ENDMDL
MODEL 5
REMARK VINA RESULT:      -6.7      1.609      2.167
REMARK  4 active torsions:
REMARK  status: ('A' for Active; 'I' for Inactive)
REMARK    1  A    between atoms: C_3  and  N_1 
REMARK       I    between atoms: C_4  and  N_1 
REMARK    2  A    between atoms: C_9  and  C_4 
REMARK    3  A    between atoms: C_5  and  C_10 
REMARK    4  A    between atoms: C_10  and  C_9 
ROOT
ATOM      1  N   UNL d   1      53.883  33.955  54.482  0.00  0.00    -0.189 NA
ATOM      2  C   UNL d   1      53.294  34.474  54.187  0.00  0.00     0.281 C 
ATOM      3  O   UNL d   1      53.290  35.256  54.410  0.00  0.00    -0.265 OA
ENDROOT
BRANCH   1   4
ATOM      4  C   UNL d   1      53.869  33.152  54.239  0.00  0.00     0.166 A 
ATOM      5  N   UNL d   1      53.456  32.586  54.680  0.00  0.00    -0.225 NA
ATOM      6  C   UNL d   1      53.431  31.805  54.461  0.00  0.00     0.107 A 
ATOM      7  C   UNL d   1      53.815  31.560  53.799  0.00  0.00     0.054 A 
ATOM      8  C   UNL d   1      54.246  32.092  53.320  0.00  0.00     0.011 A 
ATOM      9 BR   UNL d   1      53.762  30.726  53.604  0.00  0.00    -0.048 Br
ATOM     10  C   UNL d   1      54.275  32.874  53.534  0.00  0.00     0.039 A 
ENDBRANCH   1   4
BRANCH   2  11
ATOM     11  C   UNL d   1      52.696  34.196  53.653  0.00  0.00     0.069 C 
BRANCH  11  12
ATOM     12  C   UNL d   1      52.152  34.726  53.369  0.00  0.00     0.075 C 
BRANCH  12  13
ATOM     13  C   UNL d   1      51.550  34.464  52.868  0.00  0.00     0.211 C 
ATOM     14  O   UNL d   1      50.819  34.217  53.194  0.00  0.00    -0.644 OA
ATOM     15  O   UNL d   1      51.668  34.446  52.077  0.00  0.00    -0.644 OA
ENDBRANCH  12  13
ENDBRANCH  11  12
ENDBRANCH   2  11
TORSDOF 4
ENDMDL
MODEL 6
REMARK VINA RESULT:      -6.3      2.323      3.107
REMARK  4 active torsions:
REMARK  status: ('A' for Active; 'I' for Inactive)
REMARK    1  A    between atoms: C_3  and  N_1 
REMARK       I    between atoms: C_4  and  N_1 
REMARK    2  A    between atoms: C_9  and  C_4 
REMARK    3  A    between atoms: C_5  and  C_10 
REMARK    4  A    between atoms: C_10  and  C_9 
ROOT
ATOM      1  N   UNL d   1      52.847  32.366  52.746  0.00  0.00    -0.189 NA
ATOM      2  C   UNL d   1      53.181  32.963  53.231  0.00  0.00     0.281 C 
ATOM      3  O   UNL d   1      53.125  33.744  53.013  0.00  0.00    -0.265 OA
ENDROOT
BRANCH   1   4
ATOM      4  C   UNL d   1      52.916  31.565  52.989  0.00  0.00     0.166 A 
ATOM      5  N   UNL d   1      52.278  31.179  53.348  0.00  0.00    -0.225 NA
ATOM      6  C   UNL d   1      52.324  30.406  53.590  0.00  0.00     0.107 A 
ATOM      7  C   UNL d   1      53.004  29.992  53.484  0.00  0.00     0.054 A 
ATOM      8  C   UNL d   1      53.677  30.336  53.127  0.00  0.00     0.011 A 
ATOM      9 BR   UNL d   1      53.010  29.177  53.755  0.00  0.00    -0.048 Br
ATOM     10  C   UNL d   1      53.636  31.108  52.883  0.00  0.00     0.039 A 
ENDBRANCH   1   4
BRANCH   2  11
ATOM     11  C   UNL d   1      53.580  32.765  53.954  0.00  0.00     0.069 C 
BRANCH  11  12
ATOM     12  C   UNL d   1      53.831  33.367  54.436  0.00  0.00     0.075 C 
BRANCH  12  13
ATOM     13  C   UNL d   1      54.375  33.207  55.037  0.00  0.00     0.211 C 
ATOM     14  O   UNL d   1      55.160  33.493  54.970  0.00  0.00    -0.644 OA
ATOM     15  O   UNL d   1      54.151  32.783  55.677  0.00  0.00    -0.644 OA
ENDBRANCH  12  13
ENDBRANCH  11  12
ENDBRANCH   2  11
TORSDOF 4
ENDMDL
