MODEL 1
REMARK VINA RESULT:      47.9      0.000      0.000
REMARK  3 active torsions:
REMARK  status: ('A' for Active; 'I' for Inactive)
REMARK       I    between atoms: C_3  and  N_1 
REMARK    1  A    between atoms: C_5  and  C_3 
REMARK    2  A    between atoms: C_9  and  C_4 
REMARK    3  A    between atoms: C_14  and  C_6 
ROOT
ATOM      1  N   UNL d   1      45.960 -17.646  42.908  0.00  0.00    -0.193 N 
ATOM      2  N   UNL d   1      45.803 -16.830  42.838  0.00  0.00    -0.162 NA
ATOM      3  C   UNL d   1      46.032 -18.151  42.265  0.00  0.00     0.303 C 
ATOM      4  C   UNL d   1      45.771 -16.515  43.605  0.00  0.00     0.109 A 
ATOM      5  C   UNL d   1      46.021 -17.811  43.719  0.00  0.00     0.088 A 
ATOM      6  C   UNL d   1      45.906 -17.122  44.150  0.00  0.00     0.041 A 
ATOM      7  O   UNL d   1      46.192 -18.973  42.372  0.00  0.00    -0.263 OA
ENDROOT
BRANCH   3   8
ATOM      8  C   UNL d   1      45.955 -17.888  41.515  0.00  0.00     0.158 A 
ATOM      9  O   UNL d   1      45.258 -17.921  41.056  0.00  0.00    -0.296 OA
ATOM     10  C   UNL d   1      45.422 -17.591  40.320  0.00  0.00     0.134 A 
ATOM     11 BR   UNL d   1      44.867 -17.513  39.681  0.00  0.00    -0.022 Br
ATOM     12  C   UNL d   1      46.196 -17.359  40.321  0.00  0.00     0.034 A 
ATOM     13  C   UNL d   1      46.529 -17.534  41.040  0.00  0.00     0.032 A 
ENDBRANCH   3   8
BRANCH   5  14
ATOM     14  C   UNL d   1      46.095 -18.172  43.867  0.00  0.00     0.018 A 
ATOM     15  C   UNL d   1      45.896 -18.875  43.483  0.00  0.00     0.002 A 
ATOM     16  C   UNL d   1      46.080 -19.579  43.848  0.00  0.00     0.000 A 
ATOM     17  C   UNL d   1      46.448 -19.624  44.570  0.00  0.00     0.000 A 
ATOM     18  C   UNL d   1      46.647 -18.921  44.954  0.00  0.00     0.000 A 
ATOM     19  C   UNL d   1      46.631 -20.327  44.934  0.00  0.00     0.000 C 
ATOM     20  C   UNL d   1      46.471 -18.195  44.603  0.00  0.00     0.002 A 
ENDBRANCH   5  14
BRANCH   4  21
ATOM     21  C   UNL d   1      45.629 -15.727  43.807  0.00  0.00     0.049 A 
ATOM     22  S   UNL d   1      45.044 -15.500  44.320  0.00  0.00    -0.085 SA
ATOM     23  C   UNL d   1      45.094 -14.660  44.368  0.00  0.00     0.035 A 
ATOM     24  C   UNL d   1      45.707 -14.394  43.884  0.00  0.00     0.007 A 
ATOM     25  C   UNL d   1      46.027 -15.074  43.544  0.00  0.00     0.009 A 
ENDBRANCH   4  21
TORSDOF 3
ENDMDL
