MODEL 1
REMARK VINA RESULT:      74.9      0.000      0.000
REMARK  9 active torsions:
REMARK  status: ('A' for Active; 'I' for Inactive)
REMARK    1  A    between atoms: C_6  and  N_1 
REMARK    2  A    between atoms: C_7  and  C_2 
REMARK    3  A    between atoms: C_3  and  C_9 
REMARK    4  A    between atoms: O_5  and  C_3 
REMARK    5  A    between atoms: C_4  and  O_5 
REMARK    6  A    between atoms: C_8  and  C_7 
REMARK    7  A    between atoms: C_12  and  C_8 
REMARK    8  A    between atoms: C_10  and  C_12 
REMARK    9  A    between atoms: O_25  and  C_23 
ROOT
ATOM      1  C   UNL d   1      60.985  48.335  51.230  0.00  0.00     0.064 A 
ATOM      2  C   UNL d   1      60.355  48.842  51.069  0.00  0.00     0.106 A 
ATOM      3  C   UNL d   1      61.515  48.517  51.843  0.00  0.00     0.029 A 
ATOM      4  C   UNL d   1      60.254  49.532  51.521  0.00  0.00     0.027 A 
ATOM      5  C   UNL d   1      61.412  49.200  52.289  0.00  0.00     0.094 A 
ATOM      6  C   UNL d   1      60.781  49.708  52.128  0.00  0.00     0.026 A 
ENDROOT
BRANCH   2   7
ATOM      7  O   UNL d   1      59.824  48.669  50.461  0.00  0.00    -0.273 OA
BRANCH   7   8
ATOM      8  C   UNL d   1      59.612  49.256  49.922  0.00  0.00     0.300 C 
ATOM      9  O   UNL d   1      60.188  49.703  49.547  0.00  0.00    -0.259 OA
BRANCH   8  10
ATOM     10  C   UNL d   1      58.815  49.391  49.763  0.00  0.00     0.065 A 
ATOM     11  C   UNL d   1      58.266  49.344  50.372  0.00  0.00     0.029 A 
ATOM     12  C   UNL d   1      57.471  49.477  50.222  0.00  0.00     0.127 A 
ATOM     13  C   UNL d   1      57.216  49.659  49.454  0.00  0.00     0.024 A 
ATOM     14  C   UNL d   1      57.771  49.705  48.845  0.00  0.00     0.002 A 
ATOM     15  C   UNL d   1      58.574  49.571  48.998  0.00  0.00     0.005 A 
BRANCH  12  16
ATOM     16  N   UNL d   1      56.910  49.431  50.836  0.00  0.00    -0.114 N 
ATOM     17  O   UNL d   1      57.154  49.420  51.618  0.00  0.00    -0.532 OA
ATOM     18  O   UNL d   1      56.106  49.396  50.641  0.00  0.00    -0.532 OA
ENDBRANCH  12  16
ENDBRANCH   8  10
ENDBRANCH   7   8
ENDBRANCH   2   7
BRANCH   1  19
ATOM     19  C   UNL d   1      61.087  47.648  50.780  0.00  0.00     0.198 C 
ATOM     20  O   UNL d   1      61.209  47.705  49.966  0.00  0.00    -0.286 OA
BRANCH  19  21
ATOM     21  C   UNL d   1      61.066  46.911  51.143  0.00  0.00     0.043 C 
BRANCH  21  22
ATOM     22  C   UNL d   1      61.197  46.230  50.699  0.00  0.00     0.010 C 
BRANCH  22  23
ATOM     23  C   UNL d   1      61.017  45.492  51.015  0.00  0.00     0.030 A 
ATOM     24  S   UNL d   1      60.513  45.337  51.650  0.00  0.00    -0.086 SA
ATOM     25  C   UNL d   1      60.494  44.523  51.780  0.00  0.00     0.035 A 
ATOM     26  C   UNL d   1      60.987  44.166  51.226  0.00  0.00     0.007 A 
ATOM     27  C   UNL d   1      61.311  44.762  50.753  0.00  0.00     0.007 A 
ENDBRANCH  22  23
ENDBRANCH  21  22
ENDBRANCH  19  21
ENDBRANCH   1  19
BRANCH   5  28
ATOM     28  O   UNL d   1      61.939  49.377  52.897  0.00  0.00    -0.328 OA
ATOM     29  C   UNL d   1      62.749  49.331  52.763  0.00  0.00     0.181 C 
ENDBRANCH   5  28
TORSDOF 9
ENDMDL
