MODEL 1
REMARK VINA RESULT:      60.4      0.000      0.000
REMARK  3 active torsions:
REMARK  status: ('A' for Active; 'I' for Inactive)
REMARK    1  A    between atoms: C_8  and  C_1 
REMARK    2  A    between atoms: N_5  and  C_2 
REMARK       I    between atoms: C_7  and  N_5 
REMARK    3  A    between atoms: C_9  and  C_7 
ROOT
ATOM      1  C   UNL d   1      58.284  49.279  50.297  0.00  0.00     0.229 A 
ATOM      2  C   UNL d   1      59.566  49.498  50.588  0.00  0.00     0.297 A 
ATOM      3  O   UNL d   1      58.852  49.232  50.897  0.00  0.00    -0.252 OA
ATOM      4  N   UNL d   1      58.652  49.572  49.629  0.00  0.00    -0.117 NA
ATOM      5  N   UNL d   1      59.444  49.708  49.808  0.00  0.00    -0.101 NA
ENDROOT
BRANCH   2   6
ATOM      6  N   UNL d   1      60.277  49.542  51.002  0.00  0.00    -0.165 NA
ATOM      7  C   UNL d   1      60.298  49.377  51.800  0.00  0.00     0.282 C 
ATOM      8  O   UNL d   1      59.610  49.163  52.207  0.00  0.00    -0.265 OA
BRANCH   7   9
ATOM      9  C   UNL d   1      61.009  49.421  52.213  0.00  0.00     0.058 A 
ATOM     10  C   UNL d   1      61.000  49.395  53.036  0.00  0.00     0.005 A 
ATOM     11  C   UNL d   1      61.710  49.439  53.461  0.00  0.00     0.000 A 
ATOM     12  C   UNL d   1      62.428  49.508  53.054  0.00  0.00     0.000 A 
ATOM     13  C   UNL d   1      62.429  49.533  52.228  0.00  0.00     0.000 A 
ATOM     14  C   UNL d   1      63.142  49.553  53.459  0.00  0.00     0.000 C 
ATOM     15  C   UNL d   1      61.720  49.490  51.806  0.00  0.00     0.005 A 
ENDBRANCH   7   9
ENDBRANCH   2   6
BRANCH   1  16
ATOM     16  C   UNL d   1      57.488  49.066  50.371  0.00  0.00     0.143 A 
ATOM     17  O   UNL d   1      57.134  48.398  50.053  0.00  0.00    -0.301 OA
ATOM     18  C   UNL d   1      56.339  48.407  50.263  0.00  0.00     0.123 A 
ATOM     19  C   UNL d   1      56.199  49.085  50.715  0.00  0.00     0.029 A 
ATOM     20  C   UNL d   1      56.907  49.493  50.783  0.00  0.00     0.030 A 
ENDBRANCH   1  16
TORSDOF 3
ENDMDL
MODEL 2
REMARK VINA RESULT:      63.4      2.662      3.145
REMARK  3 active torsions:
REMARK  status: ('A' for Active; 'I' for Inactive)
REMARK    1  A    between atoms: C_8  and  C_1 
REMARK    2  A    between atoms: N_5  and  C_2 
REMARK       I    between atoms: C_7  and  N_5 
REMARK    3  A    between atoms: C_9  and  C_7 
ROOT
ATOM      1  C   UNL d   1      59.279  49.275  50.714  0.00  0.00     0.229 A 
ATOM      2  C   UNL d   1      60.423  48.677  50.383  0.00  0.00     0.297 A 
ATOM      3  O   UNL d   1      59.605  48.632  50.309  0.00  0.00    -0.252 OA
ATOM      4  N   UNL d   1      59.896  49.707  51.031  0.00  0.00    -0.117 NA
ATOM      5  N   UNL d   1      60.602  49.338  50.826  0.00  0.00    -0.101 NA
ENDROOT
BRANCH   2   6
ATOM      6  N   UNL d   1      60.960  48.142  50.060  0.00  0.00    -0.165 NA
ATOM      7  C   UNL d   1      61.000  47.378  50.343  0.00  0.00     0.282 C 
ATOM      8  O   UNL d   1      60.504  47.127  50.956  0.00  0.00    -0.265 OA
BRANCH   7   9
ATOM      9  C   UNL d   1      61.536  46.844  50.019  0.00  0.00     0.058 A 
ATOM     10  C   UNL d   1      62.206  47.127  49.633  0.00  0.00     0.005 A 
ATOM     11  C   UNL d   1      62.752  46.597  49.304  0.00  0.00     0.000 A 
ATOM     12  C   UNL d   1      62.620  45.782  49.368  0.00  0.00     0.000 A 
ATOM     13  C   UNL d   1      61.946  45.505  49.757  0.00  0.00     0.000 A 
ATOM     14  C   UNL d   1      63.151  45.241  49.048  0.00  0.00     0.000 C 
ATOM     15  C   UNL d   1      61.403  46.034  50.084  0.00  0.00     0.005 A 
ENDBRANCH   7   9
ENDBRANCH   2   6
BRANCH   1  16
ATOM     16  C   UNL d   1      58.471  49.442  50.780  0.00  0.00     0.143 A 
ATOM     17  O   UNL d   1      58.049  49.524  51.479  0.00  0.00    -0.301 OA
ATOM     18  C   UNL d   1      57.267  49.688  51.286  0.00  0.00     0.123 A 
ATOM     19  C   UNL d   1      57.203  49.708  50.461  0.00  0.00     0.029 A 
ATOM     20  C   UNL d   1      57.946  49.556  50.147  0.00  0.00     0.030 A 
ENDBRANCH   1  16
TORSDOF 3
ENDMDL
