MODEL 1
REMARK VINA RESULT:      -7.6      0.000      0.000
REMARK  4 active torsions:
REMARK  status: ('A' for Active; 'I' for Inactive)
REMARK    1  A    between atoms: C_2  and  C_1 
REMARK    2  A    between atoms: C_4  and  C_2 
REMARK    3  A    between atoms: N_6  and  C_2 
REMARK    4  A    between atoms: C_8  and  N_6 
ROOT
ATOM      1  C   UNL d   1     -48.873  13.428  22.780  0.00  0.00     0.088 C 
ENDROOT
BRANCH   1   2
ATOM      2  C   UNL d   1     -48.059  13.273  22.869  0.00  0.00     0.058 A 
ATOM      3  C   UNL d   1     -47.550  13.335  22.208  0.00  0.00     0.214 A 
ATOM      4  C   UNL d   1     -46.743  13.181  22.300  0.00  0.00     0.120 A 
ATOM      5  O   UNL d   1     -47.856  13.552  21.464  0.00  0.00    -0.285 OA
ATOM      6  N   UNL d   1     -46.253  13.244  21.646  0.00  0.00    -0.241 NA
ATOM      7  C   UNL d   1     -46.440  12.966  23.036  0.00  0.00     0.021 A 
ATOM      8  C   UNL d   1     -45.435  13.089  21.733  0.00  0.00     0.099 A 
ATOM      9  C   UNL d   1     -45.131  12.874  22.470  0.00  0.00     0.021 A 
ATOM     10  C   UNL d   1     -45.641  12.813  23.130  0.00  0.00     0.003 A 
ATOM     11  C   UNL d   1     -46.938  12.904  23.691  0.00  0.00     0.002 A 
ATOM     12  C   UNL d   1     -47.755  13.059  23.605  0.00  0.00     0.005 A 
ENDBRANCH   1   2
BRANCH   1  13
ATOM     13  C   UNL d   1     -49.426  12.806  22.864  0.00  0.00     0.045 A 
ATOM     14  C   UNL d   1     -49.775  12.484  22.189  0.00  0.00     0.141 A 
ATOM     15  F   UNL d   1     -49.730  12.611  21.392  0.00  0.00    -0.204 F 
ATOM     16  C   UNL d   1     -50.323  11.868  22.269  0.00  0.00     0.030 A 
ATOM     17  C   UNL d   1     -50.510  11.587  23.023  0.00  0.00     0.002 A 
ATOM     18  C   UNL d   1     -50.161  11.910  23.697  0.00  0.00     0.000 A 
ATOM     19  C   UNL d   1     -49.608  12.532  23.614  0.00  0.00     0.004 A 
ENDBRANCH   1  13
BRANCH   1  20
ATOM     20  N   UNL d   1     -49.136  14.200  22.610  0.00  0.00    -0.227 NA
BRANCH  20  21
ATOM     21  C   UNL d   1     -49.466  14.770  22.846  0.00  0.00     0.162 A 
ATOM     22  N   UNL d   1     -49.257  15.063  23.454  0.00  0.00    -0.225 NA
ATOM     23  C   UNL d   1     -49.587  15.638  23.696  0.00  0.00     0.101 A 
ATOM     24  C   UNL d   1     -50.117  15.915  23.338  0.00  0.00     0.021 A 
ATOM     25  C   UNL d   1     -50.322  15.620  22.733  0.00  0.00     0.005 A 
ATOM     26  C   UNL d   1     -49.992  15.045  22.490  0.00  0.00     0.039 A 
ENDBRANCH  20  21
ENDBRANCH   1  20
TORSDOF 4
ENDMDL
MODEL 2
REMARK VINA RESULT:      -7.3      0.846      2.338
REMARK  4 active torsions:
REMARK  status: ('A' for Active; 'I' for Inactive)
REMARK    1  A    between atoms: C_2  and  C_1 
REMARK    2  A    between atoms: C_4  and  C_2 
REMARK    3  A    between atoms: N_6  and  C_2 
REMARK    4  A    between atoms: C_8  and  N_6 
ROOT
ATOM      1  C   UNL d   1     -48.743  13.432  22.659  0.00  0.00     0.088 C 
ENDROOT
BRANCH   1   2
ATOM      2  C   UNL d   1     -47.911  13.412  22.700  0.00  0.00     0.058 A 
ATOM      3  C   UNL d   1     -47.468  13.168  22.033  0.00  0.00     0.214 A 
ATOM      4  C   UNL d   1     -46.643  13.150  22.077  0.00  0.00     0.120 A 
ATOM      5  O   UNL d   1     -47.859  12.946  21.331  0.00  0.00    -0.285 OA
ATOM      6  N   UNL d   1     -46.218  12.910  21.419  0.00  0.00    -0.241 NA
ATOM      7  C   UNL d   1     -46.257  13.370  22.772  0.00  0.00     0.021 A 
ATOM      8  C   UNL d   1     -45.382  12.889  21.458  0.00  0.00     0.099 A 
ATOM      9  C   UNL d   1     -44.995  13.109  22.153  0.00  0.00     0.021 A 
ATOM     10  C   UNL d   1     -45.439  13.353  22.819  0.00  0.00     0.003 A 
ATOM     11  C   UNL d   1     -46.689  13.611  23.433  0.00  0.00     0.002 A 
ATOM     12  C   UNL d   1     -47.524  13.632  23.394  0.00  0.00     0.005 A 
ENDBRANCH   1   2
BRANCH   1  13
ATOM     13  C   UNL d   1     -49.141  14.168  22.647  0.00  0.00     0.045 A 
ATOM     14  C   UNL d   1     -49.488  14.427  21.944  0.00  0.00     0.141 A 
ATOM     15  F   UNL d   1     -49.560  14.144  21.191  0.00  0.00    -0.204 F 
ATOM     16  C   UNL d   1     -49.883  15.155  21.929  0.00  0.00     0.030 A 
ATOM     17  C   UNL d   1     -49.921  15.609  22.618  0.00  0.00     0.002 A 
ATOM     18  C   UNL d   1     -49.574  15.350  23.321  0.00  0.00     0.000 A 
ATOM     19  C   UNL d   1     -49.177  14.614  23.333  0.00  0.00     0.004 A 
ENDBRANCH   1  13
BRANCH   1  20
ATOM     20  N   UNL d   1     -49.178  12.722  22.631  0.00  0.00    -0.227 NA
BRANCH  20  21
ATOM     21  C   UNL d   1     -49.563  12.260  22.987  0.00  0.00     0.162 A 
ATOM     22  N   UNL d   1     -50.266  12.321  22.986  0.00  0.00    -0.225 NA
ATOM     23  C   UNL d   1     -50.659  11.857  23.344  0.00  0.00     0.101 A 
ATOM     24  C   UNL d   1     -50.354  11.340  23.698  0.00  0.00     0.021 A 
ATOM     25  C   UNL d   1     -49.653  11.281  23.697  0.00  0.00     0.005 A 
ATOM     26  C   UNL d   1     -49.260  11.746  23.339  0.00  0.00     0.039 A 
ENDBRANCH  20  21
ENDBRANCH   1  20
TORSDOF 4
ENDMDL
MODEL 3
REMARK VINA RESULT:      -6.3      9.353     10.567
REMARK  4 active torsions:
REMARK  status: ('A' for Active; 'I' for Inactive)
REMARK    1  A    between atoms: C_2  and  C_1 
REMARK    2  A    between atoms: C_4  and  C_2 
REMARK    3  A    between atoms: N_6  and  C_2 
REMARK    4  A    between atoms: C_8  and  N_6 
ROOT
ATOM      1  C   UNL d   1     -39.416  14.447  18.493  0.00  0.00     0.088 C 
ENDROOT
BRANCH   1   2
ATOM      2  C   UNL d   1     -39.137  14.818  19.185  0.00  0.00     0.058 A 
ATOM      3  C   UNL d   1     -39.535  14.698  19.911  0.00  0.00     0.214 A 
ATOM      4  C   UNL d   1     -39.254  15.068  20.595  0.00  0.00     0.120 A 
ATOM      5  O   UNL d   1     -40.208  14.209  19.942  0.00  0.00    -0.285 OA
ATOM      6  N   UNL d   1     -39.651  14.944  21.301  0.00  0.00    -0.241 NA
ATOM      7  C   UNL d   1     -38.587  15.553  20.564  0.00  0.00     0.021 A 
ATOM      8  C   UNL d   1     -39.371  15.316  21.997  0.00  0.00     0.099 A 
ATOM      9  C   UNL d   1     -38.704  15.801  21.967  0.00  0.00     0.021 A 
ATOM     10  C   UNL d   1     -38.307  15.920  21.240  0.00  0.00     0.003 A 
ATOM     11  C   UNL d   1     -38.191  15.674  19.850  0.00  0.00     0.002 A 
ATOM     12  C   UNL d   1     -38.470  15.303  19.155  0.00  0.00     0.005 A 
ENDBRANCH   1   2
BRANCH   1  13
ATOM     13  C   UNL d   1     -39.855  14.888  17.933  0.00  0.00     0.045 A 
ATOM     14  C   UNL d   1     -40.653  14.714  17.820  0.00  0.00     0.141 A 
ATOM     15  F   UNL d   1     -41.185  14.188  18.127  0.00  0.00    -0.204 F 
ATOM     16  C   UNL d   1     -41.091  15.149  17.266  0.00  0.00     0.030 A 
ATOM     17  C   UNL d   1     -40.718  15.748  16.838  0.00  0.00     0.002 A 
ATOM     18  C   UNL d   1     -39.919  15.922  16.951  0.00  0.00     0.000 A 
ATOM     19  C   UNL d   1     -39.481  15.481  17.511  0.00  0.00     0.004 A 
ENDBRANCH   1  13
BRANCH   1  20
ATOM     20  N   UNL d   1     -39.260  13.640  18.359  0.00  0.00    -0.227 NA
BRANCH  20  21
ATOM     21  C   UNL d   1     -38.822  13.169  18.085  0.00  0.00     0.162 A 
ATOM     22  N   UNL d   1     -38.549  12.668  18.500  0.00  0.00    -0.225 NA
ATOM     23  C   UNL d   1     -38.106  12.190  18.228  0.00  0.00     0.101 A 
ATOM     24  C   UNL d   1     -37.940  12.213  17.551  0.00  0.00     0.021 A 
ATOM     25  C   UNL d   1     -38.214  12.713  17.140  0.00  0.00     0.005 A 
ATOM     26  C   UNL d   1     -38.656  13.191  17.412  0.00  0.00     0.039 A 
ENDBRANCH  20  21
ENDBRANCH   1  20
TORSDOF 4
ENDMDL
MODEL 4
REMARK VINA RESULT:      -5.9      1.214      3.416
REMARK  4 active torsions:
REMARK  status: ('A' for Active; 'I' for Inactive)
REMARK    1  A    between atoms: C_2  and  C_1 
REMARK    2  A    between atoms: C_4  and  C_2 
REMARK    3  A    between atoms: N_6  and  C_2 
REMARK    4  A    between atoms: C_8  and  N_6 
ROOT
ATOM      1  C   UNL d   1     -48.161  13.092  22.584  0.00  0.00     0.088 C 
ENDROOT
BRANCH   1   2
ATOM      2  C   UNL d   1     -48.777  13.629  22.752  0.00  0.00     0.058 A 
ATOM      3  C   UNL d   1     -49.237  13.942  22.128  0.00  0.00     0.214 A 
ATOM      4  C   UNL d   1     -49.846  14.473  22.299  0.00  0.00     0.120 A 
ATOM      5  O   UNL d   1     -49.081  13.717  21.341  0.00  0.00    -0.285 OA
ATOM      6  N   UNL d   1     -50.292  14.774  21.681  0.00  0.00    -0.241 NA
ATOM      7  C   UNL d   1     -50.000  14.696  23.078  0.00  0.00     0.021 A 
ATOM      8  C   UNL d   1     -50.910  15.314  21.848  0.00  0.00     0.099 A 
ATOM      9  C   UNL d   1     -51.064  15.536  22.627  0.00  0.00     0.021 A 
ATOM     10  C   UNL d   1     -50.603  15.222  23.251  0.00  0.00     0.003 A 
ATOM     11  C   UNL d   1     -49.549  14.390  23.698  0.00  0.00     0.002 A 
ATOM     12  C   UNL d   1     -48.931  13.851  23.532  0.00  0.00     0.005 A 
ENDBRANCH   1   2
BRANCH   1  13
ATOM     13  C   UNL d   1     -48.258  12.280  22.762  0.00  0.00     0.045 A 
ATOM     14  C   UNL d   1     -48.514  11.766  22.170  0.00  0.00     0.141 A 
ATOM     15  F   UNL d   1     -48.719  11.829  21.391  0.00  0.00    -0.204 F 
ATOM     16  C   UNL d   1     -48.611  10.961  22.343  0.00  0.00     0.030 A 
ATOM     17  C   UNL d   1     -48.449  10.689  23.106  0.00  0.00     0.002 A 
ATOM     18  C   UNL d   1     -48.192  11.203  23.698  0.00  0.00     0.000 A 
ATOM     19  C   UNL d   1     -48.096  12.015  23.520  0.00  0.00     0.004 A 
ENDBRANCH   1  13
BRANCH   1  20
ATOM     20  N   UNL d   1     -47.452  13.362  22.240  0.00  0.00    -0.227 NA
BRANCH  20  21
ATOM     21  C   UNL d   1     -46.782  13.533  22.344  0.00  0.00     0.162 A 
ATOM     22  N   UNL d   1     -46.287  13.267  21.917  0.00  0.00    -0.225 NA
ATOM     23  C   UNL d   1     -45.610  13.438  22.018  0.00  0.00     0.101 A 
ATOM     24  C   UNL d   1     -45.430  13.867  22.536  0.00  0.00     0.021 A 
ATOM     25  C   UNL d   1     -45.926  14.130  22.960  0.00  0.00     0.005 A 
ATOM     26  C   UNL d   1     -46.604  13.960  22.859  0.00  0.00     0.039 A 
ENDBRANCH  20  21
ENDBRANCH   1  20
TORSDOF 4
ENDMDL
MODEL 5
REMARK VINA RESULT:      -5.6      1.691      4.257
REMARK  4 active torsions:
REMARK  status: ('A' for Active; 'I' for Inactive)
REMARK    1  A    between atoms: C_2  and  C_1 
REMARK    2  A    between atoms: C_4  and  C_2 
REMARK    3  A    between atoms: N_6  and  C_2 
REMARK    4  A    between atoms: C_8  and  N_6 
ROOT
ATOM      1  C   UNL d   1     -47.298  12.861  22.893  0.00  0.00     0.088 C 
ENDROOT
BRANCH   1   2
ATOM      2  C   UNL d   1     -48.039  12.854  22.510  0.00  0.00     0.058 A 
ATOM      3  C   UNL d   1     -48.718  13.127  22.915  0.00  0.00     0.214 A 
ATOM      4  C   UNL d   1     -49.450  13.119  22.531  0.00  0.00     0.120 A 
ATOM      5  O   UNL d   1     -48.655  13.404  23.698  0.00  0.00    -0.285 OA
ATOM      6  N   UNL d   1     -50.110  13.387  22.936  0.00  0.00    -0.241 NA
ATOM      7  C   UNL d   1     -49.513  12.844  21.756  0.00  0.00     0.021 A 
ATOM      8  C   UNL d   1     -50.855  13.382  22.552  0.00  0.00     0.099 A 
ATOM      9  C   UNL d   1     -50.918  13.108  21.777  0.00  0.00     0.021 A 
ATOM     10  C   UNL d   1     -50.237  12.835  21.373  0.00  0.00     0.003 A 
ATOM     11  C   UNL d   1     -48.845  12.574  21.352  0.00  0.00     0.002 A 
ATOM     12  C   UNL d   1     -48.102  12.580  21.734  0.00  0.00     0.005 A 
ENDBRANCH   1   2
BRANCH   1  13
ATOM     13  C   UNL d   1     -46.759  13.482  22.743  0.00  0.00     0.045 A 
ATOM     14  C   UNL d   1     -46.282  13.448  22.071  0.00  0.00     0.141 A 
ATOM     15  F   UNL d   1     -46.179  12.936  21.454  0.00  0.00    -0.204 F 
ATOM     16  C   UNL d   1     -45.746  14.063  21.920  0.00  0.00     0.030 A 
ATOM     17  C   UNL d   1     -45.700  14.697  22.446  0.00  0.00     0.002 A 
ATOM     18  C   UNL d   1     -46.176  14.730  23.119  0.00  0.00     0.000 A 
ATOM     19  C   UNL d   1     -46.716  14.109  23.269  0.00  0.00     0.004 A 
ENDBRANCH   1  13
BRANCH   1  20
ATOM     20  N   UNL d   1     -47.096  12.251  23.423  0.00  0.00    -0.227 NA
BRANCH  20  21
ATOM     21  C   UNL d   1     -46.759  11.645  23.514  0.00  0.00     0.162 A 
ATOM     22  N   UNL d   1     -46.059  11.649  23.606  0.00  0.00    -0.225 NA
ATOM     23  C   UNL d   1     -45.715  11.039  23.697  0.00  0.00     0.101 A 
ATOM     24  C   UNL d   1     -46.065  10.436  23.697  0.00  0.00     0.021 A 
ATOM     25  C   UNL d   1     -46.763  10.436  23.606  0.00  0.00     0.005 A 
ATOM     26  C   UNL d   1     -47.107  11.045  23.514  0.00  0.00     0.039 A 
ENDBRANCH  20  21
ENDBRANCH   1  20
TORSDOF 4
ENDMDL
MODEL 6
REMARK VINA RESULT:      -4.7      9.184     10.305
REMARK  4 active torsions:
REMARK  status: ('A' for Active; 'I' for Inactive)
REMARK    1  A    between atoms: C_2  and  C_1 
REMARK    2  A    between atoms: C_4  and  C_2 
REMARK    3  A    between atoms: N_6  and  C_2 
REMARK    4  A    between atoms: C_8  and  N_6 
ROOT
ATOM      1  C   UNL d   1     -39.557  14.760  18.088  0.00  0.00     0.088 C 
ENDROOT
BRANCH   1   2
ATOM      2  C   UNL d   1     -39.639  14.772  18.918  0.00  0.00     0.058 A 
ATOM      3  C   UNL d   1     -39.223  15.340  19.369  0.00  0.00     0.214 A 
ATOM      4  C   UNL d   1     -39.307  15.348  20.191  0.00  0.00     0.120 A 
ATOM      5  O   UNL d   1     -38.729  15.893  18.989  0.00  0.00    -0.285 OA
ATOM      6  N   UNL d   1     -38.895  15.909  20.624  0.00  0.00    -0.241 NA
ATOM      7  C   UNL d   1     -39.796  14.800  20.566  0.00  0.00     0.021 A 
ATOM      8  C   UNL d   1     -38.976  15.922  21.457  0.00  0.00     0.099 A 
ATOM      9  C   UNL d   1     -39.466  15.374  21.833  0.00  0.00     0.021 A 
ATOM     10  C   UNL d   1     -39.881  14.806  21.381  0.00  0.00     0.003 A 
ATOM     11  C   UNL d   1     -40.209  14.237  20.126  0.00  0.00     0.002 A 
ATOM     12  C   UNL d   1     -40.128  14.224  19.294  0.00  0.00     0.005 A 
ENDBRANCH   1   2
BRANCH   1  13
ATOM     13  C   UNL d   1     -39.110  14.155  17.723  0.00  0.00     0.045 A 
ATOM     14  C   UNL d   1     -38.385  14.343  17.377  0.00  0.00     0.141 A 
ATOM     15  F   UNL d   1     -37.940  15.010  17.282  0.00  0.00    -0.204 F 
ATOM     16  C   UNL d   1     -37.939  13.745  17.015  0.00  0.00     0.030 A 
ATOM     17  C   UNL d   1     -38.231  12.972  17.006  0.00  0.00     0.002 A 
ATOM     18  C   UNL d   1     -38.956  12.785  17.352  0.00  0.00     0.000 A 
ATOM     19  C   UNL d   1     -39.403  13.390  17.717  0.00  0.00     0.004 A 
ENDBRANCH   1  13
BRANCH   1  20
ATOM     20  N   UNL d   1     -39.919  15.350  17.624  0.00  0.00    -0.227 NA
BRANCH  20  21
ATOM     21  C   UNL d   1     -40.480  15.534  17.249  0.00  0.00     0.162 A 
ATOM     22  N   UNL d   1     -41.119  15.511  17.547  0.00  0.00    -0.225 NA
ATOM     23  C   UNL d   1     -41.687  15.696  17.172  0.00  0.00     0.101 A 
ATOM     24  C   UNL d   1     -41.618  15.900  16.509  0.00  0.00     0.021 A 
ATOM     25  C   UNL d   1     -40.979  15.922  16.214  0.00  0.00     0.005 A 
ATOM     26  C   UNL d   1     -40.411  15.737  16.590  0.00  0.00     0.039 A 
ENDBRANCH  20  21
ENDBRANCH   1  20
TORSDOF 4
ENDMDL
