MODEL 1
REMARK VINA RESULT:      10.0      0.000      0.000
REMARK  5 active torsions:
REMARK  status: ('A' for Active; 'I' for Inactive)
REMARK       I    between atoms: C_3  and  N_1 
REMARK    1  A    between atoms: C_5  and  N_1 
REMARK    2  A    between atoms: C_2  and  C_3 
REMARK    3  A    between atoms: N_10  and  C_5 
REMARK    4  A    between atoms: C_13  and  N_10 
REMARK    5  A    between atoms: C_14  and  C_13 
ROOT
ATOM      1  C   UNL d   1      45.766 -16.302  44.135  0.00  0.00     0.224 C 
ATOM      2  S   UNL d   1      45.428 -16.572  44.840  0.00  0.00    -0.037 SA
ENDROOT
BRANCH   1   3
ATOM      3  N   UNL d   1      45.945 -16.837  43.536  0.00  0.00    -0.177 NA
ATOM      4  C   UNL d   1      46.147 -17.618  43.730  0.00  0.00     0.304 C 
ATOM      5  O   UNL d   1      46.168 -17.855  44.509  0.00  0.00    -0.263 OA
BRANCH   4   6
ATOM      6  C   UNL d   1      46.325 -18.153  43.131  0.00  0.00     0.158 A 
ATOM      7  O   UNL d   1      46.358 -17.988  42.325  0.00  0.00    -0.296 OA
ATOM      8  C   UNL d   1      46.553 -18.669  41.927  0.00  0.00     0.134 A 
ATOM      9 BR   UNL d   1      46.645 -18.751  41.118  0.00  0.00    -0.022 Br
ATOM     10  C   UNL d   1      46.644 -19.266  42.483  0.00  0.00     0.034 A 
ATOM     11  C   UNL d   1      46.502 -18.945  43.235  0.00  0.00     0.032 A 
ENDBRANCH   4   6
ENDBRANCH   1   3
BRANCH   1  12
ATOM     12  N   UNL d   1      45.920 -15.502  44.040  0.00  0.00    -0.216 NA
BRANCH  12  13
ATOM     13  C   UNL d   1      45.413 -14.954  44.366  0.00  0.00     0.101 C 
BRANCH  13  14
ATOM     14  C   UNL d   1      45.585 -14.154  44.301  0.00  0.00     0.019 A 
ATOM     15  C   UNL d   1      45.881 -13.737  44.948  0.00  0.00     0.002 A 
ATOM     16  C   UNL d   1      46.052 -12.933  44.876  0.00  0.00     0.000 A 
ATOM     17  C   UNL d   1      45.927 -12.546  44.156  0.00  0.00     0.000 A 
ATOM     18  C   UNL d   1      45.630 -12.963  43.509  0.00  0.00     0.000 A 
ATOM     19  C   UNL d   1      45.459 -13.767  43.581  0.00  0.00     0.002 A 
ENDBRANCH  13  14
ENDBRANCH  12  13
ENDBRANCH   1  12
TORSDOF 5
ENDMDL
