MODEL 1
REMARK VINA RESULT:      66.0      0.000      0.000
REMARK  5 active torsions:
REMARK  status: ('A' for Active; 'I' for Inactive)
REMARK    1  A    between atoms: O_8  and  S_1 
REMARK    2  A    between atoms: C_13  and  S_1 
REMARK    3  A    between atoms: C_7  and  C_2 
REMARK    4  A    between atoms: C_18  and  C_7 
REMARK    5  A    between atoms: C_14  and  O_8 
ROOT
ATOM      1  C   UNL d   1     -47.869  29.987  35.228  0.00  0.00     0.139 A 
ATOM      2  C   UNL d   1     -48.409  28.773  35.191  0.00  0.00     0.064 A 
ATOM      3  C   UNL d   1     -48.140  29.363  35.695  0.00  0.00     0.220 A 
ATOM      4  C   UNL d   1     -48.307  29.026  34.412  0.00  0.00     0.105 A 
ATOM      5  O   UNL d   1     -47.972  29.780  34.436  0.00  0.00    -0.304 OA
ATOM      6  C   UNL d   1     -48.531  28.540  33.797  0.00  0.00     0.050 A 
ATOM      7  C   UNL d   1     -48.736  28.032  35.344  0.00  0.00     0.007 A 
ATOM      8  C   UNL d   1     -48.858  27.800  33.951  0.00  0.00     0.116 A 
ATOM      9  O   UNL d   1     -48.137  29.345  36.520  0.00  0.00    -0.284 OA
ATOM     10  C   UNL d   1     -48.959  27.549  34.722  0.00  0.00     0.026 A 
ENDROOT
BRANCH   8  11
ATOM     11  O   UNL d   1     -49.083  27.313  33.327  0.00  0.00    -0.227 OA
BRANCH  11  12
ATOM     12  S   UNL d   1     -49.826  26.955  33.328  0.00  0.00     0.304 S 
ATOM     13  O   UNL d   1     -50.190  27.681  33.339  0.00  0.00    -0.193 OA
ATOM     14  O   UNL d   1     -49.474  26.223  33.318  0.00  0.00    -0.193 OA
BRANCH  12  15
ATOM     15  C   UNL d   1     -50.568  26.593  33.330  0.00  0.00     0.111 A 
ATOM     16  C   UNL d   1     -51.257  27.056  33.356  0.00  0.00     0.013 A 
ATOM     17  C   UNL d   1     -51.999  26.695  33.358  0.00  0.00     0.001 A 
ATOM     18  C   UNL d   1     -52.059  25.867  33.334  0.00  0.00     0.000 A 
ATOM     19  C   UNL d   1     -51.368  25.410  33.308  0.00  0.00     0.001 A 
ATOM     20  C   UNL d   1     -50.628  25.775  33.307  0.00  0.00     0.013 A 
ENDBRANCH  12  15
ENDBRANCH  11  12
ENDBRANCH   8  11
BRANCH   1  21
ATOM     21  C   UNL d   1     -47.550  30.698  35.500  0.00  0.00     0.029 C 
BRANCH  21  22
ATOM     22  C   UNL d   1     -47.614  31.389  35.049  0.00  0.00     0.021 A 
ATOM     23  C   UNL d   1     -46.965  31.884  34.981  0.00  0.00     0.099 A 
ATOM     24  N   UNL d   1     -47.014  32.571  34.537  0.00  0.00    -0.242 NA
ATOM     25  C   UNL d   1     -47.729  32.766  34.154  0.00  0.00     0.099 A 
ATOM     26  C   UNL d   1     -48.382  32.264  34.226  0.00  0.00     0.021 A 
ATOM     27  C   UNL d   1     -48.317  31.573  34.677  0.00  0.00     0.003 A 
ENDBRANCH  21  22
ENDBRANCH   1  21
TORSDOF 5
ENDMDL
MODEL 2
REMARK VINA RESULT:      66.9      2.399      5.963
REMARK  5 active torsions:
REMARK  status: ('A' for Active; 'I' for Inactive)
REMARK    1  A    between atoms: O_8  and  S_1 
REMARK    2  A    between atoms: C_13  and  S_1 
REMARK    3  A    between atoms: C_7  and  C_2 
REMARK    4  A    between atoms: C_18  and  C_7 
REMARK    5  A    between atoms: C_14  and  O_8 
ROOT
ATOM      1  C   UNL d   1     -50.644  24.835  33.453  0.00  0.00     0.139 A 
ATOM      2  C   UNL d   1     -49.691  25.743  33.641  0.00  0.00     0.064 A 
ATOM      3  C   UNL d   1     -49.827  24.947  33.486  0.00  0.00     0.220 A 
ATOM      4  C   UNL d   1     -50.419  26.127  33.705  0.00  0.00     0.105 A 
ATOM      5  O   UNL d   1     -51.010  25.562  33.589  0.00  0.00    -0.304 OA
ATOM      6  C   UNL d   1     -50.442  26.927  33.859  0.00  0.00     0.050 A 
ATOM      7  C   UNL d   1     -48.992  26.168  33.732  0.00  0.00     0.007 A 
ATOM      8  C   UNL d   1     -49.743  27.352  33.949  0.00  0.00     0.116 A 
ATOM      9  O   UNL d   1     -49.258  24.360  33.380  0.00  0.00    -0.284 OA
ATOM     10  C   UNL d   1     -49.022  26.972  33.886  0.00  0.00     0.026 A 
ENDROOT
BRANCH   8  11
ATOM     11  O   UNL d   1     -49.771  28.159  34.104  0.00  0.00    -0.227 OA
BRANCH  11  12
ATOM     12  S   UNL d   1     -49.135  28.531  34.476  0.00  0.00     0.304 S 
ATOM     13  O   UNL d   1     -49.073  27.922  35.009  0.00  0.00    -0.193 OA
ATOM     14  O   UNL d   1     -49.186  29.147  33.947  0.00  0.00    -0.193 OA
BRANCH  12  15
ATOM     15  C   UNL d   1     -48.498  28.907  34.844  0.00  0.00     0.111 A 
ATOM     16  C   UNL d   1     -48.572  29.694  35.102  0.00  0.00     0.013 A 
ATOM     17  C   UNL d   1     -47.937  30.070  35.470  0.00  0.00     0.001 A 
ATOM     18  C   UNL d   1     -47.221  29.664  35.584  0.00  0.00     0.000 A 
ATOM     19  C   UNL d   1     -47.154  28.879  35.324  0.00  0.00     0.001 A 
ATOM     20  C   UNL d   1     -47.791  28.506  34.956  0.00  0.00     0.013 A 
ENDBRANCH  12  15
ENDBRANCH  11  12
ENDBRANCH   8  11
BRANCH   1  21
ATOM     21  C   UNL d   1     -51.033  24.121  33.311  0.00  0.00     0.029 C 
BRANCH  21  22
ATOM     22  C   UNL d   1     -51.854  24.063  33.405  0.00  0.00     0.021 A 
ATOM     23  C   UNL d   1     -52.316  24.732  33.306  0.00  0.00     0.099 A 
ATOM     24  N   UNL d   1     -53.129  24.689  33.396  0.00  0.00    -0.242 NA
ATOM     25  C   UNL d   1     -53.487  23.960  33.588  0.00  0.00     0.099 A 
ATOM     26  C   UNL d   1     -53.016  23.287  33.687  0.00  0.00     0.021 A 
ATOM     27  C   UNL d   1     -52.196  23.346  33.593  0.00  0.00     0.003 A 
ENDBRANCH  21  22
ENDBRANCH   1  21
TORSDOF 5
ENDMDL
MODEL 3
REMARK VINA RESULT:      68.4      1.737      2.881
REMARK  5 active torsions:
REMARK  status: ('A' for Active; 'I' for Inactive)
REMARK    1  A    between atoms: O_8  and  S_1 
REMARK    2  A    between atoms: C_13  and  S_1 
REMARK    3  A    between atoms: C_7  and  C_2 
REMARK    4  A    between atoms: C_18  and  C_7 
REMARK    5  A    between atoms: C_14  and  O_8 
ROOT
ATOM      1  C   UNL d   1     -48.874  28.024  33.938  0.00  0.00     0.139 A 
ATOM      2  C   UNL d   1     -49.530  26.872  33.839  0.00  0.00     0.064 A 
ATOM      3  C   UNL d   1     -48.791  27.204  33.976  0.00  0.00     0.220 A 
ATOM      4  C   UNL d   1     -50.073  27.481  33.716  0.00  0.00     0.105 A 
ATOM      5  O   UNL d   1     -49.665  28.196  33.777  0.00  0.00    -0.304 OA
ATOM      6  C   UNL d   1     -50.854  27.302  33.567  0.00  0.00     0.050 A 
ATOM      7  C   UNL d   1     -49.778  26.087  33.812  0.00  0.00     0.007 A 
ATOM      8  C   UNL d   1     -51.102  26.517  33.539  0.00  0.00     0.116 A 
ATOM      9  O   UNL d   1     -48.088  26.799  34.125  0.00  0.00    -0.284 OA
ATOM     10  C   UNL d   1     -50.565  25.914  33.661  0.00  0.00     0.026 A 
ENDROOT
BRANCH   8  11
ATOM     11  O   UNL d   1     -51.892  26.341  33.389  0.00  0.00    -0.227 OA
BRANCH  11  12
ATOM     12  S   UNL d   1     -52.145  25.557  33.378  0.00  0.00     0.304 S 
ATOM     13  O   UNL d   1     -52.919  25.792  33.450  0.00  0.00    -0.193 OA
ATOM     14  O   UNL d   1     -51.375  25.308  33.306  0.00  0.00    -0.193 OA
BRANCH  12  15
ATOM     15  C   UNL d   1     -52.395  24.769  33.367  0.00  0.00     0.111 A 
ATOM     16  C   UNL d   1     -51.835  24.156  33.379  0.00  0.00     0.013 A 
ATOM     17  C   UNL d   1     -52.083  23.369  33.367  0.00  0.00     0.001 A 
ATOM     18  C   UNL d   1     -52.893  23.188  33.344  0.00  0.00     0.000 A 
ATOM     19  C   UNL d   1     -53.447  23.805  33.332  0.00  0.00     0.001 A 
ATOM     20  C   UNL d   1     -53.195  24.590  33.344  0.00  0.00     0.013 A 
ENDBRANCH  12  15
ENDBRANCH  11  12
ENDBRANCH   8  11
BRANCH   1  21
ATOM     21  C   UNL d   1     -48.273  28.580  34.041  0.00  0.00     0.029 C 
BRANCH  21  22
ATOM     22  C   UNL d   1     -48.130  28.911  34.786  0.00  0.00     0.021 A 
ATOM     23  C   UNL d   1     -48.020  28.415  35.429  0.00  0.00     0.099 A 
ATOM     24  N   UNL d   1     -47.877  28.730  36.173  0.00  0.00    -0.242 NA
ATOM     25  C   UNL d   1     -47.843  29.557  36.274  0.00  0.00     0.099 A 
ATOM     26  C   UNL d   1     -47.955  30.053  35.621  0.00  0.00     0.021 A 
ATOM     27  C   UNL d   1     -48.098  29.722  34.877  0.00  0.00     0.003 A 
ENDBRANCH  21  22
ENDBRANCH   1  21
TORSDOF 5
ENDMDL
