MODEL 1
REMARK VINA RESULT:      -2.3      0.000      0.000
REMARK  4 active torsions:
REMARK  status: ('A' for Active; 'I' for Inactive)
REMARK    1  A    between atoms: C_2  and  C_1 
REMARK    2  A    between atoms: N_4  and  C_1 
REMARK    3  A    between atoms: O_13  and  C_5 
REMARK    4  A    between atoms: O_12  and  C_6 
ROOT
ATOM      1  C   UNL d   1      58.718  -0.298  29.728  0.00  0.00     0.031 A 
ATOM      2  C   UNL d   1      59.939  -1.275  29.202  0.00  0.00     0.138 A 
ATOM      3  C   UNL d   1      59.190  -1.597  29.353  0.00  0.00     0.118 A 
ATOM      4  C   UNL d   1      60.077  -0.465  29.315  0.00  0.00     0.118 A 
ATOM      5  C   UNL d   1      58.588  -1.105  29.614  0.00  0.00     0.029 A 
ATOM      6  C   UNL d   1      59.466   0.021  29.578  0.00  0.00     0.029 A 
ATOM      7  O   UNL d   1      60.558  -1.758  28.938  0.00  0.00    -0.324 OA
ATOM      8  C   UNL d   1      61.133  -2.278  28.679  0.00  0.00     0.182 C 
ENDROOT
BRANCH   4   9
ATOM      9  O   UNL d   1      60.824  -0.143  29.165  0.00  0.00    -0.326 OA
ATOM     10  C   UNL d   1      60.935   0.669  29.196  0.00  0.00     0.181 C 
ENDBRANCH   4   9
BRANCH   3  11
ATOM     11  O   UNL d   1      59.058  -2.416  29.237  0.00  0.00    -0.326 OA
ATOM     12  C   UNL d   1      58.285  -2.683  29.072  0.00  0.00     0.181 C 
ENDBRANCH   3  11
BRANCH   1  13
ATOM     13  C   UNL d   1      58.114   0.188  29.989  0.00  0.00     0.120 C 
ATOM     14  S   UNL d   1      57.722   0.682  29.445  0.00  0.00    -0.059 SA
BRANCH  13  15
ATOM     15  N   UNL d   1      57.896   0.186  30.791  0.00  0.00    -0.292 N 
ATOM     16  C   UNL d   1      57.308  -0.322  31.024  0.00  0.00     0.108 A 
ATOM     17  C   UNL d   1      57.071  -0.343  31.822  0.00  0.00     0.142 A 
ATOM     18  O   UNL d   1      57.432   0.149  32.371  0.00  0.00    -0.300 OA
ATOM     19  C   UNL d   1      58.029   0.663  32.127  0.00  0.00     0.142 A 
ATOM     20  C   UNL d   1      58.260   0.682  31.342  0.00  0.00     0.108 A 
ENDBRANCH  13  15
ENDBRANCH   1  13
TORSDOF 4
ENDMDL
MODEL 2
REMARK VINA RESULT:      -0.7      1.105      3.776
REMARK  4 active torsions:
REMARK  status: ('A' for Active; 'I' for Inactive)
REMARK    1  A    between atoms: C_2  and  C_1 
REMARK    2  A    between atoms: N_4  and  C_1 
REMARK    3  A    between atoms: O_13  and  C_5 
REMARK    4  A    between atoms: O_12  and  C_6 
ROOT
ATOM      1  C   UNL d   1      58.477   0.049  30.303  0.00  0.00     0.031 A 
ATOM      2  C   UNL d   1      58.243   0.362  31.906  0.00  0.00     0.138 A 
ATOM      3  C   UNL d   1      59.000   0.441  31.577  0.00  0.00     0.118 A 
ATOM      4  C   UNL d   1      57.603   0.126  31.433  0.00  0.00     0.118 A 
ATOM      5  C   UNL d   1      59.108   0.284  30.779  0.00  0.00     0.029 A 
ATOM      6  C   UNL d   1      57.722  -0.030  30.632  0.00  0.00     0.029 A 
ATOM      7  O   UNL d   1      58.116   0.517  32.709  0.00  0.00    -0.324 OA
ATOM      8  C   UNL d   1      58.045   0.682  33.507  0.00  0.00     0.182 C 
ENDROOT
BRANCH   4   9
ATOM      9  O   UNL d   1      56.848   0.047  31.760  0.00  0.00    -0.326 OA
ATOM     10  C   UNL d   1      56.461  -0.675  31.729  0.00  0.00     0.181 C 
ENDBRANCH   4   9
BRANCH   3  11
ATOM     11  O   UNL d   1      59.641   0.679  32.060  0.00  0.00    -0.326 OA
ATOM     12  C   UNL d   1      60.421   0.533  31.802  0.00  0.00     0.181 C 
ENDBRANCH   3  11
BRANCH   1  13
ATOM     13  C   UNL d   1      58.591  -0.107  29.508  0.00  0.00     0.120 C 
ATOM     14  S   UNL d   1      58.400   0.476  28.945  0.00  0.00    -0.059 SA
BRANCH  13  15
ATOM     15  N   UNL d   1      58.894  -0.842  29.268  0.00  0.00    -0.292 N 
ATOM     16  C   UNL d   1      59.694  -0.900  29.139  0.00  0.00     0.108 A 
ATOM     17  C   UNL d   1      60.023  -1.626  28.898  0.00  0.00     0.142 A 
ATOM     18  O   UNL d   1      59.539  -2.281  28.791  0.00  0.00    -0.300 OA
ATOM     19  C   UNL d   1      58.728  -2.215  28.923  0.00  0.00     0.142 A 
ATOM     20  C   UNL d   1      58.407  -1.500  29.160  0.00  0.00     0.108 A 
ENDBRANCH  13  15
ENDBRANCH   1  13
TORSDOF 4
ENDMDL
MODEL 3
REMARK VINA RESULT:       0.6      1.201      3.638
REMARK  4 active torsions:
REMARK  status: ('A' for Active; 'I' for Inactive)
REMARK    1  A    between atoms: C_2  and  C_1 
REMARK    2  A    between atoms: N_4  and  C_1 
REMARK    3  A    between atoms: O_13  and  C_5 
REMARK    4  A    between atoms: O_12  and  C_6 
ROOT
ATOM      1  C   UNL d   1      58.191   0.005  30.242  0.00  0.00     0.031 A 
ATOM      2  C   UNL d   1      57.208  -0.582  31.429  0.00  0.00     0.138 A 
ATOM      3  C   UNL d   1      57.487   0.197  31.473  0.00  0.00     0.118 A 
ATOM      4  C   UNL d   1      57.421  -1.068  30.791  0.00  0.00     0.118 A 
ATOM      5  C   UNL d   1      57.975   0.482  30.879  0.00  0.00     0.029 A 
ATOM      6  C   UNL d   1      57.912  -0.772  30.199  0.00  0.00     0.029 A 
ATOM      7  O   UNL d   1      56.714  -0.886  32.020  0.00  0.00    -0.324 OA
ATOM      8  C   UNL d   1      56.229  -1.136  32.630  0.00  0.00     0.182 C 
ENDROOT
BRANCH   4   9
ATOM      9  O   UNL d   1      57.143  -1.846  30.745  0.00  0.00    -0.326 OA
ATOM     10  C   UNL d   1      57.629  -2.439  30.456  0.00  0.00     0.181 C 
ENDBRANCH   4   9
BRANCH   3  11
ATOM     11  O   UNL d   1      57.267   0.681  32.120  0.00  0.00    -0.326 OA
ATOM     12  C   UNL d   1      57.700   0.628  32.832  0.00  0.00     0.181 C 
ENDBRANCH   3  11
BRANCH   1  13
ATOM     13  C   UNL d   1      58.679   0.294  29.652  0.00  0.00     0.120 C 
ATOM     14  S   UNL d   1      58.343   0.682  28.996  0.00  0.00    -0.059 SA
BRANCH  13  15
ATOM     15  N   UNL d   1      59.502   0.201  29.710  0.00  0.00    -0.292 N 
ATOM     16  C   UNL d   1      59.851  -0.384  29.268  0.00  0.00     0.108 A 
ATOM     17  C   UNL d   1      60.675  -0.498  29.309  0.00  0.00     0.142 A 
ATOM     18  O   UNL d   1      61.132  -0.021  29.795  0.00  0.00    -0.300 OA
ATOM     19  C   UNL d   1      60.772   0.571  30.242  0.00  0.00     0.142 A 
ATOM     20  C   UNL d   1      59.962   0.682  30.200  0.00  0.00     0.108 A 
ENDBRANCH  13  15
ENDBRANCH   1  13
TORSDOF 4
ENDMDL
