MODEL 1
REMARK VINA RESULT:      88.0      0.000      0.000
REMARK  5 active torsions:
REMARK  status: ('A' for Active; 'I' for Inactive)
REMARK    1  A    between atoms: N_7  and  C_1 
REMARK    2  A    between atoms: C_13  and  C_2 
REMARK    3  A    between atoms: N_4  and  C_9 
REMARK       I    between atoms: C_10  and  N_7 
REMARK       I    between atoms: C_15  and  N_8 
REMARK    4  A    between atoms: C_18  and  C_10 
REMARK    5  A    between atoms: O_27  and  C_13 
ROOT
ATOM      1  C   UNL d   1     -50.380  26.206  33.589  0.00  0.00     0.119 A 
ATOM      2  C   UNL d   1     -50.149  25.428  33.458  0.00  0.00     0.088 A 
ATOM      3  C   UNL d   1     -51.483  25.449  33.541  0.00  0.00     0.049 A 
ATOM      4  C   UNL d   1     -50.833  24.960  33.428  0.00  0.00     0.016 A 
ATOM      5  S   UNL d   1     -51.208  26.222  33.641  0.00  0.00    -0.066 SA
ATOM      6  N   UNL d   1     -52.358  24.324  33.425  0.00  0.00    -0.272 N 
ATOM      7  C   UNL d   1     -52.252  25.121  33.539  0.00  0.00     0.089 A 
ATOM      8  C   UNL d   1     -53.114  23.993  33.421  0.00  0.00     0.265 C 
ATOM      9  C   UNL d   1     -50.939  24.142  33.311  0.00  0.00     0.020 A 
ATOM     10  C   UNL d   1     -51.696  23.830  33.310  0.00  0.00     0.083 A 
ATOM     11  O   UNL d   1     -53.769  24.481  33.534  0.00  0.00    -0.267 OA
ATOM     12  C   UNL d   1     -53.225  23.189  33.306  0.00  0.00     0.066 C 
ENDROOT
BRANCH   1  13
ATOM     13  N   UNL d   1     -49.878  26.863  33.658  0.00  0.00    -0.201 NA
ATOM     14  C   UNL d   1     -50.206  27.618  33.750  0.00  0.00     0.280 C 
ATOM     15  O   UNL d   1     -51.023  27.725  33.775  0.00  0.00    -0.265 OA
BRANCH  14  16
ATOM     16  C   UNL d   1     -49.707  28.272  33.819  0.00  0.00     0.059 A 
ATOM     17  C   UNL d   1     -49.116  28.271  34.386  0.00  0.00     0.022 A 
ATOM     18  C   UNL d   1     -48.617  28.925  34.455  0.00  0.00     0.070 A 
ATOM     19  C   UNL d   1     -48.709  29.579  33.955  0.00  0.00     0.018 A 
ATOM     20  C   UNL d   1     -49.314  29.569  33.380  0.00  0.00     0.002 A 
ATOM     21  C   UNL d   1     -49.813  28.916  33.312  0.00  0.00     0.005 A 
BRANCH  18  22
ATOM     22  N   UNL d   1     -48.014  28.936  35.026  0.00  0.00    -0.242 N 
ATOM     23  C   UNL d   1     -47.290  28.550  35.010  0.00  0.00     0.267 A 
ATOM     24  C   UNL d   1     -46.883  28.734  35.705  0.00  0.00     0.066 A 
ATOM     25  O   UNL d   1     -47.001  28.065  34.421  0.00  0.00    -0.267 OA
ATOM     26  C   UNL d   1     -47.361  29.233  36.145  0.00  0.00     0.066 A 
ATOM     27  C   UNL d   1     -48.083  29.371  35.727  0.00  0.00     0.267 A 
ATOM     28  O   UNL d   1     -48.713  29.832  35.962  0.00  0.00    -0.267 OA
ENDBRANCH  18  22
ENDBRANCH  14  16
ENDBRANCH   1  13
BRANCH   2  29
ATOM     29  C   UNL d   1     -49.376  25.167  33.371  0.00  0.00     0.298 C 
ATOM     30  O   UNL d   1     -48.766  25.724  33.314  0.00  0.00    -0.259 OA
BRANCH  29  31
ATOM     31  O   UNL d   1     -49.210  24.353  33.343  0.00  0.00    -0.296 OA
ATOM     32  C   UNL d   1     -48.466  24.071  33.574  0.00  0.00     0.185 C 
ENDBRANCH  29  31
ENDBRANCH   2  29
TORSDOF 5
ENDMDL
