MODEL 1
REMARK VINA RESULT:      -3.2      0.000      0.000
REMARK  7 active torsions:
REMARK  status: ('A' for Active; 'I' for Inactive)
REMARK    1  A    between atoms: C_11  and  C_3 
REMARK    2  A    between atoms: N_12  and  C_7 
REMARK       I    between atoms: C_9  and  N_15 
REMARK    3  A    between atoms: C_14  and  C_9 
REMARK    4  A    between atoms: C_16  and  C_11 
REMARK    5  A    between atoms: C_17  and  N_12 
REMARK    6  A    between atoms: N_15  and  C_16 
REMARK    7  A    between atoms: C_19  and  C_17 
ROOT
ATOM      1  N   UNL d   1      32.115  17.708 -23.568  0.00  0.00    -0.190 N 
ATOM      2  C   UNL d   1      32.563  17.128 -23.184  0.00  0.00     0.187 A 
ATOM      3  C   UNL d   1      31.602  17.330 -24.107  0.00  0.00     0.188 A 
ATOM      4  N   UNL d   1      32.235  18.510 -23.372  0.00  0.00    -0.143 NA
ATOM      5  N   UNL d   1      32.324  16.389 -23.490  0.00  0.00    -0.127 NA
ATOM      6  N   UNL d   1      31.737  16.528 -24.052  0.00  0.00    -0.127 NA
ATOM      7  C   UNL d   1      32.795  18.720 -22.804  0.00  0.00     0.182 A 
ATOM      8  C   UNL d   1      33.123  17.338 -22.615  0.00  0.00     0.044 A 
ATOM      9  C   UNL d   1      33.239  18.131 -22.425  0.00  0.00     0.044 A 
ENDROOT
BRANCH   3  10
ATOM     10  C   UNL d   1      31.055  17.698 -24.607  0.00  0.00     0.061 C 
BRANCH  10  11
ATOM     11  C   UNL d   1      30.256  17.515 -24.550  0.00  0.00     0.105 C 
BRANCH  11  12
ATOM     12  N   UNL d   1      29.698  18.038 -24.863  0.00  0.00    -0.206 NA
ATOM     13  C   UNL d   1      28.890  17.869 -24.781  0.00  0.00     0.279 C 
ATOM     14  O   UNL d   1      28.333  18.396 -25.097  0.00  0.00    -0.265 OA
BRANCH  13  15
ATOM     15  C   UNL d   1      28.652  17.188 -24.390  0.00  0.00     0.058 A 
ATOM     16  C   UNL d   1      28.715  16.444 -24.757  0.00  0.00     0.005 A 
ATOM     17  C   UNL d   1      28.475  15.775 -24.359  0.00  0.00     0.000 A 
ATOM     18  C   UNL d   1      28.173  15.834 -23.601  0.00  0.00     0.000 A 
ATOM     19  C   UNL d   1      28.105  16.554 -23.230  0.00  0.00     0.000 A 
ATOM     20  C   UNL d   1      28.345  17.243 -23.623  0.00  0.00     0.005 A 
ENDBRANCH  13  15
ENDBRANCH  11  12
ENDBRANCH  10  11
ENDBRANCH   3  10
BRANCH   7  21
ATOM     21  N   UNL d   1      32.920  19.516 -22.605  0.00  0.00    -0.224 NA
BRANCH  21  22
ATOM     22  C   UNL d   1      32.483  19.842 -21.983  0.00  0.00     0.101 C 
BRANCH  22  23
ATOM     23  C   UNL d   1      32.576  20.635 -21.774  0.00  0.00     0.019 A 
ATOM     24  C   UNL d   1      32.753  21.201 -22.358  0.00  0.00     0.002 A 
ATOM     25  C   UNL d   1      32.844  21.991 -22.137  0.00  0.00     0.011 A 
ATOM     26  C   UNL d   1      32.764  22.223 -21.352  0.00  0.00     0.058 A 
ATOM     27  C   UNL d   1      32.587  21.656 -20.768  0.00  0.00     0.011 A 
ATOM     28 CL   UNL d   1      32.855  23.013 -21.131  0.00  0.00    -0.082 Cl
ATOM     29  C   UNL d   1      32.495  20.865 -20.984  0.00  0.00     0.002 A 
ENDBRANCH  22  23
ENDBRANCH  21  22
ENDBRANCH   7  21
TORSDOF 7
ENDMDL
MODEL 2
REMARK VINA RESULT:      -2.3      2.060      3.414
REMARK  7 active torsions:
REMARK  status: ('A' for Active; 'I' for Inactive)
REMARK    1  A    between atoms: C_11  and  C_3 
REMARK    2  A    between atoms: N_12  and  C_7 
REMARK       I    between atoms: C_9  and  N_15 
REMARK    3  A    between atoms: C_14  and  C_9 
REMARK    4  A    between atoms: C_16  and  C_11 
REMARK    5  A    between atoms: C_17  and  N_12 
REMARK    6  A    between atoms: N_15  and  C_16 
REMARK    7  A    between atoms: C_19  and  C_17 
ROOT
ATOM      1  N   UNL d   1      33.234  20.614 -23.139  0.00  0.00    -0.190 N 
ATOM      2  C   UNL d   1      33.237  21.145 -23.774  0.00  0.00     0.187 A 
ATOM      3  C   UNL d   1      33.231  19.838 -23.445  0.00  0.00     0.188 A 
ATOM      4  N   UNL d   1      33.235  20.913 -22.360  0.00  0.00    -0.143 NA
ATOM      5  N   UNL d   1      33.235  20.691 -24.474  0.00  0.00    -0.127 NA
ATOM      6  N   UNL d   1      33.232  19.895 -24.258  0.00  0.00    -0.127 NA
ATOM      7  C   UNL d   1      33.238  21.727 -22.226  0.00  0.00     0.182 A 
ATOM      8  C   UNL d   1      33.240  21.960 -23.640  0.00  0.00     0.044 A 
ATOM      9  C   UNL d   1      33.241  22.250 -22.870  0.00  0.00     0.044 A 
ENDROOT
BRANCH   3  10
ATOM     10  C   UNL d   1      33.229  19.136 -23.007  0.00  0.00     0.061 C 
BRANCH  10  11
ATOM     11  C   UNL d   1      32.971  18.436 -23.352  0.00  0.00     0.105 C 
BRANCH  11  12
ATOM     12  N   UNL d   1      33.198  17.715 -23.020  0.00  0.00    -0.206 NA
ATOM     13  C   UNL d   1      32.780  17.026 -23.217  0.00  0.00     0.279 C 
ATOM     14  O   UNL d   1      33.011  16.303 -22.883  0.00  0.00    -0.265 OA
BRANCH  13  15
ATOM     15  C   UNL d   1      32.147  17.066 -23.737  0.00  0.00     0.058 A 
ATOM     16  C   UNL d   1      32.255  16.927 -24.550  0.00  0.00     0.005 A 
ATOM     17  C   UNL d   1      31.618  16.970 -25.056  0.00  0.00     0.000 A 
ATOM     18  C   UNL d   1      30.874  17.149 -24.767  0.00  0.00     0.000 A 
ATOM     19  C   UNL d   1      30.753  17.287 -23.975  0.00  0.00     0.000 A 
ATOM     20  C   UNL d   1      31.392  17.247 -23.449  0.00  0.00     0.005 A 
ENDBRANCH  13  15
ENDBRANCH  11  12
ENDBRANCH  10  11
ENDBRANCH   3  10
BRANCH   7  21
ATOM     21  N   UNL d   1      33.239  22.031 -21.454  0.00  0.00    -0.224 NA
BRANCH  21  22
ATOM     22  C   UNL d   1      32.541  21.994 -21.013  0.00  0.00     0.101 C 
BRANCH  22  23
ATOM     23  C   UNL d   1      32.463  22.423 -20.313  0.00  0.00     0.019 A 
ATOM     24  C   UNL d   1      31.965  23.090 -20.286  0.00  0.00     0.002 A 
ATOM     25  C   UNL d   1      31.896  23.511 -19.580  0.00  0.00     0.011 A 
ATOM     26  C   UNL d   1      32.309  23.281 -18.907  0.00  0.00     0.058 A 
ATOM     27  C   UNL d   1      32.807  22.614 -18.934  0.00  0.00     0.011 A 
ATOM     28 CL   UNL d   1      32.240  23.702 -18.200  0.00  0.00    -0.082 Cl
ATOM     29  C   UNL d   1      32.880  22.190 -19.638  0.00  0.00     0.002 A 
ENDBRANCH  22  23
ENDBRANCH  21  22
ENDBRANCH   7  21
TORSDOF 7
ENDMDL
