MODEL 1
REMARK VINA RESULT:      -3.7      0.000      0.000
REMARK  4 active torsions:
REMARK  status: ('A' for Active; 'I' for Inactive)
REMARK    1  A    between atoms: S_4  and  C_8 
REMARK    2  A    between atoms: N_9  and  S_4 
REMARK    3  A    between atoms: C_16  and  N_9 
REMARK    4  A    between atoms: C_12  and  C_16 
ROOT
ATOM      1  C   UNL d   1      56.018  -0.355  33.571  0.00  0.00     0.339 A 
ATOM      2  N   UNL d   1      56.024  -0.693  32.824  0.00  0.00    -0.256 N 
ATOM      3  N   UNL d   1      56.615   0.215  33.605  0.00  0.00    -0.256 N 
ATOM      4  C   UNL d   1      56.633  -0.326  32.389  0.00  0.00     0.085 A 
ATOM      5  C   UNL d   1      56.995   0.233  32.874  0.00  0.00     0.085 A 
ATOM      6  C   UNL d   1      56.901  -0.437  31.606  0.00  0.00     0.033 A 
ATOM      7  C   UNL d   1      57.528   0.014  31.316  0.00  0.00     0.118 A 
ATOM      8  C   UNL d   1      57.625   0.682  32.576  0.00  0.00     0.020 A 
ATOM      9  O   UNL d   1      55.496  -0.554  34.195  0.00  0.00    -0.245 OA
ATOM     10  C   UNL d   1      57.890   0.573  31.802  0.00  0.00     0.016 A 
ATOM     11  C   UNL d   1      55.506  -1.292  32.566  0.00  0.00     0.104 C 
ATOM     12  C   UNL d   1      56.792   0.682  34.263  0.00  0.00     0.104 C 
ENDROOT
BRANCH   7  13
ATOM     13  S   UNL d   1      57.794  -0.096  30.541  0.00  0.00     0.327 S 
ATOM     14  O   UNL d   1      57.460   0.630  30.324  0.00  0.00    -0.186 OA
ATOM     15  O   UNL d   1      58.126  -0.820  30.757  0.00  0.00    -0.186 OA
BRANCH  13  16
ATOM     16  N   UNL d   1      58.058  -0.205  29.766  0.00  0.00    -0.312 NA
BRANCH  16  17
ATOM     17  C   UNL d   1      58.323  -0.314  28.991  0.00  0.00     0.200 C 
BRANCH  17  18
ATOM     18  C   UNL d   1      59.127  -0.245  28.815  0.00  0.00     0.133 A 
ATOM     19  O   UNL d   1      59.568   0.458  28.810  0.00  0.00    -0.302 OA
ATOM     20  C   UNL d   1      60.341   0.286  28.607  0.00  0.00     0.123 A 
ATOM     21  C   UNL d   1      60.390  -0.535  28.482  0.00  0.00     0.029 A 
ATOM     22  C   UNL d   1      59.642  -0.854  28.611  0.00  0.00     0.029 A 
ENDBRANCH  17  18
ENDBRANCH  16  17
ENDBRANCH  13  16
ENDBRANCH   7  13
TORSDOF 4
ENDMDL
MODEL 2
REMARK VINA RESULT:      -3.4      1.459      4.696
REMARK  4 active torsions:
REMARK  status: ('A' for Active; 'I' for Inactive)
REMARK    1  A    between atoms: S_4  and  C_8 
REMARK    2  A    between atoms: N_9  and  S_4 
REMARK    3  A    between atoms: C_16  and  N_9 
REMARK    4  A    between atoms: C_12  and  C_16 
ROOT
ATOM      1  C   UNL d   1      59.990  -1.941  28.834  0.00  0.00     0.339 A 
ATOM      2  N   UNL d   1      59.297  -2.002  29.266  0.00  0.00    -0.256 N 
ATOM      3  N   UNL d   1      60.229  -1.150  28.832  0.00  0.00    -0.256 N 
ATOM      4  C   UNL d   1      59.103  -1.238  29.537  0.00  0.00     0.085 A 
ATOM      5  C   UNL d   1      59.681  -0.715  29.267  0.00  0.00     0.085 A 
ATOM      6  C   UNL d   1      58.467  -0.957  29.999  0.00  0.00     0.033 A 
ATOM      7  C   UNL d   1      58.415  -0.155  30.185  0.00  0.00     0.118 A 
ATOM      8  C   UNL d   1      59.622   0.089  29.458  0.00  0.00     0.020 A 
ATOM      9  O   UNL d   1      60.390  -2.573  28.457  0.00  0.00    -0.245 OA
ATOM     10  C   UNL d   1      58.992   0.368  29.915  0.00  0.00     0.016 A 
ATOM     11  C   UNL d   1      58.877  -2.709  29.400  0.00  0.00     0.104 C 
ATOM     12  C   UNL d   1      60.903  -0.856  28.456  0.00  0.00     0.104 C 
ENDROOT
BRANCH   7  13
ATOM     13  S   UNL d   1      57.785   0.124  30.642  0.00  0.00     0.327 S 
ATOM     14  O   UNL d   1      58.225  -0.009  31.330  0.00  0.00    -0.186 OA
ATOM     15  O   UNL d   1      57.345   0.257  29.956  0.00  0.00    -0.186 OA
BRANCH  13  16
ATOM     16  N   UNL d   1      57.155   0.403  31.099  0.00  0.00    -0.312 NA
BRANCH  16  17
ATOM     17  C   UNL d   1      56.526   0.681  31.556  0.00  0.00     0.200 C 
BRANCH  17  18
ATOM     18  C   UNL d   1      56.259   0.244  32.203  0.00  0.00     0.133 A 
ATOM     19  O   UNL d   1      56.064  -0.563  32.202  0.00  0.00    -0.302 OA
ATOM     20  C   UNL d   1      55.824  -0.779  32.954  0.00  0.00     0.123 A 
ATOM     21  C   UNL d   1      55.867  -0.102  33.435  0.00  0.00     0.029 A 
ATOM     22  C   UNL d   1      56.135   0.522  32.968  0.00  0.00     0.029 A 
ENDBRANCH  17  18
ENDBRANCH  16  17
ENDBRANCH  13  16
ENDBRANCH   7  13
TORSDOF 4
ENDMDL
