MODEL 1
REMARK VINA RESULT:      49.9      0.000      0.000
REMARK  5 active torsions:
REMARK  status: ('A' for Active; 'I' for Inactive)
REMARK    1  A    between atoms: C_14  and  C_3 
REMARK    2  A    between atoms: C_8  and  C_4 
REMARK    3  A    between atoms: N_10  and  C_9 
REMARK    4  A    between atoms: O_21  and  C_14 
REMARK    5  A    between atoms: C_25  and  O_21 
ROOT
ATOM      1  C   UNL d   1     -51.493  24.916  33.387  0.00  0.00     0.059 A 
ATOM      2  C   UNL d   1     -51.587  24.096  33.407  0.00  0.00     0.085 A 
ATOM      3  C   UNL d   1     -50.077  24.753  33.420  0.00  0.00     0.083 A 
ATOM      4  C   UNL d   1     -50.738  25.239  33.393  0.00  0.00     0.034 A 
ATOM      5  N   UNL d   1     -50.936  23.602  33.434  0.00  0.00    -0.245 NA
ATOM      6  C   UNL d   1     -52.241  25.261  33.362  0.00  0.00     0.197 A 
ATOM      7  C   UNL d   1     -50.172  23.930  33.440  0.00  0.00     0.087 A 
ATOM      8  C   UNL d   1     -52.399  23.934  33.395  0.00  0.00     0.021 A 
ATOM      9  C   UNL d   1     -52.802  24.650  33.367  0.00  0.00     0.041 A 
ATOM     10  O   UNL d   1     -52.404  26.072  33.337  0.00  0.00    -0.286 OA
ATOM     11  C   UNL d   1     -49.511  23.438  33.467  0.00  0.00     0.021 C 
ATOM     12  C   UNL d   1     -52.828  23.219  33.406  0.00  0.00     0.002 A 
ATOM     13  C   UNL d   1     -53.631  24.666  33.350  0.00  0.00     0.003 A 
ATOM     14  C   UNL d   1     -53.649  23.238  33.388  0.00  0.00     0.000 A 
ATOM     15  C   UNL d   1     -54.052  23.952  33.361  0.00  0.00     0.000 A 
ENDROOT
BRANCH   4  16
ATOM     16  C   UNL d   1     -50.643  26.059  33.373  0.00  0.00     0.102 A 
ATOM     17  O   UNL d   1     -51.248  26.620  33.386  0.00  0.00    -0.286 OA
ATOM     18  C   UNL d   1     -50.911  27.365  33.358  0.00  0.00     0.227 A 
ATOM     19  C   UNL d   1     -50.091  27.278  33.326  0.00  0.00     0.051 A 
ATOM     20  C   UNL d   1     -49.921  26.466  33.335  0.00  0.00     0.029 A 
BRANCH  18  21
ATOM     21  N   UNL d   1     -51.313  28.091  33.359  0.00  0.00    -0.089 N 
ATOM     22  O   UNL d   1     -52.133  28.113  33.362  0.00  0.00    -0.530 OA
ATOM     23  O   UNL d   1     -50.875  28.798  33.359  0.00  0.00    -0.530 OA
ENDBRANCH  18  21
ENDBRANCH   4  16
BRANCH   3  24
ATOM     24  C   UNL d   1     -49.318  25.076  33.427  0.00  0.00     0.302 C 
ATOM     25  O   UNL d   1     -49.221  25.887  33.548  0.00  0.00    -0.259 OA
BRANCH  24  26
ATOM     26  O   UNL d   1     -48.661  24.594  33.313  0.00  0.00    -0.271 OA
BRANCH  26  27
ATOM     27  C   UNL d   1     -48.018  24.651  33.825  0.00  0.00     0.126 C 
ATOM     28  C   UNL d   1     -47.605  23.972  34.040  0.00  0.00     0.029 C 
ENDBRANCH  26  27
ENDBRANCH  24  26
ENDBRANCH   3  24
TORSDOF 5
ENDMDL
