MODEL 1
REMARK VINA RESULT:      -3.2      0.000      0.000
REMARK  7 active torsions:
REMARK  status: ('A' for Active; 'I' for Inactive)
REMARK    1  A    between atoms: C_6  and  C_1 
REMARK    2  A    between atoms: C_9  and  N_3 
REMARK    3  A    between atoms: C_11  and  C_4 
REMARK       I    between atoms: N_7  and  C_6 
REMARK    4  A    between atoms: C_15  and  N_7 
REMARK    5  A    between atoms: C_8  and  C_10 
REMARK    6  A    between atoms: O_18  and  C_8 
REMARK    7  A    between atoms: C_27  and  O_18 
ROOT
ATOM      1  C   UNL d   1     -39.524  14.779  19.884  0.00  0.00     0.096 A 
ATOM      2  N   UNL d   1     -38.342  15.576  19.900  0.00  0.00    -0.165 NA
ATOM      3  N   UNL d   1     -38.879  15.128  18.661  0.00  0.00    -0.228 N 
ATOM      4  C   UNL d   1     -38.948  15.197  20.306  0.00  0.00     0.108 A 
ATOM      5  C   UNL d   1     -39.483  14.749  19.062  0.00  0.00     0.107 A 
ENDROOT
BRANCH   1   6
ATOM      6  C   UNL d   1     -40.130  14.400  20.286  0.00  0.00     0.282 C 
ATOM      7  N   UNL d   1     -40.944  14.521  20.054  0.00  0.00    -0.208 NA
ATOM      8  O   UNL d   1     -39.956  13.901  20.914  0.00  0.00    -0.265 OA
BRANCH   7   9
ATOM      9  C   UNL d   1     -41.566  14.128  20.470  0.00  0.00     0.085 A 
ATOM     10  C   UNL d   1     -42.108  14.564  20.944  0.00  0.00     0.019 A 
ATOM     11  C   UNL d   1     -42.729  14.170  21.359  0.00  0.00     0.007 A 
ATOM     12  C   UNL d   1     -42.807  13.326  21.300  0.00  0.00     0.064 A 
ATOM     13  C   UNL d   1     -42.262  12.894  20.825  0.00  0.00     0.007 A 
ATOM     14  C   UNL d   1     -41.643  13.294  20.412  0.00  0.00     0.019 A 
BRANCH  12  15
ATOM     15  C   UNL d   1     -43.431  12.924  21.716  0.00  0.00     0.300 C 
ATOM     16  O   UNL d   1     -43.296  12.152  22.043  0.00  0.00    -0.259 OA
BRANCH  15  17
ATOM     17  O   UNL d   1     -44.190  13.292  21.806  0.00  0.00    -0.271 OA
BRANCH  17  18
ATOM     18  C   UNL d   1     -44.849  12.843  22.081  0.00  0.00     0.126 C 
ATOM     19  C   UNL d   1     -45.561  13.230  22.292  0.00  0.00     0.029 C 
ENDBRANCH  17  18
ENDBRANCH  15  17
ENDBRANCH  12  15
ENDBRANCH   7   9
ENDBRANCH   1   6
BRANCH   4  20
ATOM     20  C   UNL d   1     -38.980  15.233  21.114  0.00  0.00     0.023 A 
ATOM     21  C   UNL d   1     -39.318  15.881  21.488  0.00  0.00     0.022 A 
ATOM     22  C   UNL d   1     -39.353  15.922  22.306  0.00  0.00     0.099 A 
ATOM     23  N   UNL d   1     -39.044  15.302  22.758  0.00  0.00    -0.242 NA
ATOM     24  C   UNL d   1     -38.706  14.651  22.390  0.00  0.00     0.099 A 
ATOM     25  C   UNL d   1     -38.674  14.617  21.568  0.00  0.00     0.022 A 
ENDBRANCH   4  20
BRANCH   3  26
ATOM     26  C   UNL d   1     -38.669  15.213  17.873  0.00  0.00     0.083 A 
ATOM     27  C   UNL d   1     -38.977  15.836  17.439  0.00  0.00     0.019 A 
ATOM     28  C   UNL d   1     -38.766  15.920  16.651  0.00  0.00     0.002 A 
ATOM     29  C   UNL d   1     -38.249  15.384  16.296  0.00  0.00     0.000 A 
ATOM     30  C   UNL d   1     -37.941  14.758  16.738  0.00  0.00     0.002 A 
ATOM     31  C   UNL d   1     -38.152  14.674  17.526  0.00  0.00     0.019 A 
ENDBRANCH   3  26
TORSDOF 7
ENDMDL
MODEL 2
REMARK VINA RESULT:      -3.2      4.158      8.924
REMARK  7 active torsions:
REMARK  status: ('A' for Active; 'I' for Inactive)
REMARK    1  A    between atoms: C_6  and  C_1 
REMARK    2  A    between atoms: C_9  and  N_3 
REMARK    3  A    between atoms: C_11  and  C_4 
REMARK       I    between atoms: N_7  and  C_6 
REMARK    4  A    between atoms: C_15  and  N_7 
REMARK    5  A    between atoms: C_8  and  C_10 
REMARK    6  A    between atoms: O_18  and  C_8 
REMARK    7  A    between atoms: C_27  and  O_18 
ROOT
ATOM      1  C   UNL d   1     -48.039  13.119  22.966  0.00  0.00     0.096 A 
ATOM      2  N   UNL d   1     -49.313  12.515  23.178  0.00  0.00    -0.165 NA
ATOM      3  N   UNL d   1     -49.201  13.932  23.124  0.00  0.00    -0.228 N 
ATOM      4  C   UNL d   1     -48.504  12.440  23.055  0.00  0.00     0.108 A 
ATOM      5  C   UNL d   1     -48.395  13.861  23.002  0.00  0.00     0.107 A 
ENDROOT
BRANCH   1   6
ATOM      6  C   UNL d   1     -47.232  13.049  22.844  0.00  0.00     0.282 C 
ATOM      7  N   UNL d   1     -46.876  13.351  22.128  0.00  0.00    -0.208 NA
ATOM      8  O   UNL d   1     -46.762  12.686  23.411  0.00  0.00    -0.265 OA
BRANCH   7   9
ATOM      9  C   UNL d   1     -46.043  13.277  22.006  0.00  0.00     0.085 A 
ATOM     10  C   UNL d   1     -45.499  13.720  22.471  0.00  0.00     0.019 A 
ATOM     11  C   UNL d   1     -44.666  13.644  22.347  0.00  0.00     0.007 A 
ATOM     12  C   UNL d   1     -44.375  13.117  21.748  0.00  0.00     0.064 A 
ATOM     13  C   UNL d   1     -44.923  12.675  21.285  0.00  0.00     0.007 A 
ATOM     14  C   UNL d   1     -45.754  12.755  21.413  0.00  0.00     0.019 A 
BRANCH  12  15
ATOM     15  C   UNL d   1     -43.538  13.037  21.619  0.00  0.00     0.300 C 
ATOM     16  O   UNL d   1     -43.150  12.300  21.783  0.00  0.00    -0.259 OA
BRANCH  15  17
ATOM     17  O   UNL d   1     -43.087  13.693  21.325  0.00  0.00    -0.271 OA
BRANCH  17  18
ATOM     18  C   UNL d   1     -42.291  13.580  21.069  0.00  0.00     0.126 C 
ATOM     19  C   UNL d   1     -41.734  14.200  21.148  0.00  0.00     0.029 C 
ENDBRANCH  17  18
ENDBRANCH  15  17
ENDBRANCH  12  15
ENDBRANCH   7   9
ENDBRANCH   1   6
BRANCH   4  20
ATOM     20  C   UNL d   1     -48.163  11.707  23.022  0.00  0.00     0.023 A 
ATOM     21  C   UNL d   1     -48.150  11.287  22.317  0.00  0.00     0.022 A 
ATOM     22  C   UNL d   1     -47.807  10.544  22.278  0.00  0.00     0.099 A 
ATOM     23  N   UNL d   1     -47.470  10.214  22.958  0.00  0.00    -0.242 NA
ATOM     24  C   UNL d   1     -47.481  10.629  23.665  0.00  0.00     0.099 A 
ATOM     25  C   UNL d   1     -47.827  11.375  23.698  0.00  0.00     0.022 A 
ENDBRANCH   4  20
BRANCH   3  26
ATOM     26  C   UNL d   1     -49.726  14.558  23.188  0.00  0.00     0.083 A 
ATOM     27  C   UNL d   1     -49.449  15.296  23.414  0.00  0.00     0.019 A 
ATOM     28  C   UNL d   1     -49.976  15.921  23.478  0.00  0.00     0.002 A 
ATOM     29  C   UNL d   1     -50.778  15.811  23.317  0.00  0.00     0.000 A 
ATOM     30  C   UNL d   1     -51.052  15.067  23.089  0.00  0.00     0.002 A 
ATOM     31  C   UNL d   1     -50.525  14.442  23.025  0.00  0.00     0.019 A 
ENDBRANCH   3  26
TORSDOF 7
ENDMDL
