MODEL 1
REMARK VINA RESULT:      -3.0      0.000      0.000
REMARK  2 active torsions:
REMARK  status: ('A' for Active; 'I' for Inactive)
REMARK    1  A    between atoms: C_12  and  C_9 
REMARK    2  A    between atoms: N_15  and  C_12 
ROOT
ATOM      1  C   UNL d   1      58.536   0.440  30.665  0.00  0.00     0.176 A 
ATOM      2  C   UNL d   1      58.122   0.320  29.961  0.00  0.00     0.174 A 
ATOM      3  N   UNL d   1      59.368   0.561  30.643  0.00  0.00    -0.240 N 
ATOM      4  N   UNL d   1      59.349   0.439  29.218  0.00  0.00    -0.223 N 
ATOM      5  C   UNL d   1      59.769   0.560  29.933  0.00  0.00     0.343 A 
ATOM      6  C   UNL d   1      58.533   0.319  29.226  0.00  0.00     0.289 A 
ATOM      7  N   UNL d   1      58.153   0.444  31.388  0.00  0.00    -0.206 NA
ATOM      8  N   UNL d   1      56.904   0.203  30.704  0.00  0.00    -0.217 NA
ATOM      9  C   UNL d   1      57.336   0.326  31.411  0.00  0.00     0.182 A 
ATOM     10  O   UNL d   1      60.592   0.680  29.911  0.00  0.00    -0.245 OA
ATOM     11  O   UNL d   1      58.116   0.199  28.519  0.00  0.00    -0.265 OA
ATOM     12  C   UNL d   1      59.786   0.681  31.353  0.00  0.00     0.105 C 
ATOM     13  C   UNL d   1      59.779   0.438  28.456  0.00  0.00     0.107 C 
ENDROOT
BRANCH   9  14
ATOM     14  C   UNL d   1      57.141   0.363  32.201  0.00  0.00     0.120 C 
BRANCH  14  15
ATOM     15  N   UNL d   1      56.510   0.129  32.634  0.00  0.00    -0.297 N 
ATOM     16  C   UNL d   1      55.923   0.652  32.815  0.00  0.00     0.100 C 
ATOM     17  C   UNL d   1      56.464  -0.633  32.892  0.00  0.00     0.100 C 
ENDBRANCH  14  15
ENDBRANCH   9  14
TORSDOF 2
ENDMDL
MODEL 2
REMARK VINA RESULT:      -2.8      1.472      1.653
REMARK  2 active torsions:
REMARK  status: ('A' for Active; 'I' for Inactive)
REMARK    1  A    between atoms: C_12  and  C_9 
REMARK    2  A    between atoms: N_15  and  C_12 
ROOT
ATOM      1  C   UNL d   1      58.167  -0.527  30.178  0.00  0.00     0.176 A 
ATOM      2  C   UNL d   1      58.088  -1.348  30.166  0.00  0.00     0.174 A 
ATOM      3  N   UNL d   1      58.667  -0.147  29.619  0.00  0.00    -0.240 N 
ATOM      4  N   UNL d   1      58.996  -1.418  29.051  0.00  0.00    -0.223 N 
ATOM      5  C   UNL d   1      59.075  -0.584  29.064  0.00  0.00     0.343 A 
ATOM      6  C   UNL d   1      58.508  -1.802  29.594  0.00  0.00     0.289 A 
ATOM      7  N   UNL d   1      57.766  -0.070  30.727  0.00  0.00    -0.206 NA
ATOM      8  N   UNL d   1      57.186  -1.274  31.274  0.00  0.00    -0.217 NA
ATOM      9  C   UNL d   1      57.274  -0.441  31.277  0.00  0.00     0.182 A 
ATOM     10  O   UNL d   1      59.570  -0.209  28.510  0.00  0.00    -0.245 OA
ATOM     11  O   UNL d   1      58.429  -2.628  29.581  0.00  0.00    -0.265 OA
ATOM     12  C   UNL d   1      58.746   0.682  29.631  0.00  0.00     0.105 C 
ATOM     13  C   UNL d   1      59.434  -1.887  28.455  0.00  0.00     0.107 C 
ENDROOT
BRANCH   9  14
ATOM     14  C   UNL d   1      56.969   0.164  31.728  0.00  0.00     0.120 C 
BRANCH  14  15
ATOM     15  N   UNL d   1      56.661   0.215  32.464  0.00  0.00    -0.297 N 
ATOM     16  C   UNL d   1      57.127   0.429  33.087  0.00  0.00     0.100 C 
ATOM     17  C   UNL d   1      55.881   0.051  32.583  0.00  0.00     0.100 C 
ENDBRANCH  14  15
ENDBRANCH   9  14
TORSDOF 2
ENDMDL
MODEL 3
REMARK VINA RESULT:      -2.0      2.791      4.981
REMARK  2 active torsions:
REMARK  status: ('A' for Active; 'I' for Inactive)
REMARK    1  A    between atoms: C_12  and  C_9 
REMARK    2  A    between atoms: N_15  and  C_12 
ROOT
ATOM      1  C   UNL d   1      56.370   0.679  33.562  0.00  0.00     0.176 A 
ATOM      2  C   UNL d   1      56.984   0.680  34.113  0.00  0.00     0.174 A 
ATOM      3  N   UNL d   1      55.572   0.680  33.827  0.00  0.00    -0.240 N 
ATOM      4  N   UNL d   1      56.023   0.681  35.184  0.00  0.00    -0.223 N 
ATOM      5  C   UNL d   1      55.399   0.680  34.624  0.00  0.00     0.343 A 
ATOM      6  C   UNL d   1      56.810   0.681  34.937  0.00  0.00     0.289 A 
ATOM      7  N   UNL d   1      56.521   0.679  32.757  0.00  0.00    -0.206 NA
ATOM      8  N   UNL d   1      57.937   0.679  33.045  0.00  0.00    -0.217 NA
ATOM      9  C   UNL d   1      57.305   0.678  32.495  0.00  0.00     0.182 A 
ATOM     10  O   UNL d   1      54.611   0.681  34.886  0.00  0.00    -0.245 OA
ATOM     11  O   UNL d   1      57.427   0.681  35.491  0.00  0.00    -0.265 OA
ATOM     12  C   UNL d   1      54.952   0.679  33.270  0.00  0.00     0.105 C 
ATOM     13  C   UNL d   1      55.838   0.682  36.040  0.00  0.00     0.107 C 
ENDROOT
BRANCH   9  14
ATOM     14  C   UNL d   1      57.254   0.677  31.683  0.00  0.00     0.120 C 
BRANCH  14  15
ATOM     15  N   UNL d   1      57.659   0.315  31.096  0.00  0.00    -0.297 N 
ATOM     16  C   UNL d   1      58.323   0.655  30.787  0.00  0.00     0.100 C 
ATOM     17  C   UNL d   1      57.401  -0.394  30.812  0.00  0.00     0.100 C 
ENDBRANCH  14  15
ENDBRANCH   9  14
TORSDOF 2
ENDMDL
MODEL 4
REMARK VINA RESULT:      -1.8      2.021      4.155
REMARK  2 active torsions:
REMARK  status: ('A' for Active; 'I' for Inactive)
REMARK    1  A    between atoms: C_12  and  C_9 
REMARK    2  A    between atoms: N_15  and  C_12 
ROOT
ATOM      1  C   UNL d   1      57.074  -0.449  31.927  0.00  0.00     0.176 A 
ATOM      2  C   UNL d   1      57.300   0.116  32.485  0.00  0.00     0.174 A 
ATOM      3  N   UNL d   1      56.494  -1.024  32.127  0.00  0.00    -0.240 N 
ATOM      4  N   UNL d   1      56.382  -0.455  33.435  0.00  0.00    -0.223 N 
ATOM      5  C   UNL d   1      56.153  -1.029  32.868  0.00  0.00     0.343 A 
ATOM      6  C   UNL d   1      56.949   0.114  33.251  0.00  0.00     0.289 A 
ATOM      7  N   UNL d   1      57.404  -0.462  31.178  0.00  0.00    -0.206 NA
ATOM      8  N   UNL d   1      58.212   0.681  31.538  0.00  0.00    -0.217 NA
ATOM      9  C   UNL d   1      57.974   0.102  30.980  0.00  0.00     0.182 A 
ATOM     10  O   UNL d   1      55.579  -1.597  33.066  0.00  0.00    -0.245 OA
ATOM     11  O   UNL d   1      57.176   0.681  33.812  0.00  0.00    -0.265 OA
ATOM     12  C   UNL d   1      56.266  -1.594  31.564  0.00  0.00     0.105 C 
ATOM     13  C   UNL d   1      56.015  -0.460  34.230  0.00  0.00     0.107 C 
ENDROOT
BRANCH   9  14
ATOM     14  C   UNL d   1      58.179  -0.068  30.211  0.00  0.00     0.120 C 
BRANCH  14  15
ATOM     15  N   UNL d   1      58.660   0.273  29.670  0.00  0.00    -0.297 N 
ATOM     16  C   UNL d   1      58.353   0.592  28.995  0.00  0.00     0.100 C 
ATOM     17  C   UNL d   1      59.454   0.298  29.801  0.00  0.00     0.100 C 
ENDBRANCH  14  15
ENDBRANCH   9  14
TORSDOF 2
ENDMDL
MODEL 5
REMARK VINA RESULT:      -1.7     10.242     10.653
REMARK  2 active torsions:
REMARK  status: ('A' for Active; 'I' for Inactive)
REMARK    1  A    between atoms: C_12  and  C_9 
REMARK    2  A    between atoms: N_15  and  C_12 
ROOT
ATOM      1  C   UNL d   1      59.175  -9.814  31.945  0.00  0.00     0.176 A 
ATOM      2  C   UNL d   1      58.602  -9.811  32.538  0.00  0.00     0.174 A 
ATOM      3  N   UNL d   1      59.990  -9.814  32.153  0.00  0.00    -0.240 N 
ATOM      4  N   UNL d   1      59.636  -9.810  33.538  0.00  0.00    -0.223 N 
ATOM      5  C   UNL d   1      60.218  -9.812  32.936  0.00  0.00     0.343 A 
ATOM      6  C   UNL d   1      58.833  -9.810  33.348  0.00  0.00     0.289 A 
ATOM      7  N   UNL d   1      58.968  -9.815  31.153  0.00  0.00    -0.206 NA
ATOM      8  N   UNL d   1      57.576  -9.812  31.540  0.00  0.00    -0.217 NA
ATOM      9  C   UNL d   1      58.168  -9.815  30.946  0.00  0.00     0.182 A 
ATOM     10  O   UNL d   1      61.024  -9.813  33.142  0.00  0.00    -0.245 OA
ATOM     11  O   UNL d   1      58.257  -9.807  33.944  0.00  0.00    -0.265 OA
ATOM     12  C   UNL d   1      60.569  -9.816  31.554  0.00  0.00     0.105 C 
ATOM     13  C   UNL d   1      59.881  -9.808  34.380  0.00  0.00     0.107 C 
ENDROOT
BRANCH   9  14
ATOM     14  C   UNL d   1      58.162  -9.817  30.133  0.00  0.00     0.120 C 
BRANCH  14  15
ATOM     15  N   UNL d   1      57.608  -9.662  29.576  0.00  0.00    -0.297 N 
ATOM     16  C   UNL d   1      56.830  -9.817  29.720  0.00  0.00     0.100 C 
ATOM     17  C   UNL d   1      57.832  -9.351  28.867  0.00  0.00     0.100 C 
ENDBRANCH  14  15
ENDBRANCH   9  14
TORSDOF 2
ENDMDL
MODEL 6
REMARK VINA RESULT:      -1.1      9.642     10.352
REMARK  2 active torsions:
REMARK  status: ('A' for Active; 'I' for Inactive)
REMARK    1  A    between atoms: C_12  and  C_9 
REMARK    2  A    between atoms: N_15  and  C_12 
ROOT
ATOM      1  C   UNL d   1      59.444  -9.042  34.120  0.00  0.00     0.176 A 
ATOM      2  C   UNL d   1      58.959  -8.447  34.422  0.00  0.00     0.174 A 
ATOM      3  N   UNL d   1      60.175  -9.216  34.497  0.00  0.00    -0.240 N 
ATOM      4  N   UNL d   1      59.917  -8.198  35.467  0.00  0.00    -0.223 N 
ATOM      5  C   UNL d   1      60.409  -8.802  35.160  0.00  0.00     0.343 A 
ATOM      6  C   UNL d   1      59.197  -8.017  35.106  0.00  0.00     0.289 A 
ATOM      7  N   UNL d   1      59.228  -9.469  33.455  0.00  0.00    -0.206 NA
ATOM      8  N   UNL d   1      58.010  -8.697  33.381  0.00  0.00    -0.217 NA
ATOM      9  C   UNL d   1      58.511  -9.299  33.083  0.00  0.00     0.182 A 
ATOM     10  O   UNL d   1      61.132  -8.974  35.533  0.00  0.00    -0.245 OA
ATOM     11  O   UNL d   1      58.710  -7.419  35.410  0.00  0.00    -0.265 OA
ATOM     12  C   UNL d   1      60.665  -9.817  34.192  0.00  0.00     0.105 C 
ATOM     13  C   UNL d   1      60.168  -7.753  36.179  0.00  0.00     0.107 C 
ENDROOT
BRANCH   9  14
ATOM     14  C   UNL d   1      58.472  -9.817  32.456  0.00  0.00     0.120 C 
BRANCH  14  15
ATOM     15  N   UNL d   1      58.190  -9.772  31.709  0.00  0.00    -0.297 N 
ATOM     16  C   UNL d   1      58.696  -9.698  31.085  0.00  0.00     0.100 C 
ATOM     17  C   UNL d   1      57.395  -9.803  31.580  0.00  0.00     0.100 C 
ENDBRANCH  14  15
ENDBRANCH   9  14
TORSDOF 2
ENDMDL
