MODEL 1
REMARK VINA RESULT:      -4.5      0.000      0.000
REMARK  9 active torsions:
REMARK  status: ('A' for Active; 'I' for Inactive)
REMARK    1  A    between atoms: C_9  and  S_1 
REMARK    2  A    between atoms: N_12  and  S_1 
REMARK    3  A    between atoms: S_2  and  C_8 
REMARK    4  A    between atoms: N_13  and  S_2 
REMARK    5  A    between atoms: N_20  and  C_5 
REMARK    6  A    between atoms: C_23  and  N_12 
REMARK    7  A    between atoms: C_24  and  N_13 
REMARK    8  A    between atoms: C_31  and  C_23 
REMARK    9  A    between atoms: C_30  and  C_24 
ROOT
ATOM      1  C   UNL d   1     -46.673  12.066  23.290  0.00  0.00     0.021 A 
ATOM      2  C   UNL d   1     -47.829  12.729  23.198  0.00  0.00     0.021 A 
ATOM      3  C   UNL d   1     -47.007  12.798  23.108  0.00  0.00     0.111 A 
ATOM      4  C   UNL d   1     -47.995  11.956  23.435  0.00  0.00     0.002 A 
ATOM      5  C   UNL d   1     -47.275  11.554  23.489  0.00  0.00     0.002 A 
ATOM      6  C   UNL d   1     -49.209  13.044  23.225  0.00  0.00     0.104 A 
ATOM      7  C   UNL d   1     -45.700  11.070  23.495  0.00  0.00     0.104 A 
ATOM      8  C   UNL d   1     -48.434  13.280  23.091  0.00  0.00     0.015 A 
ATOM      9  C   UNL d   1     -45.904  11.855  23.286  0.00  0.00     0.015 A 
ATOM     10  C   UNL d   1     -47.079  10.778  23.696  0.00  0.00     0.001 A 
ATOM     11  C   UNL d   1     -48.761  11.743  23.561  0.00  0.00     0.001 A 
ATOM     12  C   UNL d   1     -46.302  10.558  23.693  0.00  0.00     0.013 A 
ATOM     13  C   UNL d   1     -49.353  12.258  23.464  0.00  0.00     0.013 A 
ENDROOT
BRANCH   6  14
ATOM     14  S   UNL d   1     -49.855  13.575  23.127  0.00  0.00     0.272 S 
ATOM     15  O   UNL d   1     -50.225  13.033  22.597  0.00  0.00    -0.200 OA
ATOM     16  O   UNL d   1     -49.503  14.127  23.652  0.00  0.00    -0.200 OA
BRANCH  14  17
ATOM     17  N   UNL d   1     -50.509  14.086  23.014  0.00  0.00    -0.225 N 
ATOM     18  C   UNL d   1     -51.054  14.228  23.642  0.00  0.00     0.111 C 
BRANCH  17  19
ATOM     19  C   UNL d   1     -50.648  14.472  22.284  0.00  0.00     0.137 C 
BRANCH  19  20
ATOM     20  C   UNL d   1     -51.012  15.207  22.247  0.00  0.00     0.254 C 
ATOM     21  O   UNL d   1     -50.739  15.795  21.741  0.00  0.00    -0.281 OA
ENDBRANCH  19  20
ENDBRANCH  17  19
ENDBRANCH  14  17
ENDBRANCH   6  14
BRANCH   3  22
ATOM     22  N   UNL d   1     -46.607  13.484  22.876  0.00  0.00    -0.096 NA
ATOM     23  O   UNL d   1     -46.647  13.741  22.092  0.00  0.00    -0.061 OA
ENDBRANCH   3  22
BRANCH   7  24
ATOM     24  S   UNL d   1     -44.903  10.797  23.505  0.00  0.00     0.272 S 
ATOM     25  O   UNL d   1     -45.192  10.009  23.511  0.00  0.00    -0.200 OA
ATOM     26  O   UNL d   1     -44.619  11.586  23.499  0.00  0.00    -0.200 OA
BRANCH  24  27
ATOM     27  N   UNL d   1     -44.117  10.489  23.516  0.00  0.00    -0.225 N 
ATOM     28  C   UNL d   1     -43.976   9.697  23.661  0.00  0.00     0.111 C 
BRANCH  27  29
ATOM     29  C   UNL d   1     -43.483  11.020  23.375  0.00  0.00     0.137 C 
BRANCH  29  30
ATOM     30  C   UNL d   1     -42.726  10.723  23.310  0.00  0.00     0.254 C 
ATOM     31  O   UNL d   1     -42.065  11.227  23.381  0.00  0.00    -0.281 OA
ENDBRANCH  29  30
ENDBRANCH  27  29
ENDBRANCH  24  27
ENDBRANCH   7  24
TORSDOF 9
ENDMDL
MODEL 2
REMARK VINA RESULT:      -4.3      1.589      5.786
REMARK  9 active torsions:
REMARK  status: ('A' for Active; 'I' for Inactive)
REMARK    1  A    between atoms: C_9  and  S_1 
REMARK    2  A    between atoms: N_12  and  S_1 
REMARK    3  A    between atoms: S_2  and  C_8 
REMARK    4  A    between atoms: N_13  and  S_2 
REMARK    5  A    between atoms: N_20  and  C_5 
REMARK    6  A    between atoms: C_23  and  N_12 
REMARK    7  A    between atoms: C_24  and  N_13 
REMARK    8  A    between atoms: C_31  and  C_23 
REMARK    9  A    between atoms: C_30  and  C_24 
ROOT
ATOM      1  C   UNL d   1     -47.348  13.372  22.749  0.00  0.00     0.021 A 
ATOM      2  C   UNL d   1     -46.064  13.141  22.463  0.00  0.00     0.021 A 
ATOM      3  C   UNL d   1     -46.670  13.705  22.418  0.00  0.00     0.111 A 
ATOM      4  C   UNL d   1     -46.372  12.465  22.822  0.00  0.00     0.002 A 
ATOM      5  C   UNL d   1     -47.166  12.617  22.995  0.00  0.00     0.002 A 
ATOM      6  C   UNL d   1     -44.801  12.513  22.342  0.00  0.00     0.104 A 
ATOM      7  C   UNL d   1     -48.678  13.240  23.192  0.00  0.00     0.104 A 
ATOM      8  C   UNL d   1     -45.276  13.171  22.220  0.00  0.00     0.015 A 
ATOM      9  C   UNL d   1     -48.072  13.695  22.833  0.00  0.00     0.015 A 
ATOM     10  C   UNL d   1     -47.760  12.163  23.350  0.00  0.00     0.001 A 
ATOM     11  C   UNL d   1     -45.890  11.829  22.934  0.00  0.00     0.001 A 
ATOM     12  C   UNL d   1     -48.495  12.486  23.438  0.00  0.00     0.013 A 
ATOM     13  C   UNL d   1     -45.134  11.841  22.707  0.00  0.00     0.013 A 
ENDROOT
BRANCH   6  14
ATOM     14  S   UNL d   1     -43.992  12.503  22.108  0.00  0.00     0.272 S 
ATOM     15  O   UNL d   1     -44.026  13.328  21.938  0.00  0.00    -0.200 OA
ATOM     16  O   UNL d   1     -43.938  11.681  22.272  0.00  0.00    -0.200 OA
BRANCH  14  17
ATOM     17  N   UNL d   1     -43.189  12.518  21.871  0.00  0.00    -0.225 N 
ATOM     18  C   UNL d   1     -42.621  12.026  22.256  0.00  0.00     0.111 C 
BRANCH  17  19
ATOM     19  C   UNL d   1     -42.919  13.013  21.252  0.00  0.00     0.137 C 
BRANCH  19  20
ATOM     20  C   UNL d   1     -42.122  13.187  21.155  0.00  0.00     0.254 C 
ATOM     21  O   UNL d   1     -41.872  13.773  20.635  0.00  0.00    -0.281 OA
ENDBRANCH  19  20
ENDBRANCH  17  19
ENDBRANCH  14  17
ENDBRANCH   6  14
BRANCH   3  22
ATOM     22  N   UNL d   1     -46.595  14.463  22.094  0.00  0.00    -0.096 NA
ATOM     23  O   UNL d   1     -46.457  15.111  22.588  0.00  0.00    -0.061 OA
ENDBRANCH   3  22
BRANCH   7  24
ATOM     24  S   UNL d   1     -49.459  13.536  23.304  0.00  0.00     0.272 S 
ATOM     25  O   UNL d   1     -49.132  14.201  23.698  0.00  0.00    -0.200 OA
ATOM     26  O   UNL d   1     -49.782  12.870  22.909  0.00  0.00    -0.200 OA
BRANCH  24  27
ATOM     27  N   UNL d   1     -50.227  13.861  23.433  0.00  0.00    -0.225 N 
ATOM     28  C   UNL d   1     -50.873  13.378  23.564  0.00  0.00     0.111 C 
BRANCH  27  29
ATOM     29  C   UNL d   1     -50.309  14.696  23.424  0.00  0.00     0.137 C 
BRANCH  29  30
ATOM     30  C   UNL d   1     -51.026  15.021  23.209  0.00  0.00     0.254 C 
ATOM     31  O   UNL d   1     -51.064  15.783  22.872  0.00  0.00    -0.281 OA
ENDBRANCH  29  30
ENDBRANCH  27  29
ENDBRANCH  24  27
ENDBRANCH   7  24
TORSDOF 9
ENDMDL
MODEL 3
REMARK VINA RESULT:      -4.3      0.405      5.755
REMARK  9 active torsions:
REMARK  status: ('A' for Active; 'I' for Inactive)
REMARK    1  A    between atoms: C_9  and  S_1 
REMARK    2  A    between atoms: N_12  and  S_1 
REMARK    3  A    between atoms: S_2  and  C_8 
REMARK    4  A    between atoms: N_13  and  S_2 
REMARK    5  A    between atoms: N_20  and  C_5 
REMARK    6  A    between atoms: C_23  and  N_12 
REMARK    7  A    between atoms: C_24  and  N_13 
REMARK    8  A    between atoms: C_31  and  C_23 
REMARK    9  A    between atoms: C_30  and  C_24 
ROOT
ATOM      1  C   UNL d   1     -47.912  12.741  23.171  0.00  0.00     0.021 A 
ATOM      2  C   UNL d   1     -46.746  12.094  23.251  0.00  0.00     0.021 A 
ATOM      3  C   UNL d   1     -47.099  12.820  23.060  0.00  0.00     0.111 A 
ATOM      4  C   UNL d   1     -47.344  11.573  23.478  0.00  0.00     0.002 A 
ATOM      5  C   UNL d   1     -48.061  11.982  23.425  0.00  0.00     0.002 A 
ATOM      6  C   UNL d   1     -45.775  11.087  23.464  0.00  0.00     0.104 A 
ATOM      7  C   UNL d   1     -49.280  13.069  23.213  0.00  0.00     0.104 A 
ATOM      8  C   UNL d   1     -45.956  11.855  23.242  0.00  0.00     0.015 A 
ATOM      9  C   UNL d   1     -48.484  13.285  23.061  0.00  0.00     0.015 A 
ATOM     10  C   UNL d   1     -48.844  11.763  23.576  0.00  0.00     0.001 A 
ATOM     11  C   UNL d   1     -47.147  10.822  23.692  0.00  0.00     0.001 A 
ATOM     12  C   UNL d   1     -49.429  12.310  23.467  0.00  0.00     0.013 A 
ATOM     13  C   UNL d   1     -46.396  10.577  23.689  0.00  0.00     0.013 A 
ENDROOT
BRANCH   6  14
ATOM     14  S   UNL d   1     -44.982  10.804  23.469  0.00  0.00     0.272 S 
ATOM     15  O   UNL d   1     -44.695  11.594  23.400  0.00  0.00    -0.200 OA
ATOM     16  O   UNL d   1     -45.248  10.011  23.538  0.00  0.00    -0.200 OA
BRANCH  14  17
ATOM     17  N   UNL d   1     -44.185  10.547  23.472  0.00  0.00    -0.225 N 
ATOM     18  C   UNL d   1     -43.994   9.749  23.669  0.00  0.00     0.111 C 
BRANCH  17  19
ATOM     19  C   UNL d   1     -43.552  11.062  23.282  0.00  0.00     0.137 C 
BRANCH  19  20
ATOM     20  C   UNL d   1     -43.047  10.910  22.652  0.00  0.00     0.254 C 
ATOM     21  O   UNL d   1     -42.723  11.520  22.206  0.00  0.00    -0.281 OA
ENDBRANCH  19  20
ENDBRANCH  17  19
ENDBRANCH  14  17
ENDBRANCH   6  14
BRANCH   3  22
ATOM     22  N   UNL d   1     -46.694  13.496  22.806  0.00  0.00    -0.096 NA
ATOM     23  O   UNL d   1     -46.324  13.988  23.357  0.00  0.00    -0.061 OA
ENDBRANCH   3  22
BRANCH   7  24
ATOM     24  S   UNL d   1     -49.921  13.606  23.112  0.00  0.00     0.272 S 
ATOM     25  O   UNL d   1     -49.375  14.241  23.167  0.00  0.00    -0.200 OA
ATOM     26  O   UNL d   1     -50.465  12.969  23.058  0.00  0.00    -0.200 OA
BRANCH  24  27
ATOM     27  N   UNL d   1     -50.540  14.172  23.014  0.00  0.00    -0.225 N 
ATOM     28  C   UNL d   1     -50.973  14.440  23.653  0.00  0.00     0.111 C 
BRANCH  27  29
ATOM     29  C   UNL d   1     -50.698  14.453  22.239  0.00  0.00     0.137 C 
BRANCH  29  30
ATOM     30  C   UNL d   1     -51.064  15.177  22.148  0.00  0.00     0.254 C 
ATOM     31  O   UNL d   1     -50.857  15.681  21.517  0.00  0.00    -0.281 OA
ENDBRANCH  29  30
ENDBRANCH  27  29
ENDBRANCH  24  27
ENDBRANCH   7  24
TORSDOF 9
ENDMDL
MODEL 4
REMARK VINA RESULT:      -4.2      1.548      1.777
REMARK  9 active torsions:
REMARK  status: ('A' for Active; 'I' for Inactive)
REMARK    1  A    between atoms: C_9  and  S_1 
REMARK    2  A    between atoms: N_12  and  S_1 
REMARK    3  A    between atoms: S_2  and  C_8 
REMARK    4  A    between atoms: N_13  and  S_2 
REMARK    5  A    between atoms: N_20  and  C_5 
REMARK    6  A    between atoms: C_23  and  N_12 
REMARK    7  A    between atoms: C_24  and  N_13 
REMARK    8  A    between atoms: C_31  and  C_23 
REMARK    9  A    between atoms: C_30  and  C_24 
ROOT
ATOM      1  C   UNL d   1     -46.147  13.211  22.560  0.00  0.00     0.021 A 
ATOM      2  C   UNL d   1     -47.420  13.493  22.856  0.00  0.00     0.021 A 
ATOM      3  C   UNL d   1     -46.726  13.798  22.518  0.00  0.00     0.111 A 
ATOM      4  C   UNL d   1     -47.264  12.721  23.103  0.00  0.00     0.002 A 
ATOM      5  C   UNL d   1     -46.476  12.556  22.916  0.00  0.00     0.002 A 
ATOM      6  C   UNL d   1     -48.752  13.384  23.321  0.00  0.00     0.104 A 
ATOM      7  C   UNL d   1     -44.907  12.563  22.415  0.00  0.00     0.104 A 
ATOM      8  C   UNL d   1     -48.165  13.831  22.963  0.00  0.00     0.015 A 
ATOM      9  C   UNL d   1     -45.391  13.239  22.309  0.00  0.00     0.015 A 
ATOM     10  C   UNL d   1     -46.002  11.886  23.023  0.00  0.00     0.001 A 
ATOM     11  C   UNL d   1     -47.853  12.298  23.453  0.00  0.00     0.001 A 
ATOM     12  C   UNL d   1     -45.235  11.908  22.771  0.00  0.00     0.013 A 
ATOM     13  C   UNL d   1     -48.572  12.606  23.563  0.00  0.00     0.013 A 
ENDROOT
BRANCH   6  14
ATOM     14  S   UNL d   1     -49.525  13.691  23.448  0.00  0.00     0.272 S 
ATOM     15  O   UNL d   1     -49.860  12.943  23.250  0.00  0.00    -0.200 OA
ATOM     16  O   UNL d   1     -49.211  14.443  23.649  0.00  0.00    -0.200 OA
BRANCH  14  17
ATOM     17  N   UNL d   1     -50.305  13.974  23.569  0.00  0.00    -0.225 N 
ATOM     18  C   UNL d   1     -50.941  13.433  23.693  0.00  0.00     0.111 C 
BRANCH  17  19
ATOM     19  C   UNL d   1     -50.483  14.792  23.572  0.00  0.00     0.137 C 
BRANCH  19  20
ATOM     20  C   UNL d   1     -51.064  15.108  23.085  0.00  0.00     0.254 C 
ATOM     21  O   UNL d   1     -51.064  15.904  22.881  0.00  0.00    -0.281 OA
ENDBRANCH  19  20
ENDBRANCH  17  19
ENDBRANCH  14  17
ENDBRANCH   6  14
BRANCH   3  22
ATOM     22  N   UNL d   1     -46.643  14.557  22.200  0.00  0.00    -0.096 NA
ATOM     23  O   UNL d   1     -46.432  15.189  22.689  0.00  0.00    -0.061 OA
ENDBRANCH   3  22
BRANCH   7  24
ATOM     24  S   UNL d   1     -44.102  12.541  22.168  0.00  0.00     0.272 S 
ATOM     25  O   UNL d   1     -44.026  11.792  22.539  0.00  0.00    -0.200 OA
ATOM     26  O   UNL d   1     -44.181  13.290  21.797  0.00  0.00    -0.200 OA
BRANCH  24  27
ATOM     27  N   UNL d   1     -43.291  12.487  21.936  0.00  0.00    -0.225 N 
ATOM     28  C   UNL d   1     -42.829  11.853  22.166  0.00  0.00     0.111 C 
BRANCH  27  29
ATOM     29  C   UNL d   1     -42.974  13.102  21.462  0.00  0.00     0.137 C 
BRANCH  29  30
ATOM     30  C   UNL d   1     -42.211  13.031  21.181  0.00  0.00     0.254 C 
ATOM     31  O   UNL d   1     -41.906  13.584  20.637  0.00  0.00    -0.281 OA
ENDBRANCH  29  30
ENDBRANCH  27  29
ENDBRANCH  24  27
ENDBRANCH   7  24
TORSDOF 9
ENDMDL
MODEL 5
REMARK VINA RESULT:      -2.8      2.135      5.711
REMARK  9 active torsions:
REMARK  status: ('A' for Active; 'I' for Inactive)
REMARK    1  A    between atoms: C_9  and  S_1 
REMARK    2  A    between atoms: N_12  and  S_1 
REMARK    3  A    between atoms: S_2  and  C_8 
REMARK    4  A    between atoms: N_13  and  S_2 
REMARK    5  A    between atoms: N_20  and  C_5 
REMARK    6  A    between atoms: C_23  and  N_12 
REMARK    7  A    between atoms: C_24  and  N_13 
REMARK    8  A    between atoms: C_31  and  C_23 
REMARK    9  A    between atoms: C_30  and  C_24 
ROOT
ATOM      1  C   UNL d   1     -46.661  12.938  22.611  0.00  0.00     0.021 A 
ATOM      2  C   UNL d   1     -45.385  13.034  22.228  0.00  0.00     0.021 A 
ATOM      3  C   UNL d   1     -46.106  13.442  22.268  0.00  0.00     0.111 A 
ATOM      4  C   UNL d   1     -45.501  12.282  22.548  0.00  0.00     0.002 A 
ATOM      5  C   UNL d   1     -46.292  12.232  22.781  0.00  0.00     0.002 A 
ATOM      6  C   UNL d   1     -44.026  12.728  21.976  0.00  0.00     0.104 A 
ATOM      7  C   UNL d   1     -47.886  12.470  23.123  0.00  0.00     0.104 A 
ATOM      8  C   UNL d   1     -44.647  13.263  21.940  0.00  0.00     0.015 A 
ATOM      9  C   UNL d   1     -47.431  13.077  22.767  0.00  0.00     0.015 A 
ATOM     10  C   UNL d   1     -46.737  11.629  23.133  0.00  0.00     0.001 A 
ATOM     11  C   UNL d   1     -44.880  11.770  22.575  0.00  0.00     0.001 A 
ATOM     12  C   UNL d   1     -47.517  11.764  23.293  0.00  0.00     0.013 A 
ATOM     13  C   UNL d   1     -44.166  11.973  22.303  0.00  0.00     0.013 A 
ENDROOT
BRANCH   6  14
ATOM     14  S   UNL d   1     -43.258  12.923  21.693  0.00  0.00     0.272 S 
ATOM     15  O   UNL d   1     -43.464  13.741  21.683  0.00  0.00    -0.200 OA
ATOM     16  O   UNL d   1     -43.033  12.114  21.696  0.00  0.00    -0.200 OA
BRANCH  14  17
ATOM     17  N   UNL d   1     -42.500  13.141  21.411  0.00  0.00    -0.225 N 
ATOM     18  C   UNL d   1     -41.828  12.656  21.572  0.00  0.00     0.111 C 
BRANCH  17  19
ATOM     19  C   UNL d   1     -42.377  13.839  20.965  0.00  0.00     0.137 C 
BRANCH  19  20
ATOM     20  C   UNL d   1     -41.631  14.170  20.878  0.00  0.00     0.254 C 
ATOM     21  O   UNL d   1     -41.531  14.978  20.761  0.00  0.00    -0.281 OA
ENDBRANCH  19  20
ENDBRANCH  17  19
ENDBRANCH  14  17
ENDBRANCH   6  14
BRANCH   3  22
ATOM     22  N   UNL d   1     -46.232  14.217  22.005  0.00  0.00    -0.096 NA
ATOM     23  O   UNL d   1     -46.124  14.851  22.524  0.00  0.00    -0.061 OA
ENDBRANCH   3  22
BRANCH   7  24
ATOM     24  S   UNL d   1     -48.702  12.567  23.308  0.00  0.00     0.272 S 
ATOM     25  O   UNL d   1     -48.858  11.839  22.919  0.00  0.00    -0.200 OA
ATOM     26  O   UNL d   1     -48.543  13.294  23.695  0.00  0.00    -0.200 OA
BRANCH  24  27
ATOM     27  N   UNL d   1     -49.528  12.631  23.476  0.00  0.00    -0.225 N 
ATOM     28  C   UNL d   1     -50.001  11.967  23.528  0.00  0.00     0.111 C 
BRANCH  27  29
ATOM     29  C   UNL d   1     -49.848  13.399  23.587  0.00  0.00     0.137 C 
BRANCH  29  30
ATOM     30  C   UNL d   1     -50.653  13.478  23.698  0.00  0.00     0.254 C 
ATOM     31  O   UNL d   1     -51.061  14.137  23.389  0.00  0.00    -0.281 OA
ENDBRANCH  29  30
ENDBRANCH  27  29
ENDBRANCH  24  27
ENDBRANCH   7  24
TORSDOF 9
ENDMDL
MODEL 6
REMARK VINA RESULT:      -2.3      3.319      6.569
REMARK  9 active torsions:
REMARK  status: ('A' for Active; 'I' for Inactive)
REMARK    1  A    between atoms: C_9  and  S_1 
REMARK    2  A    between atoms: N_12  and  S_1 
REMARK    3  A    between atoms: S_2  and  C_8 
REMARK    4  A    between atoms: N_13  and  S_2 
REMARK    5  A    between atoms: N_20  and  C_5 
REMARK    6  A    between atoms: C_23  and  N_12 
REMARK    7  A    between atoms: C_24  and  N_13 
REMARK    8  A    between atoms: C_31  and  C_23 
REMARK    9  A    between atoms: C_30  and  C_24 
ROOT
ATOM      1  C   UNL d   1     -44.557  12.789  22.109  0.00  0.00     0.021 A 
ATOM      2  C   UNL d   1     -43.363  13.090  21.592  0.00  0.00     0.021 A 
ATOM      3  C   UNL d   1     -43.826  12.473  21.894  0.00  0.00     0.111 A 
ATOM      4  C   UNL d   1     -43.811  13.783  21.622  0.00  0.00     0.002 A 
ATOM      5  C   UNL d   1     -44.547  13.586  21.943  0.00  0.00     0.002 A 
ATOM      6  C   UNL d   1     -42.277  13.806  21.032  0.00  0.00     0.104 A 
ATOM      7  C   UNL d   1     -45.875  12.864  22.596  0.00  0.00     0.104 A 
ATOM      8  C   UNL d   1     -42.592  13.096  21.296  0.00  0.00     0.015 A 
ATOM      9  C   UNL d   1     -45.187  12.417  22.425  0.00  0.00     0.015 A 
ATOM     10  C   UNL d   1     -45.223  14.033  22.110  0.00  0.00     0.001 A 
ATOM     11  C   UNL d   1     -43.485  14.470  21.358  0.00  0.00     0.001 A 
ATOM     12  C   UNL d   1     -45.865  13.661  22.430  0.00  0.00     0.013 A 
ATOM     13  C   UNL d   1     -42.749  14.493  21.072  0.00  0.00     0.013 A 
ENDROOT
BRANCH   6  14
ATOM     14  S   UNL d   1     -41.496  13.854  20.724  0.00  0.00     0.272 S 
ATOM     15  O   UNL d   1     -41.236  14.237  21.429  0.00  0.00    -0.200 OA
ATOM     16  O   UNL d   1     -41.733  13.475  20.014  0.00  0.00    -0.200 OA
BRANCH  14  17
ATOM     17  N   UNL d   1     -40.710  13.915  20.439  0.00  0.00    -0.225 N 
ATOM     18  C   UNL d   1     -40.059  13.905  20.976  0.00  0.00     0.111 C 
BRANCH  17  19
ATOM     19  C   UNL d   1     -40.539  13.986  19.622  0.00  0.00     0.137 C 
BRANCH  19  20
ATOM     20  C   UNL d   1     -39.795  14.208  19.355  0.00  0.00     0.254 C 
ATOM     21  O   UNL d   1     -39.573  14.102  18.570  0.00  0.00    -0.281 OA
ENDBRANCH  19  20
ENDBRANCH  17  19
ENDBRANCH  14  17
ENDBRANCH   6  14
BRANCH   3  22
ATOM     22  N   UNL d   1     -43.586  11.683  21.963  0.00  0.00    -0.096 NA
ATOM     23  O   UNL d   1     -43.222  11.421  22.657  0.00  0.00    -0.061 OA
ENDBRANCH   3  22
BRANCH   7  24
ATOM     24  S   UNL d   1     -46.567  12.518  22.930  0.00  0.00     0.272 S 
ATOM     25  O   UNL d   1     -46.178  12.502  23.674  0.00  0.00    -0.200 OA
ATOM     26  O   UNL d   1     -46.953  12.537  22.185  0.00  0.00    -0.200 OA
BRANCH  24  27
ATOM     27  N   UNL d   1     -47.244  12.171  23.298  0.00  0.00    -0.225 N 
ATOM     28  C   UNL d   1     -47.189  11.460  23.696  0.00  0.00     0.111 C 
BRANCH  27  29
ATOM     29  C   UNL d   1     -47.975  12.579  23.242  0.00  0.00     0.137 C 
BRANCH  29  30
ATOM     30  C   UNL d   1     -48.645  12.234  23.557  0.00  0.00     0.254 C 
ATOM     31  O   UNL d   1     -49.353  12.668  23.627  0.00  0.00    -0.281 OA
ENDBRANCH  29  30
ENDBRANCH  27  29
ENDBRANCH  24  27
ENDBRANCH   7  24
TORSDOF 9
ENDMDL
MODEL 7
REMARK VINA RESULT:      -2.3      3.396      4.683
REMARK  9 active torsions:
REMARK  status: ('A' for Active; 'I' for Inactive)
REMARK    1  A    between atoms: C_9  and  S_1 
REMARK    2  A    between atoms: N_12  and  S_1 
REMARK    3  A    between atoms: S_2  and  C_8 
REMARK    4  A    between atoms: N_13  and  S_2 
REMARK    5  A    between atoms: N_20  and  C_5 
REMARK    6  A    between atoms: C_23  and  N_12 
REMARK    7  A    between atoms: C_24  and  N_13 
REMARK    8  A    between atoms: C_31  and  C_23 
REMARK    9  A    between atoms: C_30  and  C_24 
ROOT
ATOM      1  C   UNL d   1     -43.303  13.160  21.548  0.00  0.00     0.021 A 
ATOM      2  C   UNL d   1     -44.483  12.827  22.079  0.00  0.00     0.021 A 
ATOM      3  C   UNL d   1     -43.744  12.530  21.848  0.00  0.00     0.111 A 
ATOM      4  C   UNL d   1     -44.493  13.637  21.921  0.00  0.00     0.002 A 
ATOM      5  C   UNL d   1     -43.759  13.833  21.593  0.00  0.00     0.002 A 
ATOM      6  C   UNL d   1     -45.803  12.900  22.585  0.00  0.00     0.104 A 
ATOM      7  C   UNL d   1     -42.230  13.874  20.983  0.00  0.00     0.104 A 
ATOM      8  C   UNL d   1     -45.138  12.452  22.412  0.00  0.00     0.015 A 
ATOM      9  C   UNL d   1     -42.561  13.154  21.257  0.00  0.00     0.015 A 
ATOM     10  C   UNL d   1     -43.438  14.546  21.324  0.00  0.00     0.001 A 
ATOM     11  C   UNL d   1     -45.154  14.061  22.097  0.00  0.00     0.001 A 
ATOM     12  C   UNL d   1     -42.686  14.547  21.028  0.00  0.00     0.013 A 
ATOM     13  C   UNL d   1     -45.790  13.717  22.416  0.00  0.00     0.013 A 
ENDROOT
BRANCH   6  14
ATOM     14  S   UNL d   1     -46.492  12.556  22.925  0.00  0.00     0.272 S 
ATOM     15  O   UNL d   1     -46.764  12.333  22.158  0.00  0.00    -0.200 OA
ATOM     16  O   UNL d   1     -46.238  12.769  23.696  0.00  0.00    -0.200 OA
BRANCH  14  17
ATOM     17  N   UNL d   1     -47.185  12.207  23.239  0.00  0.00    -0.225 N 
ATOM     18  C   UNL d   1     -47.137  11.500  23.698  0.00  0.00     0.111 C 
BRANCH  17  19
ATOM     19  C   UNL d   1     -47.944  12.539  23.115  0.00  0.00     0.137 C 
BRANCH  19  20
ATOM     20  C   UNL d   1     -48.604  12.272  23.524  0.00  0.00     0.254 C 
ATOM     21  O   UNL d   1     -49.330  12.652  23.462  0.00  0.00    -0.281 OA
ENDBRANCH  19  20
ENDBRANCH  17  19
ENDBRANCH  14  17
ENDBRANCH   6  14
BRANCH   3  22
ATOM     22  N   UNL d   1     -43.504  11.740  21.912  0.00  0.00    -0.096 NA
ATOM     23  O   UNL d   1     -43.211  11.454  22.630  0.00  0.00    -0.061 OA
ENDBRANCH   3  22
BRANCH   7  24
ATOM     24  S   UNL d   1     -41.450  13.921  20.667  0.00  0.00     0.272 S 
ATOM     25  O   UNL d   1     -41.199  14.272  21.386  0.00  0.00    -0.200 OA
ATOM     26  O   UNL d   1     -41.706  13.570  19.949  0.00  0.00    -0.200 OA
BRANCH  24  27
ATOM     27  N   UNL d   1     -40.658  13.984  20.381  0.00  0.00    -0.225 N 
ATOM     28  C   UNL d   1     -40.020  13.846  20.873  0.00  0.00     0.111 C 
BRANCH  27  29
ATOM     29  C   UNL d   1     -40.544  14.193  19.577  0.00  0.00     0.137 C 
BRANCH  29  30
ATOM     30  C   UNL d   1     -39.783  14.293  19.298  0.00  0.00     0.254 C 
ATOM     31  O   UNL d   1     -39.641  14.720  18.596  0.00  0.00    -0.281 OA
ENDBRANCH  29  30
ENDBRANCH  27  29
ENDBRANCH  24  27
ENDBRANCH   7  24
TORSDOF 9
ENDMDL
