MODEL 1
REMARK VINA RESULT:      -0.9      0.000      0.000
REMARK  9 active torsions:
REMARK  status: ('A' for Active; 'I' for Inactive)
REMARK    1  A    between atoms: N_2  and  C_1 
REMARK       I    between atoms: C_4  and  N_2 
REMARK    2  A    between atoms: C_7  and  C_4 
REMARK    3  A    between atoms: C_8  and  C_5 
REMARK    4  A    between atoms: C_10  and  C_8 
REMARK       I    between atoms: N_12  and  C_10 
REMARK    5  A    between atoms: C_11  and  C_19 
REMARK    6  A    between atoms: C_19  and  N_12 
REMARK    7  A    between atoms: O_23  and  C_17 
REMARK    8  A    between atoms: O_24  and  C_18 
REMARK    9  A    between atoms: O_22  and  C_20 
ROOT
ATOM      1  C   UNL d   1      56.447   0.356  32.185  0.00  0.00     0.197 A 
ATOM      2  N   UNL d   1      56.463   0.649  31.405  0.00  0.00    -0.220 NA
ATOM      3  C   UNL d   1      57.083   0.290  31.008  0.00  0.00     0.095 A 
ATOM      4  S   UNL d   1      57.065  -0.184  32.252  0.00  0.00    -0.046 SA
ATOM      5  C   UNL d   1      57.457  -0.227  31.530  0.00  0.00     0.058 A 
ENDROOT
BRANCH   1   6
ATOM      6  N   UNL d   1      55.911   0.573  32.766  0.00  0.00    -0.183 NA
ATOM      7  C   UNL d   1      55.659   0.035  33.328  0.00  0.00     0.281 C 
ATOM      8  O   UNL d   1      55.944  -0.745  33.320  0.00  0.00    -0.265 OA
BRANCH   7   9
ATOM      9  C   UNL d   1      55.118   0.251  33.916  0.00  0.00     0.062 A 
ATOM     10  C   UNL d   1      55.359   0.355  34.684  0.00  0.00     0.029 A 
ATOM     11  C   UNL d   1      54.816   0.570  35.262  0.00  0.00     0.096 A 
ATOM     12  C   UNL d   1      54.021   0.681  35.061  0.00  0.00     0.048 A 
ATOM     13  C   UNL d   1      53.789   0.574  34.283  0.00  0.00     0.096 A 
ATOM     14  C   UNL d   1      54.323   0.360  33.701  0.00  0.00     0.029 A 
BRANCH  11  15
ATOM     15  O   UNL d   1      55.058   0.675  36.040  0.00  0.00    -0.328 OA
ATOM     16  C   UNL d   1      55.797   0.386  36.290  0.00  0.00     0.181 C 
ENDBRANCH  11  15
BRANCH  13  17
ATOM     17  O   UNL d   1      52.993   0.682  34.067  0.00  0.00    -0.328 OA
ATOM     18  C   UNL d   1      52.391   0.404  34.556  0.00  0.00     0.181 C 
ENDBRANCH  13  17
ENDBRANCH   7   9
ENDBRANCH   1   6
BRANCH   3  19
ATOM     19  C   UNL d   1      57.298   0.420  30.221  0.00  0.00     0.082 C 
BRANCH  19  20
ATOM     20  C   UNL d   1      57.687  -0.173  29.794  0.00  0.00     0.281 C 
ATOM     21  N   UNL d   1      58.277   0.033  29.261  0.00  0.00    -0.206 NA
ATOM     22  O   UNL d   1      57.478  -0.959  29.911  0.00  0.00    -0.265 OA
BRANCH  21  23
ATOM     23  C   UNL d   1      58.662  -0.554  28.838  0.00  0.00     0.104 C 
BRANCH  23  24
ATOM     24  C   UNL d   1      59.486  -0.546  28.775  0.00  0.00     0.042 A 
ATOM     25  C   UNL d   1      59.895  -1.253  28.644  0.00  0.00     0.096 A 
ATOM     26  C   UNL d   1      60.712  -1.258  28.580  0.00  0.00     0.024 A 
ATOM     27  C   UNL d   1      61.133  -0.554  28.645  0.00  0.00     0.002 A 
ATOM     28  C   UNL d   1      60.732   0.155  28.775  0.00  0.00     0.000 A 
ATOM     29  C   UNL d   1      59.910   0.161  28.841  0.00  0.00     0.004 A 
BRANCH  25  30
ATOM     30  O   UNL d   1      59.478  -1.971  28.577  0.00  0.00    -0.328 OA
ATOM     31  C   UNL d   1      59.876  -2.695  28.609  0.00  0.00     0.181 C 
ENDBRANCH  25  30
ENDBRANCH  23  24
ENDBRANCH  21  23
ENDBRANCH  19  20
ENDBRANCH   3  19
TORSDOF 9
ENDMDL
MODEL 2
REMARK VINA RESULT:       0.4      4.600      7.903
REMARK  9 active torsions:
REMARK  status: ('A' for Active; 'I' for Inactive)
REMARK    1  A    between atoms: N_2  and  C_1 
REMARK       I    between atoms: C_4  and  N_2 
REMARK    2  A    between atoms: C_7  and  C_4 
REMARK    3  A    between atoms: C_8  and  C_5 
REMARK    4  A    between atoms: C_10  and  C_8 
REMARK       I    between atoms: N_12  and  C_10 
REMARK    5  A    between atoms: C_11  and  C_19 
REMARK    6  A    between atoms: C_19  and  N_12 
REMARK    7  A    between atoms: O_23  and  C_17 
REMARK    8  A    between atoms: O_24  and  C_18 
REMARK    9  A    between atoms: O_22  and  C_20 
ROOT
ATOM      1  C   UNL d   1      58.619  -5.666  28.465  0.00  0.00     0.197 A 
ATOM      2  N   UNL d   1      59.235  -5.104  28.479  0.00  0.00    -0.220 NA
ATOM      3  C   UNL d   1      58.900  -4.356  28.486  0.00  0.00     0.095 A 
ATOM      4  S   UNL d   1      57.910  -5.247  28.465  0.00  0.00    -0.046 SA
ATOM      5  C   UNL d   1      58.080  -4.443  28.477  0.00  0.00     0.058 A 
ENDROOT
BRANCH   1   6
ATOM      6  N   UNL d   1      58.716  -6.480  28.455  0.00  0.00    -0.183 NA
ATOM      7  C   UNL d   1      58.078  -6.981  28.557  0.00  0.00     0.281 C 
ATOM      8  O   UNL d   1      57.316  -6.672  28.673  0.00  0.00    -0.265 OA
BRANCH   7   9
ATOM      9  C   UNL d   1      58.172  -7.803  28.547  0.00  0.00     0.062 A 
ATOM     10  C   UNL d   1      58.912  -8.136  28.506  0.00  0.00     0.029 A 
ATOM     11  C   UNL d   1      58.998  -8.953  28.497  0.00  0.00     0.096 A 
ATOM     12  C   UNL d   1      58.328  -9.438  28.529  0.00  0.00     0.048 A 
ATOM     13  C   UNL d   1      57.587  -9.092  28.569  0.00  0.00     0.096 A 
ATOM     14  C   UNL d   1      57.493  -8.280  28.579  0.00  0.00     0.029 A 
BRANCH  11  15
ATOM     15  O   UNL d   1      59.745  -9.291  28.455  0.00  0.00    -0.328 OA
ATOM     16  C   UNL d   1      60.115  -9.568  29.147  0.00  0.00     0.181 C 
ENDBRANCH  11  15
BRANCH  13  17
ATOM     17  O   UNL d   1      56.907  -9.569  28.602  0.00  0.00    -0.328 OA
ATOM     18  C   UNL d   1      56.461  -9.606  29.294  0.00  0.00     0.181 C 
ENDBRANCH  13  17
ENDBRANCH   7   9
ENDBRANCH   1   6
BRANCH   3  19
ATOM     19  C   UNL d   1      59.310  -3.640  28.500  0.00  0.00     0.082 C 
BRANCH  19  20
ATOM     20  C   UNL d   1      58.938  -2.955  28.782  0.00  0.00     0.281 C 
ATOM     21  N   UNL d   1      59.393  -2.300  28.979  0.00  0.00    -0.206 NA
ATOM     22  O   UNL d   1      58.121  -2.942  28.861  0.00  0.00    -0.265 OA
BRANCH  21  23
ATOM     23  C   UNL d   1      59.026  -1.623  29.258  0.00  0.00     0.104 C 
BRANCH  23  24
ATOM     24  C   UNL d   1      59.467  -0.937  29.391  0.00  0.00     0.042 A 
ATOM     25  C   UNL d   1      59.098  -0.264  29.700  0.00  0.00     0.096 A 
ATOM     26  C   UNL d   1      59.524   0.422  29.836  0.00  0.00     0.024 A 
ATOM     27  C   UNL d   1      60.329   0.445  29.664  0.00  0.00     0.002 A 
ATOM     28  C   UNL d   1      60.704  -0.222  29.356  0.00  0.00     0.000 A 
ATOM     29  C   UNL d   1      60.276  -0.913  29.219  0.00  0.00     0.004 A 
BRANCH  25  30
ATOM     30  O   UNL d   1      58.284  -0.278  29.877  0.00  0.00    -0.328 OA
ATOM     31  C   UNL d   1      57.967   0.228  30.449  0.00  0.00     0.181 C 
ENDBRANCH  25  30
ENDBRANCH  23  24
ENDBRANCH  21  23
ENDBRANCH  19  20
ENDBRANCH   3  19
TORSDOF 9
ENDMDL
