MODEL 1
REMARK VINA RESULT:     100.0      0.000      0.000
REMARK  9 active torsions:
REMARK  status: ('A' for Active; 'I' for Inactive)
REMARK    1  A    between atoms: C_7  and  C_1 
REMARK    2  A    between atoms: N_6  and  C_2 
REMARK    3  A    between atoms: C_9  and  C_3 
REMARK       I    between atoms: C_8  and  N_6 
REMARK    4  A    between atoms: O_22  and  C_7 
REMARK    5  A    between atoms: C_11  and  C_8 
REMARK    6  A    between atoms: N_10  and  C_15 
REMARK    7  A    between atoms: C_15  and  C_11 
REMARK    8  A    between atoms: C_21  and  C_12 
REMARK    9  A    between atoms: C_29  and  O_22 
ROOT
ATOM      1  C   UNL d   1     -55.828-101.005 -43.382  0.00  0.00     0.088 A 
ATOM      2  C   UNL d   1     -55.132-101.074 -42.909  0.00  0.00     0.119 A 
ATOM      3  C   UNL d   1     -55.852-100.244 -43.658  0.00  0.00     0.014 A 
ATOM      4  S   UNL d   1     -54.745-100.393 -42.892  0.00  0.00    -0.067 SA
ATOM      5  C   UNL d   1     -55.192 -99.846 -43.368  0.00  0.00     0.037 A 
ENDROOT
BRANCH   3   6
ATOM      6  C   UNL d   1     -56.453-100.005 -44.128  0.00  0.00     0.001 A 
ATOM      7  C   UNL d   1     -57.019-100.511 -44.391  0.00  0.00     0.000 A 
ATOM      8  C   UNL d   1     -57.647-100.245 -44.886  0.00  0.00     0.000 A 
ATOM      9  C   UNL d   1     -57.686 -99.503 -45.095  0.00  0.00     0.000 A 
ATOM     10  C   UNL d   1     -57.128 -98.951 -44.848  0.00  0.00     0.000 A 
ATOM     11  C   UNL d   1     -56.480 -99.179 -44.349  0.00  0.00     0.000 A 
BRANCH   9  12
ATOM     12  C   UNL d   1     -58.302 -99.258 -45.576  0.00  0.00     0.000 A 
ATOM     13  C   UNL d   1     -58.139 -99.034 -46.351  0.00  0.00     0.000 A 
ATOM     14  C   UNL d   1     -58.755 -98.787 -46.838  0.00  0.00     0.000 A 
ATOM     15  C   UNL d   1     -59.506 -98.768 -46.554  0.00  0.00     0.000 A 
ATOM     16  C   UNL d   1     -59.676 -98.993 -45.771  0.00  0.00     0.000 A 
ATOM     17  C   UNL d   1     -59.053 -99.241 -45.285  0.00  0.00     0.000 A 
ENDBRANCH   9  12
ENDBRANCH   3   6
BRANCH   1  18
ATOM     18  C   UNL d   1     -56.409-101.625 -43.546  0.00  0.00     0.302 C 
ATOM     19  O   UNL d   1     -56.913-101.889 -42.929  0.00  0.00    -0.259 OA
BRANCH  18  20
ATOM     20  O   UNL d   1     -56.459-101.946 -44.306  0.00  0.00    -0.271 OA
BRANCH  20  21
ATOM     21  C   UNL d   1     -56.017-102.659 -44.497  0.00  0.00     0.126 C 
ATOM     22  C   UNL d   1     -55.216-102.654 -44.412  0.00  0.00     0.029 C 
ENDBRANCH  20  21
ENDBRANCH  18  20
ENDBRANCH   1  18
BRANCH   2  23
ATOM     23  N   UNL d   1     -54.838-101.765 -42.483  0.00  0.00    -0.201 NA
ATOM     24  C   UNL d   1     -55.214-101.998 -41.790  0.00  0.00     0.281 C 
ATOM     25  O   UNL d   1     -55.891-101.561 -41.490  0.00  0.00    -0.265 OA
BRANCH  24  26
ATOM     26  C   UNL d   1     -54.953-102.661 -41.359  0.00  0.00     0.082 C 
BRANCH  26  27
ATOM     27  C   UNL d   1     -54.717-102.580 -40.559  0.00  0.00     0.085 C 
BRANCH  27  28
ATOM     28  N   UNL d   1     -55.268-102.447 -39.961  0.00  0.00    -0.299 N 
ATOM     29  C   UNL d   1     -56.018-102.848 -39.975  0.00  0.00     0.107 A 
ATOM     30  C   UNL d   1     -56.566-102.711 -39.374  0.00  0.00     0.142 A 
ATOM     31  O   UNL d   1     -56.379-102.189 -38.772  0.00  0.00    -0.300 OA
ATOM     32  C   UNL d   1     -55.634-101.761 -38.717  0.00  0.00     0.142 A 
ATOM     33  C   UNL d   1     -55.090-101.903 -39.322  0.00  0.00     0.107 A 
ENDBRANCH  27  28
ENDBRANCH  26  27
ENDBRANCH  24  26
ENDBRANCH   2  23
TORSDOF 9
ENDMDL
