MODEL 1
REMARK VINA RESULT:      -2.5      0.000      0.000
REMARK  0 active torsions:
REMARK  status: ('A' for Active; 'I' for Inactive)
ROOT
ATOM      1  N   UNL d   1      32.870  21.558 -20.223  0.00  0.00    -0.169 NA
ATOM      2  C   UNL d   1      32.855  22.325 -19.924  0.00  0.00     0.199 A 
ATOM      3  C   UNL d   1      32.470  22.938 -20.319  0.00  0.00     0.130 A 
ATOM      4  N   UNL d   1      32.094  22.024 -21.346  0.00  0.00    -0.151 NA
ATOM      5  C   UNL d   1      32.093  22.783 -21.027  0.00  0.00     0.292 A 
ATOM      6  C   UNL d   1      32.479  21.410 -20.950  0.00  0.00     0.373 A 
ATOM      7  O   UNL d   1      31.704  23.397 -21.428  0.00  0.00    -0.264 OA
ATOM      8  O   UNL d   1      32.487  20.642 -21.263  0.00  0.00    -0.242 OA
ATOM      9  N   UNL d   1      33.241  22.479 -19.201  0.00  0.00    -0.126 N 
ATOM     10 BR   UNL d   1      32.466  23.701 -20.003  0.00  0.00    -0.041 Br
ENDROOT
TORSDOF 0
ENDMDL
MODEL 2
REMARK VINA RESULT:      -2.5      1.052      1.577
REMARK  0 active torsions:
REMARK  status: ('A' for Active; 'I' for Inactive)
ROOT
ATOM      1  N   UNL d   1      31.925  22.247 -21.283  0.00  0.00    -0.169 NA
ATOM      2  C   UNL d   1      32.084  22.956 -20.896  0.00  0.00     0.199 A 
ATOM      3  C   UNL d   1      32.520  22.980 -20.195  0.00  0.00     0.130 A 
ATOM      4  N   UNL d   1      32.655  21.563 -20.245  0.00  0.00    -0.151 NA
ATOM      5  C   UNL d   1      32.802  22.284 -19.876  0.00  0.00     0.292 A 
ATOM      6  C   UNL d   1      32.220  21.539 -20.945  0.00  0.00     0.373 A 
ATOM      7  O   UNL d   1      33.241  22.304 -19.171  0.00  0.00    -0.264 OA
ATOM      8  O   UNL d   1      32.066  20.818 -21.326  0.00  0.00    -0.242 OA
ATOM      9  N   UNL d   1      31.795  23.665 -21.225  0.00  0.00    -0.126 N 
ATOM     10 BR   UNL d   1      32.669  23.702 -19.822  0.00  0.00    -0.041 Br
ENDROOT
TORSDOF 0
ENDMDL
MODEL 3
REMARK VINA RESULT:      -2.4      1.497      2.475
REMARK  0 active torsions:
REMARK  status: ('A' for Active; 'I' for Inactive)
ROOT
ATOM      1  N   UNL d   1      32.341  23.169 -21.909  0.00  0.00    -0.169 NA
ATOM      2  C   UNL d   1      32.784  22.531 -22.181  0.00  0.00     0.199 A 
ATOM      3  C   UNL d   1      32.788  21.806 -21.787  0.00  0.00     0.130 A 
ATOM      4  N   UNL d   1      31.890  22.341 -20.818  0.00  0.00    -0.151 NA
ATOM      5  C   UNL d   1      32.342  21.717 -21.109  0.00  0.00     0.292 A 
ATOM      6  C   UNL d   1      31.886  23.066 -21.213  0.00  0.00     0.373 A 
ATOM      7  O   UNL d   1      32.343  20.989 -20.710  0.00  0.00    -0.264 OA
ATOM      8  O   UNL d   1      31.435  23.701 -20.929  0.00  0.00    -0.242 OA
ATOM      9  N   UNL d   1      33.239  22.626 -22.873  0.00  0.00    -0.126 N 
ATOM     10 BR   UNL d   1      33.240  21.177 -22.075  0.00  0.00    -0.041 Br
ENDROOT
TORSDOF 0
ENDMDL
MODEL 4
REMARK VINA RESULT:      -2.1      7.121      7.381
REMARK  0 active torsions:
REMARK  status: ('A' for Active; 'I' for Inactive)
ROOT
ATOM      1  N   UNL d   1      29.393  16.019 -23.558  0.00  0.00    -0.169 NA
ATOM      2  C   UNL d   1      30.069  16.348 -23.894  0.00  0.00     0.199 A 
ATOM      3  C   UNL d   1      30.028  16.994 -24.405  0.00  0.00     0.130 A 
ATOM      4  N   UNL d   1      28.611  17.005 -24.259  0.00  0.00    -0.151 NA
ATOM      5  C   UNL d   1      29.300  17.318 -24.583  0.00  0.00     0.292 A 
ATOM      6  C   UNL d   1      28.651  16.359 -23.748  0.00  0.00     0.373 A 
ATOM      7  O   UNL d   1      29.255  17.968 -25.097  0.00  0.00    -0.264 OA
ATOM      8  O   UNL d   1      27.963  16.036 -23.415  0.00  0.00    -0.242 OA
ATOM      9  N   UNL d   1      30.810  16.015 -23.709  0.00  0.00    -0.126 N 
ATOM     10 BR   UNL d   1      30.717  17.311 -24.732  0.00  0.00    -0.041 Br
ENDROOT
TORSDOF 0
ENDMDL
MODEL 5
REMARK VINA RESULT:      -2.1      7.248      7.584
REMARK  0 active torsions:
REMARK  status: ('A' for Active; 'I' for Inactive)
ROOT
ATOM      1  N   UNL d   1      30.360  16.778 -24.451  0.00  0.00    -0.169 NA
ATOM      2  C   UNL d   1      29.542  16.746 -24.370  0.00  0.00     0.199 A 
ATOM      3  C   UNL d   1      29.181  16.308 -23.771  0.00  0.00     0.130 A 
ATOM      4  N   UNL d   1      30.467  15.912 -23.304  0.00  0.00    -0.151 NA
ATOM      5  C   UNL d   1      29.646  15.895 -23.243  0.00  0.00     0.292 A 
ATOM      6  C   UNL d   1      30.828  16.350 -23.902  0.00  0.00     0.373 A 
ATOM      7  O   UNL d   1      29.287  15.453 -22.639  0.00  0.00    -0.264 OA
ATOM      8  O   UNL d   1      31.654  16.374 -23.973  0.00  0.00    -0.242 OA
ATOM      9  N   UNL d   1      29.070  17.170 -24.912  0.00  0.00    -0.126 N 
ATOM     10 BR   UNL d   1      28.358  16.289 -23.707  0.00  0.00    -0.041 Br
ENDROOT
TORSDOF 0
ENDMDL
MODEL 6
REMARK VINA RESULT:      -2.1      6.842      7.198
REMARK  0 active torsions:
REMARK  status: ('A' for Active; 'I' for Inactive)
ROOT
ATOM      1  N   UNL d   1      30.830  16.519 -23.908  0.00  0.00    -0.169 NA
ATOM      2  C   UNL d   1      30.090  16.201 -23.738  0.00  0.00     0.199 A 
ATOM      3  C   UNL d   1      29.394  16.550 -24.012  0.00  0.00     0.130 A 
ATOM      4  N   UNL d   1      30.167  17.564 -24.647  0.00  0.00    -0.151 NA
ATOM      5  C   UNL d   1      29.438  17.228 -24.464  0.00  0.00     0.292 A 
ATOM      6  C   UNL d   1      30.863  17.216 -24.373  0.00  0.00     0.373 A 
ATOM      7  O   UNL d   1      28.741  17.582 -24.742  0.00  0.00    -0.264 OA
ATOM      8  O   UNL d   1      31.603  17.546 -24.552  0.00  0.00    -0.242 OA
ATOM      9  N   UNL d   1      30.049  15.508 -23.276  0.00  0.00    -0.126 N 
ATOM     10 BR   UNL d   1      28.661  16.216 -23.831  0.00  0.00    -0.041 Br
ENDROOT
TORSDOF 0
ENDMDL
MODEL 7
REMARK VINA RESULT:      -2.0      1.543      2.388
REMARK  0 active torsions:
REMARK  status: ('A' for Active; 'I' for Inactive)
ROOT
ATOM      1  N   UNL d   1      32.427  23.599 -19.844  0.00  0.00    -0.169 NA
ATOM      2  C   UNL d   1      32.321  23.190 -20.551  0.00  0.00     0.199 A 
ATOM      3  C   UNL d   1      32.589  22.416 -20.649  0.00  0.00     0.130 A 
ATOM      4  N   UNL d   1      33.087  22.433 -19.314  0.00  0.00    -0.151 NA
ATOM      5  C   UNL d   1      32.970  22.044 -20.030  0.00  0.00     0.292 A 
ATOM      6  C   UNL d   1      32.819  23.207 -19.216  0.00  0.00     0.373 A 
ATOM      7  O   UNL d   1      33.241  21.265 -20.124  0.00  0.00    -0.264 OA
ATOM      8  O   UNL d   1      32.932  23.609 -18.499  0.00  0.00    -0.242 OA
ATOM      9  N   UNL d   1      31.931  23.574 -21.180  0.00  0.00    -0.126 N 
ATOM     10 BR   UNL d   1      32.473  22.022 -21.365  0.00  0.00    -0.041 Br
ENDROOT
TORSDOF 0
ENDMDL
MODEL 8
REMARK VINA RESULT:      -2.0      6.562      6.969
REMARK  0 active torsions:
REMARK  status: ('A' for Active; 'I' for Inactive)
ROOT
ATOM      1  N   UNL d   1      29.801  16.361 -23.993  0.00  0.00    -0.169 NA
ATOM      2  C   UNL d   1      30.580  16.260 -23.747  0.00  0.00     0.199 A 
ATOM      3  C   UNL d   1      31.173  16.795 -23.954  0.00  0.00     0.130 A 
ATOM      4  N   UNL d   1      30.212  17.563 -24.674  0.00  0.00    -0.151 NA
ATOM      5  C   UNL d   1      30.985  17.442 -24.416  0.00  0.00     0.292 A 
ATOM      6  C   UNL d   1      29.619  17.028 -24.466  0.00  0.00     0.373 A 
ATOM      7  O   UNL d   1      31.579  17.982 -24.627  0.00  0.00    -0.264 OA
ATOM      8  O   UNL d   1      28.838  17.140 -24.720  0.00  0.00    -0.242 OA
ATOM      9  N   UNL d   1      30.769  15.599 -23.276  0.00  0.00    -0.126 N 
ATOM     10 BR   UNL d   1      31.950  16.677 -23.698  0.00  0.00    -0.041 Br
ENDROOT
TORSDOF 0
ENDMDL
MODEL 9
REMARK VINA RESULT:      -2.0      6.601      7.041
REMARK  0 active torsions:
REMARK  status: ('A' for Active; 'I' for Inactive)
ROOT
ATOM      1  N   UNL d   1      30.254  17.573 -24.674  0.00  0.00    -0.169 NA
ATOM      2  C   UNL d   1      31.020  17.424 -24.413  0.00  0.00     0.199 A 
ATOM      3  C   UNL d   1      31.198  16.774 -23.937  0.00  0.00     0.130 A 
ATOM      4  N   UNL d   1      29.825  16.392 -23.967  0.00  0.00    -0.151 NA
ATOM      5  C   UNL d   1      30.599  16.264 -23.717  0.00  0.00     0.292 A 
ATOM      6  C   UNL d   1      29.647  17.042 -24.443  0.00  0.00     0.373 A 
ATOM      7  O   UNL d   1      30.774  15.609 -23.238  0.00  0.00    -0.264 OA
ATOM      8  O   UNL d   1      28.871  17.182 -24.700  0.00  0.00    -0.242 OA
ATOM      9  N   UNL d   1      31.628  17.948 -24.639  0.00  0.00    -0.126 N 
ATOM     10 BR   UNL d   1      31.973  16.642 -23.685  0.00  0.00    -0.041 Br
ENDROOT
TORSDOF 0
ENDMDL
