MODEL 1
REMARK VINA RESULT:      -7.6      0.000      0.000
REMARK  5 active torsions:
REMARK  status: ('A' for Active; 'I' for Inactive)
REMARK    1  A    between atoms: N_4  and  C_2 
REMARK    2  A    between atoms: C_11  and  C_3 
REMARK       I    between atoms: C_8  and  N_4 
REMARK    3  A    between atoms: C_14  and  C_5 
REMARK    4  A    between atoms: C_7  and  C_8 
REMARK    5  A    between atoms: C_17  and  C_14 
ROOT
ATOM      1  C   UNL d   1     -48.569  14.816  22.798  0.00  0.00     0.101 A 
ATOM      2  O   UNL d   1     -48.152  14.142  23.043  0.00  0.00    -0.302 OA
ATOM      3  C   UNL d   1     -47.356  14.263  22.877  0.00  0.00     0.158 A 
ATOM      4  C   UNL d   1     -48.028  15.347  22.482  0.00  0.00     0.027 A 
ATOM      5  C   UNL d   1     -47.276  15.012  22.528  0.00  0.00     0.032 A 
ENDROOT
BRANCH   3   6
ATOM      6  C   UNL d   1     -46.742  13.733  23.030  0.00  0.00     0.304 C 
ATOM      7  N   UNL d   1     -46.624  13.086  22.532  0.00  0.00    -0.180 NA
ATOM      8  O   UNL d   1     -46.252  13.853  23.677  0.00  0.00    -0.263 OA
BRANCH   7   9
ATOM      9  C   UNL d   1     -46.012  12.556  22.683  0.00  0.00     0.216 A 
ATOM     10  N   UNL d   1     -46.017  11.959  23.247  0.00  0.00    -0.200 NA
ATOM     11  C   UNL d   1     -45.295  11.565  23.206  0.00  0.00     0.175 A 
ATOM     12  N   UNL d   1     -44.843  11.921  22.614  0.00  0.00    -0.187 NA
ATOM     13  S   UNL d   1     -45.290  12.537  22.290  0.00  0.00     0.054 SA
BRANCH  11  14
ATOM     14  C   UNL d   1     -45.060  10.926  23.673  0.00  0.00     0.082 C 
BRANCH  14  15
ATOM     15  C   UNL d   1     -44.362  10.523  23.495  0.00  0.00     0.199 C 
ATOM     16  O   UNL d   1     -43.679  10.943  23.315  0.00  0.00    -0.286 OA
ATOM     17  C   UNL d   1     -44.349   9.698  23.496  0.00  0.00     0.045 C 
ENDBRANCH  14  15
ENDBRANCH  11  14
ENDBRANCH   7   9
ENDBRANCH   3   6
BRANCH   1  18
ATOM     18  C   UNL d   1     -49.385  14.931  22.861  0.00  0.00     0.033 A 
ATOM     19  C   UNL d   1     -49.896  14.556  22.333  0.00  0.00     0.060 A 
ATOM     20 CL   UNL d   1     -49.595  14.064  21.742  0.00  0.00    -0.082 Cl
ATOM     21  C   UNL d   1     -50.708  14.667  22.392  0.00  0.00     0.011 A 
ATOM     22  C   UNL d   1     -51.017  15.161  22.986  0.00  0.00     0.001 A 
ATOM     23  C   UNL d   1     -50.509  15.536  23.512  0.00  0.00     0.000 A 
ATOM     24  C   UNL d   1     -49.694  15.425  23.454  0.00  0.00     0.003 A 
ENDBRANCH   1  18
TORSDOF 5
ENDMDL
MODEL 2
REMARK VINA RESULT:      -7.0      1.553      1.773
REMARK  5 active torsions:
REMARK  status: ('A' for Active; 'I' for Inactive)
REMARK    1  A    between atoms: N_4  and  C_2 
REMARK    2  A    between atoms: C_11  and  C_3 
REMARK       I    between atoms: C_8  and  N_4 
REMARK    3  A    between atoms: C_14  and  C_5 
REMARK    4  A    between atoms: C_7  and  C_8 
REMARK    5  A    between atoms: C_17  and  C_14 
ROOT
ATOM      1  C   UNL d   1     -48.449  14.248  22.746  0.00  0.00     0.101 A 
ATOM      2  O   UNL d   1     -47.887  13.648  22.857  0.00  0.00    -0.302 OA
ATOM      3  C   UNL d   1     -47.141  13.980  22.769  0.00  0.00     0.158 A 
ATOM      4  C   UNL d   1     -48.044  14.946  22.590  0.00  0.00     0.027 A 
ATOM      5  C   UNL d   1     -47.236  14.788  22.603  0.00  0.00     0.032 A 
ENDROOT
BRANCH   3   6
ATOM      6  C   UNL d   1     -46.420  13.581  22.835  0.00  0.00     0.304 C 
ATOM      7  N   UNL d   1     -46.062  13.267  22.162  0.00  0.00    -0.180 NA
ATOM      8  O   UNL d   1     -46.066  13.499  23.570  0.00  0.00    -0.263 OA
BRANCH   7   9
ATOM      9  C   UNL d   1     -45.344  12.869  22.224  0.00  0.00     0.216 A 
ATOM     10  N   UNL d   1     -44.627  13.112  21.906  0.00  0.00    -0.200 NA
ATOM     11  C   UNL d   1     -44.059  12.549  22.103  0.00  0.00     0.175 A 
ATOM     12  N   UNL d   1     -44.426  11.958  22.545  0.00  0.00    -0.187 NA
ATOM     13  S   UNL d   1     -45.226  12.158  22.620  0.00  0.00     0.054 SA
BRANCH  11  14
ATOM     14  C   UNL d   1     -43.259  12.570  21.897  0.00  0.00     0.082 C 
BRANCH  14  15
ATOM     15  C   UNL d   1     -43.025  12.945  21.201  0.00  0.00     0.199 C 
ATOM     16  O   UNL d   1     -43.189  12.602  20.472  0.00  0.00    -0.286 OA
ATOM     17  C   UNL d   1     -42.625  13.667  21.234  0.00  0.00     0.045 C 
ENDBRANCH  14  15
ENDBRANCH  11  14
ENDBRANCH   7   9
ENDBRANCH   3   6
BRANCH   1  18
ATOM     18  C   UNL d   1     -49.270  14.159  22.785  0.00  0.00     0.033 A 
ATOM     19  C   UNL d   1     -49.692  13.934  22.113  0.00  0.00     0.060 A 
ATOM     20 CL   UNL d   1     -49.298  13.798  21.400  0.00  0.00    -0.082 Cl
ATOM     21  C   UNL d   1     -50.508  13.844  22.147  0.00  0.00     0.011 A 
ATOM     22  C   UNL d   1     -50.910  13.979  22.862  0.00  0.00     0.001 A 
ATOM     23  C   UNL d   1     -50.491  14.202  23.532  0.00  0.00     0.000 A 
ATOM     24  C   UNL d   1     -49.672  14.294  23.499  0.00  0.00     0.003 A 
ENDBRANCH   1  18
TORSDOF 5
ENDMDL
MODEL 3
REMARK VINA RESULT:      -6.3      8.530      9.725
REMARK  5 active torsions:
REMARK  status: ('A' for Active; 'I' for Inactive)
REMARK    1  A    between atoms: N_4  and  C_2 
REMARK    2  A    between atoms: C_11  and  C_3 
REMARK       I    between atoms: C_8  and  N_4 
REMARK    3  A    between atoms: C_14  and  C_5 
REMARK    4  A    between atoms: C_7  and  C_8 
REMARK    5  A    between atoms: C_17  and  C_14 
ROOT
ATOM      1  C   UNL d   1     -39.458  14.352  17.602  0.00  0.00     0.101 A 
ATOM      2  O   UNL d   1     -39.194  14.411  18.387  0.00  0.00    -0.302 OA
ATOM      3  C   UNL d   1     -39.855  14.452  18.873  0.00  0.00     0.158 A 
ATOM      4  C   UNL d   1     -40.279  14.358  17.611  0.00  0.00     0.027 A 
ATOM      5  C   UNL d   1     -40.531  14.419  18.393  0.00  0.00     0.032 A 
ENDROOT
BRANCH   3   6
ATOM      6  C   UNL d   1     -39.849  14.516  19.697  0.00  0.00     0.304 C 
ATOM      7  N   UNL d   1     -39.219  14.890  20.075  0.00  0.00    -0.180 NA
ATOM      8  O   UNL d   1     -40.470  14.206  20.133  0.00  0.00    -0.263 OA
BRANCH   7   9
ATOM      9  C   UNL d   1     -39.211  14.954  20.896  0.00  0.00     0.216 A 
ATOM     10  N   UNL d   1     -38.771  14.492  21.413  0.00  0.00    -0.200 NA
ATOM     11  C   UNL d   1     -38.931  14.746  22.180  0.00  0.00     0.175 A 
ATOM     12  N   UNL d   1     -39.472  15.368  22.135  0.00  0.00    -0.187 NA
ATOM     13  S   UNL d   1     -39.645  15.496  21.336  0.00  0.00     0.054 SA
BRANCH  11  14
ATOM     14  C   UNL d   1     -38.609  14.437  22.874  0.00  0.00     0.082 C 
BRANCH  14  15
ATOM     15  C   UNL d   1     -38.632  13.624  23.010  0.00  0.00     0.199 C 
ATOM     16  O   UNL d   1     -39.344  13.257  23.197  0.00  0.00    -0.286 OA
ATOM     17  C   UNL d   1     -37.941  13.176  22.958  0.00  0.00     0.045 C 
ENDBRANCH  14  15
ENDBRANCH  11  14
ENDBRANCH   7   9
ENDBRANCH   3   6
BRANCH   1  18
ATOM     18  C   UNL d   1     -38.978  14.297  16.931  0.00  0.00     0.033 A 
ATOM     19  C   UNL d   1     -38.839  14.966  16.468  0.00  0.00     0.060 A 
ATOM     20 CL   UNL d   1     -39.178  15.691  16.673  0.00  0.00    -0.082 Cl
ATOM     21  C   UNL d   1     -38.362  14.916  15.801  0.00  0.00     0.011 A 
ATOM     22  C   UNL d   1     -38.018  14.189  15.591  0.00  0.00     0.001 A 
ATOM     23  C   UNL d   1     -38.156  13.522  16.050  0.00  0.00     0.000 A 
ATOM     24  C   UNL d   1     -38.634  13.571  16.721  0.00  0.00     0.003 A 
ENDBRANCH   1  18
TORSDOF 5
ENDMDL
MODEL 4
REMARK VINA RESULT:      -5.5      2.317      5.573
REMARK  5 active torsions:
REMARK  status: ('A' for Active; 'I' for Inactive)
REMARK    1  A    between atoms: N_4  and  C_2 
REMARK    2  A    between atoms: C_11  and  C_3 
REMARK       I    between atoms: C_8  and  N_4 
REMARK    3  A    between atoms: C_14  and  C_5 
REMARK    4  A    between atoms: C_7  and  C_8 
REMARK    5  A    between atoms: C_17  and  C_14 
ROOT
ATOM      1  C   UNL d   1     -45.127  12.856  22.286  0.00  0.00     0.101 A 
ATOM      2  O   UNL d   1     -45.544  13.574  22.324  0.00  0.00    -0.302 OA
ATOM      3  C   UNL d   1     -46.277  13.422  22.662  0.00  0.00     0.158 A 
ATOM      4  C   UNL d   1     -45.608  12.269  22.600  0.00  0.00     0.027 A 
ATOM      5  C   UNL d   1     -46.320  12.612  22.834  0.00  0.00     0.032 A 
ENDROOT
BRANCH   3   6
ATOM      6  C   UNL d   1     -46.871  13.979  22.805  0.00  0.00     0.304 C 
ATOM      7  N   UNL d   1     -47.612  13.888  22.456  0.00  0.00    -0.180 NA
ATOM      8  O   UNL d   1     -46.718  14.620  23.294  0.00  0.00    -0.263 OA
BRANCH   7   9
ATOM      9  C   UNL d   1     -48.205  14.442  22.597  0.00  0.00     0.216 A 
ATOM     10  N   UNL d   1     -48.801  14.380  23.159  0.00  0.00    -0.200 NA
ATOM     11  C   UNL d   1     -49.268  15.056  23.108  0.00  0.00     0.175 A 
ATOM     12  N   UNL d   1     -48.960  15.537  22.513  0.00  0.00    -0.187 NA
ATOM     13  S   UNL d   1     -48.298  15.153  22.196  0.00  0.00     0.054 SA
BRANCH  11  14
ATOM     14  C   UNL d   1     -49.931  15.227  23.570  0.00  0.00     0.082 C 
BRANCH  14  15
ATOM     15  C   UNL d   1     -50.685  15.044  23.289  0.00  0.00     0.199 C 
ATOM     16  O   UNL d   1     -51.064  15.551  22.764  0.00  0.00    -0.286 OA
ATOM     17  C   UNL d   1     -51.061  14.351  23.534  0.00  0.00     0.045 C 
ENDBRANCH  14  15
ENDBRANCH  11  14
ENDBRANCH   7   9
ENDBRANCH   3   6
BRANCH   1  18
ATOM     18  C   UNL d   1     -44.365  12.754  21.984  0.00  0.00     0.033 A 
ATOM     19  C   UNL d   1     -43.893  12.135  22.258  0.00  0.00     0.060 A 
ATOM     20 CL   UNL d   1     -44.181  11.616  22.834  0.00  0.00    -0.082 Cl
ATOM     21  C   UNL d   1     -43.134  12.029  21.961  0.00  0.00     0.011 A 
ATOM     22  C   UNL d   1     -42.840  12.548  21.383  0.00  0.00     0.001 A 
ATOM     23  C   UNL d   1     -43.308  13.165  21.109  0.00  0.00     0.000 A 
ATOM     24  C   UNL d   1     -44.070  13.272  21.406  0.00  0.00     0.003 A 
ENDBRANCH   1  18
TORSDOF 5
ENDMDL
MODEL 5
REMARK VINA RESULT:      -5.3      5.455      7.328
REMARK  5 active torsions:
REMARK  status: ('A' for Active; 'I' for Inactive)
REMARK    1  A    between atoms: N_4  and  C_2 
REMARK    2  A    between atoms: C_11  and  C_3 
REMARK       I    between atoms: C_8  and  N_4 
REMARK    3  A    between atoms: C_14  and  C_5 
REMARK    4  A    between atoms: C_7  and  C_8 
REMARK    5  A    between atoms: C_17  and  C_14 
ROOT
ATOM      1  C   UNL d   1     -40.614  14.361  19.556  0.00  0.00     0.101 A 
ATOM      2  O   UNL d   1     -41.380  14.108  19.752  0.00  0.00    -0.302 OA
ATOM      3  C   UNL d   1     -41.417  14.022  20.568  0.00  0.00     0.158 A 
ATOM      4  C   UNL d   1     -40.185  14.429  20.254  0.00  0.00     0.027 A 
ATOM      5  C   UNL d   1     -40.676  14.221  20.883  0.00  0.00     0.032 A 
ENDROOT
BRANCH   3   6
ATOM      6  C   UNL d   1     -42.078  13.780  21.001  0.00  0.00     0.304 C 
ATOM      7  N   UNL d   1     -42.433  13.054  20.838  0.00  0.00    -0.180 NA
ATOM      8  O   UNL d   1     -42.377  14.264  21.592  0.00  0.00    -0.263 OA
BRANCH   7   9
ATOM      9  C   UNL d   1     -43.091  12.810  21.268  0.00  0.00     0.216 A 
ATOM     10  N   UNL d   1     -43.866  13.052  21.145  0.00  0.00    -0.200 NA
ATOM     11  C   UNL d   1     -44.341  12.672  21.699  0.00  0.00     0.175 A 
ATOM     12  N   UNL d   1     -43.858  12.193  22.167  0.00  0.00    -0.187 NA
ATOM     13  S   UNL d   1     -43.080  12.280  21.897  0.00  0.00     0.054 SA
BRANCH  11  14
ATOM     14  C   UNL d   1     -45.159  12.752  21.778  0.00  0.00     0.082 C 
BRANCH  14  15
ATOM     15  C   UNL d   1     -45.476  13.059  22.476  0.00  0.00     0.199 C 
ATOM     16  O   UNL d   1     -45.468  12.610  23.164  0.00  0.00    -0.286 OA
ATOM     17  C   UNL d   1     -45.801  13.817  22.484  0.00  0.00     0.045 C 
ENDBRANCH  14  15
ENDBRANCH  11  14
ENDBRANCH   7   9
ENDBRANCH   3   6
BRANCH   1  18
ATOM     18  C   UNL d   1     -40.334  14.516  18.795  0.00  0.00     0.033 A 
ATOM     19  C   UNL d   1     -40.401  15.275  18.477  0.00  0.00     0.060 A 
ATOM     20 CL   UNL d   1     -40.747  15.881  18.919  0.00  0.00    -0.082 Cl
ATOM     21  C   UNL d   1     -40.123  15.434  17.721  0.00  0.00     0.011 A 
ATOM     22  C   UNL d   1     -39.773  14.828  17.272  0.00  0.00     0.001 A 
ATOM     23  C   UNL d   1     -39.706  14.072  17.586  0.00  0.00     0.000 A 
ATOM     24  C   UNL d   1     -39.984  13.911  18.346  0.00  0.00     0.003 A 
ENDBRANCH   1  18
TORSDOF 5
ENDMDL
MODEL 6
REMARK VINA RESULT:      -4.8      4.221      6.392
REMARK  5 active torsions:
REMARK  status: ('A' for Active; 'I' for Inactive)
REMARK    1  A    between atoms: N_4  and  C_2 
REMARK    2  A    between atoms: C_11  and  C_3 
REMARK       I    between atoms: C_8  and  N_4 
REMARK    3  A    between atoms: C_14  and  C_5 
REMARK    4  A    between atoms: C_7  and  C_8 
REMARK    5  A    between atoms: C_17  and  C_14 
ROOT
ATOM      1  C   UNL d   1     -41.807  14.006  21.024  0.00  0.00     0.101 A 
ATOM      2  O   UNL d   1     -42.448  13.949  21.548  0.00  0.00    -0.302 OA
ATOM      3  C   UNL d   1     -42.900  13.301  21.324  0.00  0.00     0.158 A 
ATOM      4  C   UNL d   1     -41.869  13.392  20.481  0.00  0.00     0.027 A 
ATOM      5  C   UNL d   1     -42.543  12.953  20.661  0.00  0.00     0.032 A 
ENDROOT
BRANCH   3   6
ATOM      6  C   UNL d   1     -43.592  13.040  21.694  0.00  0.00     0.304 C 
ATOM      7  N   UNL d   1     -44.258  13.525  21.709  0.00  0.00    -0.180 NA
ATOM      8  O   UNL d   1     -43.611  12.298  22.044  0.00  0.00    -0.263 OA
BRANCH   7   9
ATOM      9  C   UNL d   1     -44.948  13.267  22.077  0.00  0.00     0.216 A 
ATOM     10  N   UNL d   1     -45.459  13.729  22.524  0.00  0.00    -0.200 NA
ATOM     11  C   UNL d   1     -46.074  13.247  22.785  0.00  0.00     0.175 A 
ATOM     12  N   UNL d   1     -45.942  12.485  22.496  0.00  0.00    -0.187 NA
ATOM     13  S   UNL d   1     -45.241  12.499  22.056  0.00  0.00     0.054 SA
BRANCH  11  14
ATOM     14  C   UNL d   1     -46.713  13.480  23.252  0.00  0.00     0.082 C 
BRANCH  14  15
ATOM     15  C   UNL d   1     -47.438  13.653  22.899  0.00  0.00     0.199 C 
ATOM     16  O   UNL d   1     -47.950  13.045  22.689  0.00  0.00    -0.286 OA
ATOM     17  C   UNL d   1     -47.651  14.437  22.754  0.00  0.00     0.045 C 
ENDBRANCH  14  15
ENDBRANCH  11  14
ENDBRANCH   7   9
ENDBRANCH   3   6
BRANCH   1  18
ATOM     18  C   UNL d   1     -41.212  14.579  21.046  0.00  0.00     0.033 A 
ATOM     19  C   UNL d   1     -40.460  14.383  21.324  0.00  0.00     0.060 A 
ATOM     20 CL   UNL d   1     -40.300  13.614  21.581  0.00  0.00    -0.082 Cl
ATOM     21  C   UNL d   1     -39.866  14.950  21.347  0.00  0.00     0.011 A 
ATOM     22  C   UNL d   1     -40.022  15.724  21.089  0.00  0.00     0.001 A 
ATOM     23  C   UNL d   1     -40.769  15.922  20.812  0.00  0.00     0.000 A 
ATOM     24  C   UNL d   1     -41.367  15.354  20.788  0.00  0.00     0.003 A 
ENDBRANCH   1  18
TORSDOF 5
ENDMDL
