MODEL 1
REMARK VINA RESULT:     135.9      0.000      0.000
REMARK  8 active torsions:
REMARK  status: ('A' for Active; 'I' for Inactive)
REMARK    1  A    between atoms: C_9  and  N_1 
REMARK    2  A    between atoms: C_7  and  C_2 
REMARK    3  A    between atoms: C_6  and  C_4 
REMARK    4  A    between atoms: C_8  and  C_12 
REMARK       I    between atoms: N_25  and  C_8 
REMARK    5  A    between atoms: N_11  and  C_26 
REMARK    6  A    between atoms: C_30  and  N_25 
REMARK    7  A    between atoms: C_26  and  C_27 
REMARK    8  A    between atoms: C_27  and  C_30 
ROOT
ATOM      1  C   UNL d   1     -57.289-101.437 -38.725  0.00  0.00     0.083 A 
ATOM      2  C   UNL d   1     -58.548-100.660 -39.455  0.00  0.00     0.058 A 
ATOM      3  C   UNL d   1     -57.612-101.747 -39.416  0.00  0.00     0.019 A 
ATOM      4  C   UNL d   1     -57.588-100.742 -38.396  0.00  0.00     0.019 A 
ATOM      5  C   UNL d   1     -58.214-100.354 -38.756  0.00  0.00     0.006 A 
ATOM      6  C   UNL d   1     -58.236-101.363 -39.778  0.00  0.00     0.006 A 
ENDROOT
BRANCH   1   7
ATOM      7  N   UNL d   1     -56.656-101.823 -38.354  0.00  0.00    -0.229 N 
ATOM      8  C   UNL d   1     -56.083-102.286 -38.720  0.00  0.00     0.090 A 
ATOM      9  C   UNL d   1     -55.563-102.558 -38.140  0.00  0.00     0.044 A 
ATOM     10  C   UNL d   1     -55.824-102.258 -37.415  0.00  0.00     0.174 A 
ATOM     11  N   UNL d   1     -56.495-101.808 -37.557  0.00  0.00    -0.161 NA
BRANCH   8  12
ATOM     12  C   UNL d   1     -55.961-102.498 -39.508  0.00  0.00     0.047 A 
ATOM     13  S   UNL d   1     -56.299-102.880 -40.168  0.00  0.00    -0.085 SA
ATOM     14  C   UNL d   1     -55.756-102.842 -40.794  0.00  0.00     0.035 A 
ATOM     15  C   UNL d   1     -55.093-102.442 -40.522  0.00  0.00     0.007 A 
ATOM     16  C   UNL d   1     -55.208-102.230 -39.743  0.00  0.00     0.009 A 
ENDBRANCH   8  12
BRANCH  10  17
ATOM     17  C   UNL d   1     -55.470-102.389 -36.678  0.00  0.00     0.437 C 
ATOM     18  F   UNL d   1     -55.745-102.873 -36.015  0.00  0.00    -0.164 F 
ATOM     19  F   UNL d   1     -54.724-102.079 -36.363  0.00  0.00    -0.164 F 
ATOM     20  F   UNL d   1     -55.146-102.509 -36.005  0.00  0.00    -0.164 F 
ENDBRANCH  10  17
ENDBRANCH   1   7
BRANCH   2  21
ATOM     21  C   UNL d   1     -59.178-100.271 -39.821  0.00  0.00     0.279 C 
ATOM     22  O   UNL d   1     -59.942-100.374 -39.537  0.00  0.00    -0.265 OA
ATOM     23  N   UNL d   1     -59.035 -99.782 -40.469  0.00  0.00    -0.206 NA
BRANCH  23  24
ATOM     24  C   UNL d   1     -59.663 -99.395 -40.832  0.00  0.00     0.104 C 
BRANCH  24  25
ATOM     25  C   UNL d   1     -59.628 -99.212 -41.640  0.00  0.00     0.040 C 
BRANCH  25  26
ATOM     26  C   UNL d   1     -58.965 -98.853 -41.957  0.00  0.00     0.082 C 
BRANCH  26  27
ATOM     27  N   UNL d   1     -58.791 -98.923 -42.763  0.00  0.00    -0.299 N 
ATOM     28  C   UNL d   1     -59.375 -98.758 -43.325  0.00  0.00     0.107 A 
ATOM     29  C   UNL d   1     -59.191 -98.830 -44.125  0.00  0.00     0.142 A 
ATOM     30  O   UNL d   1     -58.439 -99.062 -44.361  0.00  0.00    -0.300 OA
ATOM     31  C   UNL d   1     -57.863 -99.225 -43.797  0.00  0.00     0.142 A 
ATOM     32  C   UNL d   1     -58.036 -99.156 -42.987  0.00  0.00     0.107 A 
ENDBRANCH  26  27
ENDBRANCH  25  26
ENDBRANCH  24  25
ENDBRANCH  23  24
ENDBRANCH   2  21
TORSDOF 8
ENDMDL
