MODEL 1
REMARK VINA RESULT:      51.6      0.000      0.000
REMARK  4 active torsions:
REMARK  status: ('A' for Active; 'I' for Inactive)
REMARK    1  A    between atoms: C_2  and  S_1 
REMARK    2  A    between atoms: N_3  and  S_1 
REMARK    3  A    between atoms: C_5  and  C_6 
REMARK       I    between atoms: N_7  and  C_5 
REMARK    4  A    between atoms: C_15  and  N_7 
ROOT
ATOM      1  C   UNL d   1      46.168 -18.975  41.519  0.00  0.00     0.115 A 
ATOM      2  C   UNL d   1      45.914 -18.310  41.084  0.00  0.00     0.019 A 
ATOM      3  C   UNL d   1      45.890 -18.339  40.259  0.00  0.00     0.059 A 
ATOM      4  C   UNL d   1      46.393 -19.657  41.116  0.00  0.00     0.070 A 
ATOM      5  C   UNL d   1      46.119 -19.032  39.866  0.00  0.00     0.006 A 
ATOM      6  C   UNL d   1      46.368 -19.686  40.292  0.00  0.00     0.012 A 
ATOM      7 CL   UNL d   1      46.646 -20.322  41.551  0.00  0.00    -0.082 Cl
ENDROOT
BRANCH   1   8
ATOM      8  S   UNL d   1      46.192 -18.946  42.343  0.00  0.00     0.272 S 
ATOM      9  O   UNL d   1      46.646 -18.253  42.305  0.00  0.00    -0.200 OA
ATOM     10  O   UNL d   1      45.743 -19.633  42.380  0.00  0.00    -0.200 OA
BRANCH   8  11
ATOM     11  N   UNL d   1      46.217 -18.918  43.162  0.00  0.00    -0.229 N 
ATOM     12  C   UNL d   1      46.375 -19.688  43.516  0.00  0.00     0.092 A 
ATOM     13  C   UNL d   1      46.445 -19.933  44.186  0.00  0.00     0.020 A 
ATOM     14  C   UNL d   1      46.383 -19.469  44.882  0.00  0.00     0.002 A 
ATOM     15  C   UNL d   1      46.223 -18.611  44.931  0.00  0.00     0.002 A 
ATOM     16  C   UNL d   1      46.093 -18.049  44.255  0.00  0.00     0.020 A 
ATOM     17  C   UNL d   1      46.101 -18.248  43.441  0.00  0.00     0.092 A 
ENDBRANCH   8  11
ENDBRANCH   1   8
BRANCH   3  18
ATOM     18  C   UNL d   1      45.640 -17.686  39.826  0.00  0.00     0.279 C 
ATOM     19  N   UNL d   1      45.410 -17.769  39.042  0.00  0.00    -0.206 NA
ATOM     20  O   UNL d   1      45.621 -16.941  40.182  0.00  0.00    -0.265 OA
BRANCH  19  21
ATOM     21  C   UNL d   1      45.159 -17.116  38.604  0.00  0.00     0.104 A 
ATOM     22  C   UNL d   1      45.707 -16.593  38.307  0.00  0.00     0.118 A 
ATOM     23  N   UNL d   1      45.453 -15.943  37.871  0.00  0.00    -0.241 NA
ATOM     24  C   UNL d   1      44.643 -15.825  37.738  0.00  0.00     0.099 A 
ATOM     25  C   UNL d   1      44.094 -16.356  38.040  0.00  0.00     0.022 A 
ATOM     26  C   UNL d   1      44.351 -17.013  38.481  0.00  0.00     0.022 A 
ENDBRANCH  19  21
ENDBRANCH   3  18
TORSDOF 4
ENDMDL
