MODEL 1
REMARK VINA RESULT:      11.6      0.000      0.000
REMARK  1 active torsions:
REMARK  status: ('A' for Active; 'I' for Inactive)
REMARK    1  A    between atoms: C_9  and  C_3 
ROOT
ATOM      1  N   UNL d   1      59.077  49.685  49.734  0.00  0.00    -0.145 NA
ATOM      2  N   UNL d   1      59.877  49.683  49.926  0.00  0.00    -0.106 NA
ATOM      3  C   UNL d   1      58.508  49.697  50.334  0.00  0.00     0.103 A 
ATOM      4  C   UNL d   1      60.113  49.694  50.716  0.00  0.00     0.297 A 
ATOM      5  C   UNL d   1      58.736  49.708  51.127  0.00  0.00     0.026 A 
ATOM      6  C   UNL d   1      59.544  49.706  51.316  0.00  0.00     0.066 A 
ATOM      7  O   UNL d   1      60.914  49.692  50.908  0.00  0.00    -0.264 OA
ENDROOT
BRANCH   3   8
ATOM      8  C   UNL d   1      57.706  49.699  50.142  0.00  0.00     0.022 A 
ATOM      9  C   UNL d   1      57.134  49.699  50.743  0.00  0.00     0.022 A 
ATOM     10  C   UNL d   1      56.333  49.700  50.551  0.00  0.00     0.099 A 
ATOM     11  N   UNL d   1      56.097  49.703  49.761  0.00  0.00    -0.242 NA
ATOM     12  C   UNL d   1      56.674  49.704  49.159  0.00  0.00     0.099 A 
ATOM     13  C   UNL d   1      57.475  49.702  49.350  0.00  0.00     0.022 A 
ENDBRANCH   3   8
TORSDOF 1
ENDMDL
