MODEL 1
REMARK VINA RESULT:      -8.6      0.000      0.000
REMARK  3 active torsions:
REMARK  status: ('A' for Active; 'I' for Inactive)
REMARK    1  A    between atoms: N_2  and  S_1 
REMARK    2  A    between atoms: C_3  and  S_1 
REMARK    3  A    between atoms: C_11  and  C_6 
ROOT
ATOM      1  C   UNL d   1      52.047  33.889  53.300  0.00  0.00     0.104 A 
ATOM      2  C   UNL d   1      50.601  34.244  52.566  0.00  0.00     0.000 A 
ATOM      3  C   UNL d   1      51.338  33.633  53.634  0.00  0.00     0.013 A 
ATOM      4  C   UNL d   1      52.033  34.322  52.599  0.00  0.00     0.013 A 
ATOM      5  C   UNL d   1      51.312  34.499  52.234  0.00  0.00     0.001 A 
ATOM      6  C   UNL d   1      50.618  33.810  53.268  0.00  0.00     0.001 A 
ENDROOT
BRANCH   1   7
ATOM      7  S   UNL d   1      52.764  33.713  53.663  0.00  0.00     0.271 S 
ATOM      8  O   UNL d   1      52.625  32.911  53.548  0.00  0.00    -0.200 OA
ATOM      9  O   UNL d   1      52.905  34.526  53.780  0.00  0.00    -0.200 OA
BRANCH   7  10
ATOM     10  N   UNL d   1      53.483  33.536  54.028  0.00  0.00    -0.229 N 
ATOM     11  C   UNL d   1      53.645  33.830  54.764  0.00  0.00     0.092 A 
ATOM     12  C   UNL d   1      54.380  33.650  55.137  0.00  0.00     0.020 A 
ATOM     13  C   UNL d   1      54.926  33.182  54.760  0.00  0.00     0.003 A 
ATOM     14  C   UNL d   1      54.753  32.884  54.007  0.00  0.00     0.020 A 
ATOM     15  C   UNL d   1      54.053  33.056  53.651  0.00  0.00     0.092 A 
ENDBRANCH   7  10
ENDBRANCH   1   7
BRANCH   2  16
ATOM     16  C   UNL d   1      49.887  34.420  52.204  0.00  0.00     0.000 C 
ATOM     17  C   UNL d   1      49.308  34.830  52.618  0.00  0.00     0.000 C 
ATOM     18  C   UNL d   1      49.745  34.186  51.425  0.00  0.00     0.000 C 
ENDBRANCH   2  16
TORSDOF 3
ENDMDL
MODEL 2
REMARK VINA RESULT:      -8.6      2.028      3.417
REMARK  3 active torsions:
REMARK  status: ('A' for Active; 'I' for Inactive)
REMARK    1  A    between atoms: N_2  and  S_1 
REMARK    2  A    between atoms: C_3  and  S_1 
REMARK    3  A    between atoms: C_11  and  C_6 
ROOT
ATOM      1  C   UNL d   1      53.094  32.390  53.640  0.00  0.00     0.104 A 
ATOM      2  C   UNL d   1      53.114  30.756  53.346  0.00  0.00     0.000 A 
ATOM      3  C   UNL d   1      53.661  31.910  53.998  0.00  0.00     0.013 A 
ATOM      4  C   UNL d   1      52.537  32.053  53.135  0.00  0.00     0.013 A 
ATOM      5  C   UNL d   1      52.547  31.239  52.988  0.00  0.00     0.001 A 
ATOM      6  C   UNL d   1      53.670  31.097  53.852  0.00  0.00     0.001 A 
ENDROOT
BRANCH   1   7
ATOM      7  S   UNL d   1      53.085  33.200  53.786  0.00  0.00     0.271 S 
ATOM      8  O   UNL d   1      52.308  33.143  54.049  0.00  0.00    -0.200 OA
ATOM      9  O   UNL d   1      53.872  33.257  53.520  0.00  0.00    -0.200 OA
BRANCH   7  10
ATOM     10  N   UNL d   1      53.075  34.012  53.933  0.00  0.00    -0.229 N 
ATOM     11  C   UNL d   1      53.278  34.293  54.663  0.00  0.00     0.092 A 
ATOM     12  C   UNL d   1      53.269  35.123  54.813  0.00  0.00     0.020 A 
ATOM     13  C   UNL d   1      53.056  35.642  54.226  0.00  0.00     0.003 A 
ATOM     14  C   UNL d   1      52.849  35.347  53.481  0.00  0.00     0.020 A 
ATOM     15  C   UNL d   1      52.858  34.556  53.338  0.00  0.00     0.092 A 
ENDBRANCH   7  10
ENDBRANCH   1   7
BRANCH   2  16
ATOM     16  C   UNL d   1      53.123  29.949  53.201  0.00  0.00     0.000 C 
ATOM     17  C   UNL d   1      52.940  29.667  52.452  0.00  0.00     0.000 C 
ATOM     18  C   UNL d   1      53.316  29.419  53.803  0.00  0.00     0.000 C 
ENDBRANCH   2  16
TORSDOF 3
ENDMDL
MODEL 3
REMARK VINA RESULT:      -8.5      0.951      4.007
REMARK  3 active torsions:
REMARK  status: ('A' for Active; 'I' for Inactive)
REMARK    1  A    between atoms: N_2  and  S_1 
REMARK    2  A    between atoms: C_3  and  S_1 
REMARK    3  A    between atoms: C_11  and  C_6 
ROOT
ATOM      1  C   UNL d   1      52.650  33.899  53.686  0.00  0.00     0.104 A 
ATOM      2  C   UNL d   1      54.014  33.652  54.598  0.00  0.00     0.000 A 
ATOM      3  C   UNL d   1      53.087  33.206  53.600  0.00  0.00     0.013 A 
ATOM      4  C   UNL d   1      52.895  34.469  54.228  0.00  0.00     0.013 A 
ATOM      5  C   UNL d   1      53.575  34.346  54.683  0.00  0.00     0.001 A 
ATOM      6  C   UNL d   1      53.767  33.083  54.054  0.00  0.00     0.001 A 
ENDROOT
BRANCH   1   7
ATOM      7  S   UNL d   1      51.973  34.021  53.233  0.00  0.00     0.271 S 
ATOM      8  O   UNL d   1      51.663  33.310  53.505  0.00  0.00    -0.200 OA
ATOM      9  O   UNL d   1      52.287  34.742  52.958  0.00  0.00    -0.200 OA
BRANCH   7  10
ATOM     10  N   UNL d   1      51.295  34.144  52.780  0.00  0.00    -0.229 N 
ATOM     11  C   UNL d   1      51.340  34.125  51.972  0.00  0.00     0.092 A 
ATOM     12  C   UNL d   1      50.647  34.251  51.509  0.00  0.00     0.020 A 
ATOM     13  C   UNL d   1      49.933  34.390  51.869  0.00  0.00     0.003 A 
ATOM     14  C   UNL d   1      49.894  34.408  52.697  0.00  0.00     0.020 A 
ATOM     15  C   UNL d   1      50.555  34.288  53.139  0.00  0.00     0.092 A 
ENDBRANCH   7  10
ENDBRANCH   1   7
BRANCH   2  16
ATOM     16  C   UNL d   1      54.689  33.530  55.049  0.00  0.00     0.000 C 
ATOM     17  C   UNL d   1      54.626  33.200  55.798  0.00  0.00     0.000 C 
ATOM     18  C   UNL d   1      55.431  33.738  54.753  0.00  0.00     0.000 C 
ENDBRANCH   2  16
TORSDOF 3
ENDMDL
