MODEL 1
REMARK VINA RESULT:      -6.0      0.000      0.000
REMARK  2 active torsions:
REMARK  status: ('A' for Active; 'I' for Inactive)
REMARK    1  A    between atoms: C_3  and  C_1 
REMARK       I    between atoms: N_7  and  C_3 
REMARK    2  A    between atoms: C_11  and  N_7 
ROOT
ATOM      1  C   UNL d   1     -42.155-123.141 -49.659  0.00  0.00     0.121 A 
ATOM      2  C   UNL d   1     -42.790-122.725 -49.335  0.00  0.00     0.305 A 
ATOM      3  C   UNL d   1     -41.594-123.505 -49.160  0.00  0.00     0.012 A 
ATOM      4  O   UNL d   1     -42.855-122.678 -48.518  0.00  0.00    -0.273 OA
ATOM      5  C   UNL d   1     -41.685-123.441 -48.351  0.00  0.00     0.023 A 
ATOM      6  C   UNL d   1     -42.320-123.024 -48.028  0.00  0.00     0.103 A 
ATOM      7  O   UNL d   1     -43.342-122.366 -49.810  0.00  0.00    -0.259 OA
ATOM      8  C   UNL d   1     -41.123-123.805 -47.849  0.00  0.00     0.002 A 
ATOM      9  C   UNL d   1     -42.384-122.978 -47.207  0.00  0.00     0.025 A 
ATOM     10  C   UNL d   1     -41.218-123.739 -47.050  0.00  0.00     0.000 A 
ATOM     11  C   UNL d   1     -41.853-123.323 -46.726  0.00  0.00     0.002 A 
ENDROOT
BRANCH   1  12
ATOM     12  C   UNL d   1     -42.068-123.202 -50.481  0.00  0.00     0.284 C 
ATOM     13  N   UNL d   1     -41.441-122.832 -50.872  0.00  0.00    -0.208 NA
ATOM     14  O   UNL d   1     -42.592-123.629 -50.953  0.00  0.00    -0.265 OA
BRANCH  13  15
ATOM     15  C   UNL d   1     -41.362-122.896 -51.682  0.00  0.00     0.085 A 
ATOM     16  C   UNL d   1     -41.203-123.620 -52.031  0.00  0.00     0.019 A 
ATOM     17  C   UNL d   1     -41.123-123.690 -52.849  0.00  0.00     0.002 A 
ATOM     18  C   UNL d   1     -41.205-123.011 -53.318  0.00  0.00     0.000 A 
ATOM     19  C   UNL d   1     -41.365-122.270 -52.990  0.00  0.00     0.002 A 
ATOM     20  C   UNL d   1     -41.128-123.067 -54.116  0.00  0.00     0.000 C 
ATOM     21  C   UNL d   1     -41.443-122.215 -52.167  0.00  0.00     0.019 A 
ENDBRANCH  13  15
ENDBRANCH   1  12
TORSDOF 2
ENDMDL
MODEL 2
REMARK VINA RESULT:      -5.3      1.186      1.796
REMARK  2 active torsions:
REMARK  status: ('A' for Active; 'I' for Inactive)
REMARK    1  A    between atoms: C_3  and  C_1 
REMARK       I    between atoms: N_7  and  C_3 
REMARK    2  A    between atoms: C_11  and  N_7 
ROOT
ATOM      1  C   UNL d   1     -41.933-122.448 -51.170  0.00  0.00     0.121 A 
ATOM      2  C   UNL d   1     -42.581-122.098 -50.799  0.00  0.00     0.305 A 
ATOM      3  C   UNL d   1     -41.441-122.974 -50.748  0.00  0.00     0.012 A 
ATOM      4  O   UNL d   1     -42.730-122.279 -50.012  0.00  0.00    -0.273 OA
ATOM      5  C   UNL d   1     -41.615-123.134 -49.967  0.00  0.00     0.023 A 
ATOM      6  C   UNL d   1     -42.264-122.784 -49.596  0.00  0.00     0.103 A 
ATOM      7  O   UNL d   1     -43.067-121.584 -51.199  0.00  0.00    -0.259 OA
ATOM      8  C   UNL d   1     -41.123-123.662 -49.542  0.00  0.00     0.002 A 
ATOM      9  C   UNL d   1     -42.412-122.967 -48.805  0.00  0.00     0.025 A 
ATOM     10  C   UNL d   1     -41.299-123.817 -48.769  0.00  0.00     0.000 A 
ATOM     11  C   UNL d   1     -41.948-123.468 -48.398  0.00  0.00     0.002 A 
ENDROOT
BRANCH   1  12
ATOM     12  C   UNL d   1     -41.762-122.281 -51.964  0.00  0.00     0.284 C 
ATOM     13  N   UNL d   1     -42.114-122.712 -52.575  0.00  0.00    -0.208 NA
ATOM     14  O   UNL d   1     -41.240-121.684 -52.191  0.00  0.00    -0.265 OA
BRANCH  13  15
ATOM     15  C   UNL d   1     -41.942-122.542 -53.355  0.00  0.00     0.085 A 
ATOM     16  C   UNL d   1     -41.343-122.939 -53.747  0.00  0.00     0.019 A 
ATOM     17  C   UNL d   1     -41.165-122.771 -54.535  0.00  0.00     0.002 A 
ATOM     18  C   UNL d   1     -41.605-122.187 -54.928  0.00  0.00     0.000 A 
ATOM     19  C   UNL d   1     -42.214-121.772 -54.554  0.00  0.00     0.002 A 
ATOM     20  C   UNL d   1     -41.440-122.015 -55.696  0.00  0.00     0.000 C 
ATOM     21  C   UNL d   1     -42.381-121.953 -53.762  0.00  0.00     0.019 A 
ENDBRANCH  13  15
ENDBRANCH   1  12
TORSDOF 2
ENDMDL
