MODEL 1
REMARK VINA RESULT:      -2.9      0.000      0.000
REMARK  4 active torsions:
REMARK  status: ('A' for Active; 'I' for Inactive)
REMARK    1  A    between atoms: C_6  and  C_1 
REMARK    2  A    between atoms: C_7  and  C_4 
REMARK    3  A    between atoms: O_10  and  C_6 
REMARK    4  A    between atoms: C_13  and  O_10 
ROOT
ATOM      1  C   UNL d   1      32.116  16.863 -23.601  0.00  0.00     0.112 A 
ATOM      2  S   UNL d   1      31.278  16.893 -23.614  0.00  0.00    -0.080 SA
ATOM      3  C   UNL d   1      32.334  16.068 -23.572  0.00  0.00     0.115 A 
ATOM      4  C   UNL d   1      31.004  16.109 -23.592  0.00  0.00     0.031 A 
ATOM      5  C   UNL d   1      31.658  15.617 -23.567  0.00  0.00     0.028 A 
ATOM      6  N   UNL d   1      33.122  15.776 -23.551  0.00  0.00    -0.147 N 
ENDROOT
BRANCH   4   7
ATOM      7  C   UNL d   1      30.188  15.973 -23.599  0.00  0.00     0.006 A 
ATOM      8  C   UNL d   1      29.841  15.589 -22.949  0.00  0.00     0.001 A 
ATOM      9  C   UNL d   1      29.028  15.454 -22.958  0.00  0.00     0.000 A 
ATOM     10  C   UNL d   1      28.568  15.694 -23.596  0.00  0.00     0.000 A 
ATOM     11  C   UNL d   1      28.915  16.073 -24.233  0.00  0.00     0.000 A 
ATOM     12  C   UNL d   1      29.728  16.214 -24.237  0.00  0.00     0.001 A 
ENDBRANCH   4   7
BRANCH   1  13
ATOM     13  C   UNL d   1      32.639  17.518 -23.614  0.00  0.00     0.308 C 
ATOM     14  O   UNL d   1      33.104  17.697 -24.287  0.00  0.00    -0.258 OA
BRANCH  13  15
ATOM     15  O   UNL d   1      32.693  18.002 -22.937  0.00  0.00    -0.271 OA
BRANCH  15  16
ATOM     16  C   UNL d   1      33.110  18.727 -22.971  0.00  0.00     0.126 C 
ATOM     17  C   UNL d   1      33.186  19.175 -22.282  0.00  0.00     0.029 C 
ENDBRANCH  15  16
ENDBRANCH  13  15
ENDBRANCH   1  13
TORSDOF 4
ENDMDL
MODEL 2
REMARK VINA RESULT:      -2.7      1.628      3.753
REMARK  4 active torsions:
REMARK  status: ('A' for Active; 'I' for Inactive)
REMARK    1  A    between atoms: C_6  and  C_1 
REMARK    2  A    between atoms: C_7  and  C_4 
REMARK    3  A    between atoms: O_10  and  C_6 
REMARK    4  A    between atoms: C_13  and  O_10 
ROOT
ATOM      1  C   UNL d   1      30.813  16.617 -24.023  0.00  0.00     0.112 A 
ATOM      2  S   UNL d   1      31.123  17.362 -24.250  0.00  0.00    -0.080 SA
ATOM      3  C   UNL d   1      31.403  16.221 -23.605  0.00  0.00     0.115 A 
ATOM      4  C   UNL d   1      31.901  17.402 -23.962  0.00  0.00     0.031 A 
ATOM      5  C   UNL d   1      32.058  16.699 -23.571  0.00  0.00     0.028 A 
ATOM      6  N   UNL d   1      31.336  15.453 -23.271  0.00  0.00    -0.147 N 
ENDROOT
BRANCH   4   7
ATOM      7  C   UNL d   1      32.344  18.085 -24.108  0.00  0.00     0.006 A 
ATOM      8  C   UNL d   1      32.613  18.533 -23.462  0.00  0.00     0.001 A 
ATOM      9  C   UNL d   1      33.054  19.213 -23.608  0.00  0.00     0.000 A 
ATOM     10  C   UNL d   1      33.226  19.446 -24.378  0.00  0.00     0.000 A 
ATOM     11  C   UNL d   1      32.958  19.002 -25.011  0.00  0.00     0.000 A 
ATOM     12  C   UNL d   1      32.515  18.318 -24.877  0.00  0.00     0.001 A 
ENDBRANCH   4   7
BRANCH   1  13
ATOM     13  C   UNL d   1      30.044  16.325 -24.189  0.00  0.00     0.308 C 
ATOM     14  O   UNL d   1      29.897  15.815 -24.836  0.00  0.00    -0.258 OA
BRANCH  13  15
ATOM     15  O   UNL d   1      29.414  16.553 -23.693  0.00  0.00    -0.271 OA
BRANCH  15  16
ATOM     16  C   UNL d   1      28.623  16.391 -23.918  0.00  0.00     0.126 C 
ATOM     17  C   UNL d   1      28.016  16.556 -23.384  0.00  0.00     0.029 C 
ENDBRANCH  15  16
ENDBRANCH  13  15
ENDBRANCH   1  13
TORSDOF 4
ENDMDL
MODEL 3
REMARK VINA RESULT:      -2.2      4.657      6.015
REMARK  4 active torsions:
REMARK  status: ('A' for Active; 'I' for Inactive)
REMARK    1  A    between atoms: C_6  and  C_1 
REMARK    2  A    between atoms: C_7  and  C_4 
REMARK    3  A    between atoms: O_10  and  C_6 
REMARK    4  A    between atoms: C_13  and  O_10 
ROOT
ATOM      1  C   UNL d   1      32.689  22.361 -21.321  0.00  0.00     0.112 A 
ATOM      2  S   UNL d   1      32.688  21.523 -21.344  0.00  0.00    -0.080 SA
ATOM      3  C   UNL d   1      33.030  22.627 -22.023  0.00  0.00     0.115 A 
ATOM      4  C   UNL d   1      33.030  21.297 -22.066  0.00  0.00     0.031 A 
ATOM      5  C   UNL d   1      33.235  21.980 -22.469  0.00  0.00     0.028 A 
ATOM      6  N   UNL d   1      33.146  23.431 -22.238  0.00  0.00    -0.147 N 
ENDROOT
BRANCH   4   7
ATOM      7  C   UNL d   1      33.100  20.491 -22.237  0.00  0.00     0.006 A 
ATOM      8  C   UNL d   1      33.171  19.952 -21.608  0.00  0.00     0.001 A 
ATOM      9  C   UNL d   1      33.241  19.149 -21.781  0.00  0.00     0.000 A 
ATOM     10  C   UNL d   1      33.241  18.885 -22.559  0.00  0.00     0.000 A 
ATOM     11  C   UNL d   1      33.170  19.419 -23.175  0.00  0.00     0.000 A 
ATOM     12  C   UNL d   1      33.100  20.226 -23.015  0.00  0.00     0.001 A 
ENDBRANCH   4   7
BRANCH   1  13
ATOM     13  C   UNL d   1      32.398  22.843 -20.699  0.00  0.00     0.308 C 
ATOM     14  O   UNL d   1      31.815  23.429 -20.832  0.00  0.00    -0.258 OA
BRANCH  13  15
ATOM     15  O   UNL d   1      32.701  22.732 -19.930  0.00  0.00    -0.271 OA
BRANCH  15  16
ATOM     16  C   UNL d   1      32.560  23.305 -19.335  0.00  0.00     0.126 C 
ATOM     17  C   UNL d   1      32.816  23.151 -18.566  0.00  0.00     0.029 C 
ENDBRANCH  15  16
ENDBRANCH  13  15
ENDBRANCH   1  13
TORSDOF 4
ENDMDL
MODEL 4
REMARK VINA RESULT:      -2.1      5.274      7.833
REMARK  4 active torsions:
REMARK  status: ('A' for Active; 'I' for Inactive)
REMARK    1  A    between atoms: C_6  and  C_1 
REMARK    2  A    between atoms: C_7  and  C_4 
REMARK    3  A    between atoms: O_10  and  C_6 
REMARK    4  A    between atoms: C_13  and  O_10 
ROOT
ATOM      1  C   UNL d   1      32.437  22.293 -20.345  0.00  0.00     0.112 A 
ATOM      2  S   UNL d   1      32.376  22.273 -19.509  0.00  0.00    -0.080 SA
ATOM      3  C   UNL d   1      32.680  23.053 -20.556  0.00  0.00     0.115 A 
ATOM      4  C   UNL d   1      32.585  23.026 -19.228  0.00  0.00     0.031 A 
ATOM      5  C   UNL d   1      32.769  23.491 -19.878  0.00  0.00     0.028 A 
ATOM      6  N   UNL d   1      32.814  23.325 -21.340  0.00  0.00    -0.147 N 
ENDROOT
BRANCH   4   7
ATOM      7  C   UNL d   1      32.574  23.163 -18.413  0.00  0.00     0.006 A 
ATOM      8  C   UNL d   1      33.241  22.956 -17.963  0.00  0.00     0.001 A 
ATOM      9  C   UNL d   1      33.228  23.094 -17.150  0.00  0.00     0.000 A 
ATOM     10  C   UNL d   1      32.570  23.430 -16.791  0.00  0.00     0.000 A 
ATOM     11  C   UNL d   1      31.915  23.633 -17.239  0.00  0.00     0.000 A 
ATOM     12  C   UNL d   1      31.916  23.500 -18.054  0.00  0.00     0.001 A 
ENDBRANCH   4   7
BRANCH   1  13
ATOM     13  C   UNL d   1      32.280  21.661 -20.872  0.00  0.00     0.308 C 
ATOM     14  O   UNL d   1      31.503  21.479 -21.123  0.00  0.00    -0.258 OA
BRANCH  13  15
ATOM     15  O   UNL d   1      32.920  21.204 -21.152  0.00  0.00    -0.271 OA
BRANCH  15  16
ATOM     16  C   UNL d   1      32.828  20.380 -21.269  0.00  0.00     0.126 C 
ATOM     17  C   UNL d   1      33.137  20.038 -21.953  0.00  0.00     0.029 C 
ENDBRANCH  15  16
ENDBRANCH  13  15
ENDBRANCH   1  13
TORSDOF 4
ENDMDL
MODEL 5
REMARK VINA RESULT:      -2.0      1.725      4.281
REMARK  4 active torsions:
REMARK  status: ('A' for Active; 'I' for Inactive)
REMARK    1  A    between atoms: C_6  and  C_1 
REMARK    2  A    between atoms: C_7  and  C_4 
REMARK    3  A    between atoms: O_10  and  C_6 
REMARK    4  A    between atoms: C_13  and  O_10 
ROOT
ATOM      1  C   UNL d   1      32.420  18.280 -23.582  0.00  0.00     0.112 A 
ATOM      2  S   UNL d   1      32.342  19.073 -23.323  0.00  0.00    -0.080 SA
ATOM      3  C   UNL d   1      32.979  17.916 -23.097  0.00  0.00     0.115 A 
ATOM      4  C   UNL d   1      32.859  19.175 -22.682  0.00  0.00     0.031 A 
ATOM      5  C   UNL d   1      33.241  18.461 -22.555  0.00  0.00     0.028 A 
ATOM      6  N   UNL d   1      33.233  17.117 -23.156  0.00  0.00    -0.147 N 
ENDROOT
BRANCH   4   7
ATOM      7  C   UNL d   1      32.895  19.914 -22.313  0.00  0.00     0.006 A 
ATOM      8  C   UNL d   1      32.610  19.989 -21.537  0.00  0.00     0.001 A 
ATOM      9  C   UNL d   1      32.647  20.727 -21.171  0.00  0.00     0.000 A 
ATOM     10  C   UNL d   1      32.960  21.377 -21.565  0.00  0.00     0.000 A 
ATOM     11  C   UNL d   1      33.240  21.298 -22.330  0.00  0.00     0.000 A 
ATOM     12  C   UNL d   1      33.209  20.564 -22.708  0.00  0.00     0.001 A 
ENDBRANCH   4   7
BRANCH   1  13
ATOM     13  C   UNL d   1      32.008  17.920 -24.217  0.00  0.00     0.308 C 
ATOM     14  O   UNL d   1      32.371  17.785 -24.959  0.00  0.00    -0.258 OA
BRANCH  13  15
ATOM     15  O   UNL d   1      31.214  17.691 -24.101  0.00  0.00    -0.271 OA
BRANCH  15  16
ATOM     16  C   UNL d   1      30.712  17.565 -24.760  0.00  0.00     0.126 C 
ATOM     17  C   UNL d   1      30.087  17.031 -24.687  0.00  0.00     0.029 C 
ENDBRANCH  15  16
ENDBRANCH  13  15
ENDBRANCH   1  13
TORSDOF 4
ENDMDL
MODEL 6
REMARK VINA RESULT:      -0.8      3.248      4.281
REMARK  4 active torsions:
REMARK  status: ('A' for Active; 'I' for Inactive)
REMARK    1  A    between atoms: C_6  and  C_1 
REMARK    2  A    between atoms: C_7  and  C_4 
REMARK    3  A    between atoms: O_10  and  C_6 
REMARK    4  A    between atoms: C_13  and  O_10 
ROOT
ATOM      1  C   UNL d   1      32.948  20.309 -22.120  0.00  0.00     0.112 A 
ATOM      2  S   UNL d   1      32.894  19.481 -22.235  0.00  0.00    -0.080 SA
ATOM      3  C   UNL d   1      33.133  20.648 -22.850  0.00  0.00     0.115 A 
ATOM      4  C   UNL d   1      33.049  19.332 -23.037  0.00  0.00     0.031 A 
ATOM      5  C   UNL d   1      33.193  20.053 -23.400  0.00  0.00     0.028 A 
ATOM      6  N   UNL d   1      33.241  21.468 -22.996  0.00  0.00    -0.147 N 
ENDROOT
BRANCH   4   7
ATOM      7  C   UNL d   1      33.033  18.551 -23.308  0.00  0.00     0.006 A 
ATOM      8  C   UNL d   1      32.803  18.404 -24.093  0.00  0.00     0.001 A 
ATOM      9  C   UNL d   1      32.788  17.625 -24.361  0.00  0.00     0.000 A 
ATOM     10  C   UNL d   1      32.994  17.005 -23.864  0.00  0.00     0.000 A 
ATOM     11  C   UNL d   1      33.219  17.155 -23.091  0.00  0.00     0.000 A 
ATOM     12  C   UNL d   1      33.239  17.931 -22.810  0.00  0.00     0.001 A 
ENDBRANCH   4   7
BRANCH   1  13
ATOM     13  C   UNL d   1      32.835  20.721 -21.399  0.00  0.00     0.308 C 
ATOM     14  O   UNL d   1      33.241  20.505 -20.700  0.00  0.00    -0.258 OA
BRANCH  13  15
ATOM     15  O   UNL d   1      32.302  21.363 -21.384  0.00  0.00    -0.271 OA
BRANCH  15  16
ATOM     16  C   UNL d   1      32.028  21.665 -20.652  0.00  0.00     0.126 C 
ATOM     17  C   UNL d   1      31.898  22.476 -20.579  0.00  0.00     0.029 C 
ENDBRANCH  15  16
ENDBRANCH  13  15
ENDBRANCH   1  13
TORSDOF 4
ENDMDL
MODEL 7
REMARK VINA RESULT:      -0.8      5.144      6.575
REMARK  4 active torsions:
REMARK  status: ('A' for Active; 'I' for Inactive)
REMARK    1  A    between atoms: C_6  and  C_1 
REMARK    2  A    between atoms: C_7  and  C_4 
REMARK    3  A    between atoms: O_10  and  C_6 
REMARK    4  A    between atoms: C_13  and  O_10 
ROOT
ATOM      1  C   UNL d   1      33.055  21.603 -22.555  0.00  0.00     0.112 A 
ATOM      2  S   UNL d   1      33.088  22.227 -21.997  0.00  0.00    -0.080 SA
ATOM      3  C   UNL d   1      32.919  20.905 -22.137  0.00  0.00     0.115 A 
ATOM      4  C   UNL d   1      32.971  21.893 -21.246  0.00  0.00     0.031 A 
ATOM      5  C   UNL d   1      32.870  21.086 -21.347  0.00  0.00     0.028 A 
ATOM      6  N   UNL d   1      32.845  20.139 -22.473  0.00  0.00    -0.147 N 
ENDROOT
BRANCH   4   7
ATOM      7  C   UNL d   1      32.977  22.389 -20.584  0.00  0.00     0.006 A 
ATOM      8  C   UNL d   1      33.088  22.052 -19.833  0.00  0.00     0.001 A 
ATOM      9  C   UNL d   1      33.093  22.547 -19.174  0.00  0.00     0.000 A 
ATOM     10  C   UNL d   1      32.992  23.359 -19.257  0.00  0.00     0.000 A 
ATOM     11  C   UNL d   1      32.884  23.686 -20.000  0.00  0.00     0.000 A 
ATOM     12  C   UNL d   1      32.876  23.200 -20.667  0.00  0.00     0.001 A 
ENDBRANCH   4   7
BRANCH   1  13
ATOM     13  C   UNL d   1      33.142  21.671 -23.386  0.00  0.00     0.308 C 
ATOM     14  O   UNL d   1      33.241  21.000 -23.875  0.00  0.00    -0.258 OA
BRANCH  13  15
ATOM     15  O   UNL d   1      33.130  22.431 -23.729  0.00  0.00    -0.271 OA
BRANCH  15  16
ATOM     16  C   UNL d   1      33.060  22.517 -24.559  0.00  0.00     0.126 C 
ATOM     17  C   UNL d   1      33.049  23.276 -24.882  0.00  0.00     0.029 C 
ENDBRANCH  15  16
ENDBRANCH  13  15
ENDBRANCH   1  13
TORSDOF 4
ENDMDL
