MODEL 1
REMARK VINA RESULT:      -8.6      0.000      0.000
REMARK  4 active torsions:
REMARK  status: ('A' for Active; 'I' for Inactive)
REMARK    1  A    between atoms: N_3  and  C_2 
REMARK       I    between atoms: C_6  and  N_3 
REMARK    2  A    between atoms: C_8  and  C_4 
REMARK    3  A    between atoms: C_9  and  C_6 
REMARK    4  A    between atoms: C_12  and  C_8 
ROOT
ATOM      1  N   UNL d   1      53.414  32.098  54.414  0.00  0.00    -0.181 NA
ATOM      2  C   UNL d   1      53.701  31.658  53.776  0.00  0.00     0.281 C 
ATOM      3  O   UNL d   1      54.265  31.977  53.273  0.00  0.00    -0.265 OA
ENDROOT
BRANCH   1   4
ATOM      4  C   UNL d   1      53.693  32.860  54.550  0.00  0.00     0.216 A 
ATOM      5  N   UNL d   1      53.435  33.547  54.175  0.00  0.00    -0.200 NA
ATOM      6  C   UNL d   1      53.866  34.185  54.482  0.00  0.00     0.175 A 
ATOM      7  N   UNL d   1      54.394  33.880  55.052  0.00  0.00    -0.187 NA
ATOM      8  S   UNL d   1      54.283  33.072  55.087  0.00  0.00     0.054 SA
BRANCH   6   9
ATOM      9  C   UNL d   1      53.786  34.972  54.264  0.00  0.00     0.082 C 
BRANCH   9  10
ATOM     10  C   UNL d   1      53.056  35.353  54.345  0.00  0.00     0.199 C 
ATOM     11  O   UNL d   1      52.897  35.785  55.030  0.00  0.00    -0.286 OA
ATOM     12  C   UNL d   1      52.489  35.301  53.744  0.00  0.00     0.045 C 
ENDBRANCH   9  10
ENDBRANCH   6   9
ENDBRANCH   1   4
BRANCH   2  13
ATOM     13  C   UNL d   1      53.416  30.894  53.645  0.00  0.00     0.060 A 
ATOM     14  C   UNL d   1      53.651  30.276  54.143  0.00  0.00     0.034 A 
ATOM     15  C   UNL d   1      53.370  29.512  54.016  0.00  0.00     0.140 A 
ATOM     16  F   UNL d   1      53.609  28.901  54.517  0.00  0.00    -0.204 F 
ATOM     17  C   UNL d   1      52.855  29.367  53.393  0.00  0.00     0.030 A 
ATOM     18  C   UNL d   1      52.620  29.982  52.896  0.00  0.00     0.003 A 
ATOM     19  C   UNL d   1      52.901  30.746  53.022  0.00  0.00     0.005 A 
ENDBRANCH   2  13
TORSDOF 4
ENDMDL
MODEL 2
REMARK VINA RESULT:      -8.6      2.037      4.508
REMARK  4 active torsions:
REMARK  status: ('A' for Active; 'I' for Inactive)
REMARK    1  A    between atoms: N_3  and  C_2 
REMARK       I    between atoms: C_6  and  N_3 
REMARK    2  A    between atoms: C_8  and  C_4 
REMARK    3  A    between atoms: C_9  and  C_6 
REMARK    4  A    between atoms: C_12  and  C_8 
ROOT
ATOM      1  N   UNL d   1      52.744  32.608  53.660  0.00  0.00    -0.181 NA
ATOM      2  C   UNL d   1      53.338  33.181  53.612  0.00  0.00     0.281 C 
ATOM      3  O   UNL d   1      54.073  32.990  53.304  0.00  0.00    -0.265 OA
ENDROOT
BRANCH   1   4
ATOM      4  C   UNL d   1      52.887  31.841  53.400  0.00  0.00     0.216 A 
ATOM      5  N   UNL d   1      53.273  31.247  53.823  0.00  0.00    -0.200 NA
ATOM      6  C   UNL d   1      53.293  30.567  53.351  0.00  0.00     0.175 A 
ATOM      7  N   UNL d   1      52.914  30.750  52.630  0.00  0.00    -0.187 NA
ATOM      8  S   UNL d   1      52.670  31.528  52.669  0.00  0.00     0.054 SA
BRANCH   6   9
ATOM      9  C   UNL d   1      53.626  29.845  53.557  0.00  0.00     0.082 C 
BRANCH   9  10
ATOM     10  C   UNL d   1      53.179  29.286  53.971  0.00  0.00     0.199 C 
ATOM     11  O   UNL d   1      52.529  28.932  53.606  0.00  0.00    -0.286 OA
ATOM     12  C   UNL d   1      53.382  29.083  54.748  0.00  0.00     0.045 C 
ENDBRANCH   9  10
ENDBRANCH   6   9
ENDBRANCH   1   4
BRANCH   2  13
ATOM     13  C   UNL d   1      53.188  33.949  53.875  0.00  0.00     0.060 A 
ATOM     14  C   UNL d   1      53.287  34.138  54.674  0.00  0.00     0.034 A 
ATOM     15  C   UNL d   1      53.138  34.904  54.941  0.00  0.00     0.140 A 
ATOM     16  F   UNL d   1      53.239  35.084  55.740  0.00  0.00    -0.204 F 
ATOM     17  C   UNL d   1      52.891  35.478  54.409  0.00  0.00     0.030 A 
ATOM     18  C   UNL d   1      52.791  35.291  53.612  0.00  0.00     0.003 A 
ATOM     19  C   UNL d   1      52.940  34.526  53.345  0.00  0.00     0.005 A 
ENDBRANCH   2  13
TORSDOF 4
ENDMDL
MODEL 3
REMARK VINA RESULT:      -8.3      2.804      3.904
REMARK  4 active torsions:
REMARK  status: ('A' for Active; 'I' for Inactive)
REMARK    1  A    between atoms: N_3  and  C_2 
REMARK       I    between atoms: C_6  and  N_3 
REMARK    2  A    between atoms: C_8  and  C_4 
REMARK    3  A    between atoms: C_9  and  C_6 
REMARK    4  A    between atoms: C_12  and  C_8 
ROOT
ATOM      1  N   UNL d   1      51.984  33.256  53.294  0.00  0.00    -0.181 NA
ATOM      2  C   UNL d   1      51.879  33.974  52.899  0.00  0.00     0.281 C 
ATOM      3  O   UNL d   1      52.507  34.492  52.808  0.00  0.00    -0.265 OA
ENDROOT
BRANCH   1   4
ATOM      4  C   UNL d   1      52.721  33.055  53.599  0.00  0.00     0.216 A 
ATOM      5  N   UNL d   1      53.017  33.269  54.338  0.00  0.00    -0.200 NA
ATOM      6  C   UNL d   1      53.777  32.947  54.414  0.00  0.00     0.175 A 
ATOM      7  N   UNL d   1      53.945  32.532  53.710  0.00  0.00    -0.187 NA
ATOM      8  S   UNL d   1      53.296  32.602  53.218  0.00  0.00     0.054 SA
BRANCH   6   9
ATOM      9  C   UNL d   1      54.272  33.025  55.063  0.00  0.00     0.082 C 
BRANCH   9  10
ATOM     10  C   UNL d   1      54.718  33.715  55.165  0.00  0.00     0.199 C 
ATOM     11  O   UNL d   1      54.373  34.373  55.524  0.00  0.00    -0.286 OA
ATOM     12  C   UNL d   1      55.504  33.744  54.907  0.00  0.00     0.045 C 
ENDBRANCH   9  10
ENDBRANCH   6   9
ENDBRANCH   1   4
BRANCH   2  13
ATOM     13  C   UNL d   1      51.136  34.169  52.595  0.00  0.00     0.060 A 
ATOM     14  C   UNL d   1      50.562  34.501  53.091  0.00  0.00     0.034 A 
ATOM     15  C   UNL d   1      49.819  34.697  52.792  0.00  0.00     0.140 A 
ATOM     16  F   UNL d   1      49.252  35.027  53.293  0.00  0.00    -0.204 F 
ATOM     17  C   UNL d   1      49.652  34.562  52.000  0.00  0.00     0.030 A 
ATOM     18  C   UNL d   1      50.223  34.232  51.504  0.00  0.00     0.003 A 
ATOM     19  C   UNL d   1      50.966  34.035  51.803  0.00  0.00     0.005 A 
ENDBRANCH   2  13
TORSDOF 4
ENDMDL
MODEL 4
REMARK VINA RESULT:      -8.1      2.483      4.470
REMARK  4 active torsions:
REMARK  status: ('A' for Active; 'I' for Inactive)
REMARK    1  A    between atoms: N_3  and  C_2 
REMARK       I    between atoms: C_6  and  N_3 
REMARK    2  A    between atoms: C_8  and  C_4 
REMARK    3  A    between atoms: C_9  and  C_6 
REMARK    4  A    between atoms: C_12  and  C_8 
ROOT
ATOM      1  N   UNL d   1      52.446  32.361  52.742  0.00  0.00    -0.181 NA
ATOM      2  C   UNL d   1      52.115  32.952  53.216  0.00  0.00     0.281 C 
ATOM      3  O   UNL d   1      52.303  32.997  54.013  0.00  0.00    -0.265 OA
ENDROOT
BRANCH   1   4
ATOM      4  C   UNL d   1      52.966  31.813  53.066  0.00  0.00     0.216 A 
ATOM      5  N   UNL d   1      52.899  30.993  53.023  0.00  0.00    -0.200 NA
ATOM      6  C   UNL d   1      53.543  30.660  53.424  0.00  0.00     0.175 A 
ATOM      7  N   UNL d   1      54.009  31.288  53.715  0.00  0.00    -0.187 NA
ATOM      8  S   UNL d   1      53.651  31.988  53.492  0.00  0.00     0.054 SA
BRANCH   6   9
ATOM      9  C   UNL d   1      53.693  29.859  53.517  0.00  0.00     0.082 C 
BRANCH   9  10
ATOM     10  C   UNL d   1      53.127  29.369  53.868  0.00  0.00     0.199 C 
ATOM     11  O   UNL d   1      52.463  29.140  53.435  0.00  0.00    -0.286 OA
ATOM     12  C   UNL d   1      53.225  29.110  54.648  0.00  0.00     0.045 C 
ENDBRANCH   9  10
ENDBRANCH   6   9
ENDBRANCH   1   4
BRANCH   2  13
ATOM     13  C   UNL d   1      51.593  33.499  52.885  0.00  0.00     0.060 A 
ATOM     14  C   UNL d   1      50.852  33.624  53.232  0.00  0.00     0.034 A 
ATOM     15  C   UNL d   1      50.327  34.169  52.904  0.00  0.00     0.140 A 
ATOM     16  F   UNL d   1      49.590  34.289  53.256  0.00  0.00    -0.204 F 
ATOM     17  C   UNL d   1      50.544  34.587  52.232  0.00  0.00     0.030 A 
ATOM     18  C   UNL d   1      51.282  34.463  51.884  0.00  0.00     0.003 A 
ATOM     19  C   UNL d   1      51.807  33.918  52.212  0.00  0.00     0.005 A 
ENDBRANCH   2  13
TORSDOF 4
ENDMDL
MODEL 5
REMARK VINA RESULT:      -7.7      2.760      3.691
REMARK  4 active torsions:
REMARK  status: ('A' for Active; 'I' for Inactive)
REMARK    1  A    between atoms: N_3  and  C_2 
REMARK       I    between atoms: C_6  and  N_3 
REMARK    2  A    between atoms: C_8  and  C_4 
REMARK    3  A    between atoms: C_9  and  C_6 
REMARK    4  A    between atoms: C_12  and  C_8 
ROOT
ATOM      1  N   UNL d   1      52.377  34.117  53.387  0.00  0.00    -0.181 NA
ATOM      2  C   UNL d   1      52.719  33.376  53.520  0.00  0.00     0.281 C 
ATOM      3  O   UNL d   1      52.358  32.697  53.237  0.00  0.00    -0.265 OA
ENDROOT
BRANCH   1   4
ATOM      4  C   UNL d   1      51.672  34.178  52.969  0.00  0.00     0.216 A 
ATOM      5  N   UNL d   1      50.914  34.203  53.293  0.00  0.00    -0.200 NA
ATOM      6  C   UNL d   1      50.370  34.266  52.671  0.00  0.00     0.175 A 
ATOM      7  N   UNL d   1      50.804  34.279  51.958  0.00  0.00    -0.187 NA
ATOM      8  S   UNL d   1      51.597  34.225  52.149  0.00  0.00     0.054 SA
BRANCH   6   9
ATOM      9  C   UNL d   1      49.554  34.308  52.745  0.00  0.00     0.082 C 
BRANCH   9  10
ATOM     10  C   UNL d   1      49.163  35.028  52.629  0.00  0.00     0.199 C 
ATOM     11  O   UNL d   1      49.193  35.606  53.217  0.00  0.00    -0.286 OA
ATOM     12  C   UNL d   1      48.745  35.168  51.928  0.00  0.00     0.045 C 
ENDBRANCH   9  10
ENDBRANCH   6   9
ENDBRANCH   1   4
BRANCH   2  13
ATOM     13  C   UNL d   1      53.427  33.322  53.941  0.00  0.00     0.060 A 
ATOM     14  C   UNL d   1      54.125  33.111  53.549  0.00  0.00     0.034 A 
ATOM     15  C   UNL d   1      54.834  33.056  53.965  0.00  0.00     0.140 A 
ATOM     16  F   UNL d   1      55.526  32.845  53.566  0.00  0.00    -0.204 F 
ATOM     17  C   UNL d   1      54.845  33.212  54.771  0.00  0.00     0.030 A 
ATOM     18  C   UNL d   1      54.151  33.422  55.164  0.00  0.00     0.003 A 
ATOM     19  C   UNL d   1      53.441  33.477  54.748  0.00  0.00     0.005 A 
ENDBRANCH   2  13
TORSDOF 4
ENDMDL
MODEL 6
REMARK VINA RESULT:      -7.6      2.275      2.669
REMARK  4 active torsions:
REMARK  status: ('A' for Active; 'I' for Inactive)
REMARK    1  A    between atoms: N_3  and  C_2 
REMARK       I    between atoms: C_6  and  N_3 
REMARK    2  A    between atoms: C_8  and  C_4 
REMARK    3  A    between atoms: C_9  and  C_6 
REMARK    4  A    between atoms: C_12  and  C_8 
ROOT
ATOM      1  N   UNL d   1      52.175  32.593  53.526  0.00  0.00    -0.181 NA
ATOM      2  C   UNL d   1      52.570  32.130  52.966  0.00  0.00     0.281 C 
ATOM      3  O   UNL d   1      52.619  32.376  52.186  0.00  0.00    -0.265 OA
ENDROOT
BRANCH   1   4
ATOM      4  C   UNL d   1      51.828  33.305  53.304  0.00  0.00     0.216 A 
ATOM      5  N   UNL d   1      51.023  33.439  53.187  0.00  0.00    -0.200 NA
ATOM      6  C   UNL d   1      50.924  34.232  52.969  0.00  0.00     0.175 A 
ATOM      7  N   UNL d   1      51.679  34.585  52.953  0.00  0.00    -0.187 NA
ATOM      8  S   UNL d   1      52.225  34.013  53.158  0.00  0.00     0.054 SA
BRANCH   6   9
ATOM      9  C   UNL d   1      50.210  34.601  52.800  0.00  0.00     0.082 C 
BRANCH   9  10
ATOM     10  C   UNL d   1      49.854  34.496  52.060  0.00  0.00     0.199 C 
ATOM     11  O   UNL d   1      50.327  34.424  51.388  0.00  0.00    -0.286 OA
ATOM     12  C   UNL d   1      49.029  34.464  51.995  0.00  0.00     0.045 C 
ENDBRANCH   9  10
ENDBRANCH   6   9
ENDBRANCH   1   4
BRANCH   2  13
ATOM     13  C   UNL d   1      52.916  31.417  53.196  0.00  0.00     0.060 A 
ATOM     14  C   UNL d   1      52.575  30.699  52.963  0.00  0.00     0.034 A 
ATOM     15  C   UNL d   1      52.917  29.984  53.190  0.00  0.00     0.140 A 
ATOM     16  F   UNL d   1      52.570  29.273  52.953  0.00  0.00    -0.204 F 
ATOM     17  C   UNL d   1      53.597  29.988  53.648  0.00  0.00     0.030 A 
ATOM     18  C   UNL d   1      53.939  30.702  53.881  0.00  0.00     0.003 A 
ATOM     19  C   UNL d   1      53.597  31.416  53.654  0.00  0.00     0.005 A 
ENDBRANCH   2  13
TORSDOF 4
ENDMDL
