MODEL 1
REMARK VINA RESULT:      -6.6      0.000      0.000
REMARK  7 active torsions:
REMARK  status: ('A' for Active; 'I' for Inactive)
REMARK    1  A    between atoms: S_2  and  C_1 
REMARK    2  A    between atoms: N_14  and  S_2 
REMARK    3  A    between atoms: C_9  and  C_18 
REMARK       I    between atoms: N_17  and  C_9 
REMARK    4  A    between atoms: C_13  and  C_23 
REMARK    5  A    between atoms: C_24  and  N_14 
REMARK    6  A    between atoms: C_23  and  N_17 
REMARK    7  A    between atoms: C_18  and  C_24 
ROOT
ATOM      1  S   UNL d   1     -48.922  13.424  22.812  0.00  0.00     0.287 S 
ATOM      2  O   UNL d   1     -49.407  13.096  23.394  0.00  0.00    -0.198 OA
ATOM      3  O   UNL d   1     -48.438  13.751  22.230  0.00  0.00    -0.198 OA
ENDROOT
BRANCH   1   4
ATOM      4  C   UNL d   1     -49.583  13.571  22.346  0.00  0.00     0.127 A 
ATOM      5  C   UNL d   1     -49.998  14.277  22.428  0.00  0.00     0.142 A 
ATOM      6  C   UNL d   1     -50.661  14.426  21.960  0.00  0.00     0.131 A 
ATOM      7  N   UNL d   1     -49.888  14.927  22.919  0.00  0.00    -0.101 NA
ATOM      8  N   UNL d   1     -50.958  15.166  22.163  0.00  0.00    -0.102 NA
ATOM      9  C   UNL d   1     -50.910  13.868  21.409  0.00  0.00     0.023 A 
ATOM     10  O   UNL d   1     -50.479  15.477  22.758  0.00  0.00    -0.106 OA
ATOM     11  C   UNL d   1     -50.495  13.153  21.321  0.00  0.00     0.002 A 
ATOM     12  C   UNL d   1     -49.832  13.005  21.789  0.00  0.00     0.015 A 
ENDBRANCH   1   4
BRANCH   1  13
ATOM     13  N   UNL d   1     -48.256  13.275  23.283  0.00  0.00    -0.157 NA
BRANCH  13  14
ATOM     14  C   UNL d   1     -47.774  12.625  23.124  0.00  0.00     0.117 C 
BRANCH  14  15
ATOM     15  C   UNL d   1     -47.237  12.359  23.691  0.00  0.00     0.084 C 
BRANCH  15  16
ATOM     16  C   UNL d   1     -46.927  11.593  23.642  0.00  0.00     0.281 C 
ATOM     17  N   UNL d   1     -46.104  11.480  23.614  0.00  0.00    -0.206 NA
ATOM     18  O   UNL d   1     -47.439  10.935  23.620  0.00  0.00    -0.265 OA
BRANCH  17  19
ATOM     19  C   UNL d   1     -45.797  10.703  23.564  0.00  0.00     0.109 C 
BRANCH  19  20
ATOM     20  C   UNL d   1     -44.980  10.576  23.508  0.00  0.00     0.049 A 
ATOM     21  S   UNL d   1     -44.568   9.882  23.685  0.00  0.00    -0.085 SA
ATOM     22  C   UNL d   1     -43.771   9.997  23.553  0.00  0.00     0.035 A 
ATOM     23  C   UNL d   1     -43.673  10.775  23.288  0.00  0.00     0.007 A 
ATOM     24  C   UNL d   1     -44.413  11.136  23.259  0.00  0.00     0.009 A 
ENDBRANCH  19  20
ENDBRANCH  17  19
ENDBRANCH  15  16
ENDBRANCH  14  15
ENDBRANCH  13  14
ENDBRANCH   1  13
TORSDOF 7
ENDMDL
MODEL 2
REMARK VINA RESULT:      -6.1      3.211      4.090
REMARK  7 active torsions:
REMARK  status: ('A' for Active; 'I' for Inactive)
REMARK    1  A    between atoms: S_2  and  C_1 
REMARK    2  A    between atoms: N_14  and  S_2 
REMARK    3  A    between atoms: C_9  and  C_18 
REMARK       I    between atoms: N_17  and  C_9 
REMARK    4  A    between atoms: C_13  and  C_23 
REMARK    5  A    between atoms: C_24  and  N_14 
REMARK    6  A    between atoms: C_23  and  N_17 
REMARK    7  A    between atoms: C_18  and  C_24 
ROOT
ATOM      1  S   UNL d   1     -46.101  13.098  22.588  0.00  0.00     0.287 S 
ATOM      2  O   UNL d   1     -46.391  12.850  21.856  0.00  0.00    -0.198 OA
ATOM      3  O   UNL d   1     -45.812  13.346  23.320  0.00  0.00    -0.198 OA
ENDROOT
BRANCH   1   4
ATOM      4  C   UNL d   1     -46.770  12.794  22.956  0.00  0.00     0.127 A 
ATOM      5  C   UNL d   1     -47.474  13.222  22.956  0.00  0.00     0.142 A 
ATOM      6  C   UNL d   1     -48.145  12.917  23.325  0.00  0.00     0.131 A 
ATOM      7  N   UNL d   1     -47.672  13.954  22.640  0.00  0.00    -0.101 NA
ATOM      8  N   UNL d   1     -48.756  13.461  23.236  0.00  0.00    -0.102 NA
ATOM      9  C   UNL d   1     -48.114  12.182  23.695  0.00  0.00     0.023 A 
ATOM     10  O   UNL d   1     -48.463  14.105  22.812  0.00  0.00    -0.106 OA
ATOM     11  C   UNL d   1     -47.407  11.745  23.698  0.00  0.00     0.002 A 
ATOM     12  C   UNL d   1     -46.736  12.050  23.329  0.00  0.00     0.015 A 
ENDBRANCH   1   4
BRANCH   1  13
ATOM     13  N   UNL d   1     -45.426  13.405  22.217  0.00  0.00    -0.157 NA
BRANCH  13  14
ATOM     14  C   UNL d   1     -44.776  12.919  22.072  0.00  0.00     0.117 C 
BRANCH  14  15
ATOM     15  C   UNL d   1     -44.264  13.088  21.448  0.00  0.00     0.084 C 
BRANCH  15  16
ATOM     16  C   UNL d   1     -43.459  12.906  21.511  0.00  0.00     0.281 C 
ATOM     17  N   UNL d   1     -42.888  13.461  21.273  0.00  0.00    -0.206 NA
ATOM     18  O   UNL d   1     -43.220  12.166  21.814  0.00  0.00    -0.265 OA
BRANCH  17  19
ATOM     19  C   UNL d   1     -42.075  13.271  21.340  0.00  0.00     0.109 C 
BRANCH  19  20
ATOM     20  C   UNL d   1     -41.495  13.831  21.153  0.00  0.00     0.049 A 
ATOM     21  S   UNL d   1     -40.699  13.820  21.373  0.00  0.00    -0.085 SA
ATOM     22  C   UNL d   1     -40.323  14.479  21.071  0.00  0.00     0.035 A 
ATOM     23  C   UNL d   1     -40.887  14.915  20.651  0.00  0.00     0.007 A 
ATOM     24  C   UNL d   1     -41.610  14.522  20.697  0.00  0.00     0.009 A 
ENDBRANCH  19  20
ENDBRANCH  17  19
ENDBRANCH  15  16
ENDBRANCH  14  15
ENDBRANCH  13  14
ENDBRANCH   1  13
TORSDOF 7
ENDMDL
MODEL 3
REMARK VINA RESULT:      -6.0      1.712      1.930
REMARK  7 active torsions:
REMARK  status: ('A' for Active; 'I' for Inactive)
REMARK    1  A    between atoms: S_2  and  C_1 
REMARK    2  A    between atoms: N_14  and  S_2 
REMARK    3  A    between atoms: C_9  and  C_18 
REMARK       I    between atoms: N_17  and  C_9 
REMARK    4  A    between atoms: C_13  and  C_23 
REMARK    5  A    between atoms: C_24  and  N_14 
REMARK    6  A    between atoms: C_23  and  N_17 
REMARK    7  A    between atoms: C_18  and  C_24 
ROOT
ATOM      1  S   UNL d   1     -48.558  14.284  22.636  0.00  0.00     0.287 S 
ATOM      2  O   UNL d   1     -48.398  14.721  21.955  0.00  0.00    -0.198 OA
ATOM      3  O   UNL d   1     -48.717  13.846  23.317  0.00  0.00    -0.198 OA
ENDROOT
BRANCH   1   4
ATOM      4  C   UNL d   1     -49.346  14.220  22.410  0.00  0.00     0.127 A 
ATOM      5  C   UNL d   1     -49.878  14.823  22.588  0.00  0.00     0.142 A 
ATOM      6  C   UNL d   1     -50.668  14.758  22.361  0.00  0.00     0.131 A 
ATOM      7  N   UNL d   1     -49.786  15.540  22.976  0.00  0.00    -0.101 NA
ATOM      8  N   UNL d   1     -51.062  15.436  22.610  0.00  0.00    -0.102 NA
ATOM      9  C   UNL d   1     -50.928  14.090  21.956  0.00  0.00     0.023 A 
ATOM     10  O   UNL d   1     -50.516  15.922  22.993  0.00  0.00    -0.106 OA
ATOM     11  C   UNL d   1     -50.396  13.478  21.774  0.00  0.00     0.002 A 
ATOM     12  C   UNL d   1     -49.605  13.543  22.001  0.00  0.00     0.015 A 
ENDBRANCH   1   4
BRANCH   1  13
ATOM     13  N   UNL d   1     -47.763  14.349  22.864  0.00  0.00    -0.157 NA
BRANCH  13  14
ATOM     14  C   UNL d   1     -47.275  13.684  22.857  0.00  0.00     0.117 C 
BRANCH  14  15
ATOM     15  C   UNL d   1     -46.460  13.769  22.948  0.00  0.00     0.084 C 
BRANCH  15  16
ATOM     16  C   UNL d   1     -45.958  13.124  22.816  0.00  0.00     0.281 C 
ATOM     17  N   UNL d   1     -45.265  13.222  22.369  0.00  0.00    -0.206 NA
ATOM     18  O   UNL d   1     -46.148  12.375  23.130  0.00  0.00    -0.265 OA
BRANCH  17  19
ATOM     19  C   UNL d   1     -44.761  12.566  22.239  0.00  0.00     0.109 C 
BRANCH  19  20
ATOM     20  C   UNL d   1     -44.028  12.664  21.867  0.00  0.00     0.049 A 
ATOM     21  S   UNL d   1     -43.818  13.247  21.321  0.00  0.00    -0.085 SA
ATOM     22  C   UNL d   1     -43.041  13.140  21.093  0.00  0.00     0.035 A 
ATOM     23  C   UNL d   1     -42.752  12.479  21.500  0.00  0.00     0.007 A 
ATOM     24  C   UNL d   1     -43.355  12.182  21.977  0.00  0.00     0.009 A 
ENDBRANCH  19  20
ENDBRANCH  17  19
ENDBRANCH  15  16
ENDBRANCH  14  15
ENDBRANCH  13  14
ENDBRANCH   1  13
TORSDOF 7
ENDMDL
MODEL 4
REMARK VINA RESULT:      -5.9      1.917      5.519
REMARK  7 active torsions:
REMARK  status: ('A' for Active; 'I' for Inactive)
REMARK    1  A    between atoms: S_2  and  C_1 
REMARK    2  A    between atoms: N_14  and  S_2 
REMARK    3  A    between atoms: C_9  and  C_18 
REMARK       I    between atoms: N_17  and  C_9 
REMARK    4  A    between atoms: C_13  and  C_23 
REMARK    5  A    between atoms: C_24  and  N_14 
REMARK    6  A    between atoms: C_23  and  N_17 
REMARK    7  A    between atoms: C_18  and  C_24 
ROOT
ATOM      1  S   UNL d   1     -46.173  12.457  23.089  0.00  0.00     0.287 S 
ATOM      2  O   UNL d   1     -46.044  13.179  23.466  0.00  0.00    -0.198 OA
ATOM      3  O   UNL d   1     -46.301  11.734  22.712  0.00  0.00    -0.198 OA
ENDROOT
BRANCH   1   4
ATOM      4  C   UNL d   1     -45.512  12.586  22.616  0.00  0.00     0.127 A 
ATOM      5  C   UNL d   1     -44.847  12.107  22.695  0.00  0.00     0.142 A 
ATOM      6  C   UNL d   1     -44.184  12.236  22.221  0.00  0.00     0.131 A 
ATOM      7  N   UNL d   1     -44.683  11.470  23.187  0.00  0.00    -0.101 NA
ATOM      8  N   UNL d   1     -43.613  11.679  22.422  0.00  0.00    -0.102 NA
ATOM      9  C   UNL d   1     -44.186  12.845  21.668  0.00  0.00     0.023 A 
ATOM     10  O   UNL d   1     -43.922  11.203  23.021  0.00  0.00    -0.106 OA
ATOM     11  C   UNL d   1     -44.855  13.332  21.584  0.00  0.00     0.002 A 
ATOM     12  C   UNL d   1     -45.517  13.202  22.058  0.00  0.00     0.015 A 
ENDBRANCH   1   4
BRANCH   1  13
ATOM     13  N   UNL d   1     -46.838  12.326  23.565  0.00  0.00    -0.157 NA
BRANCH  13  14
ATOM     14  C   UNL d   1     -47.579  12.215  23.220  0.00  0.00     0.117 C 
BRANCH  14  15
ATOM     15  C   UNL d   1     -48.236  12.054  23.692  0.00  0.00     0.084 C 
BRANCH  15  16
ATOM     16  C   UNL d   1     -48.999  12.142  23.385  0.00  0.00     0.281 C 
ATOM     17  N   UNL d   1     -49.379  12.881  23.423  0.00  0.00    -0.206 NA
ATOM     18  O   UNL d   1     -49.388  11.491  23.038  0.00  0.00    -0.265 OA
BRANCH  17  19
ATOM     19  C   UNL d   1     -50.151  12.963  23.110  0.00  0.00     0.109 C 
BRANCH  19  20
ATOM     20  C   UNL d   1     -50.471  13.714  22.969  0.00  0.00     0.049 A 
ATOM     21  S   UNL d   1     -50.766  14.007  22.256  0.00  0.00    -0.085 SA
ATOM     22  C   UNL d   1     -51.027  14.773  22.363  0.00  0.00     0.035 A 
ATOM     23  C   UNL d   1     -50.896  14.972  23.156  0.00  0.00     0.007 A 
ATOM     24  C   UNL d   1     -50.555  14.325  23.534  0.00  0.00     0.009 A 
ENDBRANCH  19  20
ENDBRANCH  17  19
ENDBRANCH  15  16
ENDBRANCH  14  15
ENDBRANCH  13  14
ENDBRANCH   1  13
TORSDOF 7
ENDMDL
MODEL 5
REMARK VINA RESULT:      -4.7      5.266      7.698
REMARK  7 active torsions:
REMARK  status: ('A' for Active; 'I' for Inactive)
REMARK    1  A    between atoms: S_2  and  C_1 
REMARK    2  A    between atoms: N_14  and  S_2 
REMARK    3  A    between atoms: C_9  and  C_18 
REMARK       I    between atoms: N_17  and  C_9 
REMARK    4  A    between atoms: C_13  and  C_23 
REMARK    5  A    between atoms: C_24  and  N_14 
REMARK    6  A    between atoms: C_23  and  N_17 
REMARK    7  A    between atoms: C_18  and  C_24 
ROOT
ATOM      1  S   UNL d   1     -41.472  14.071  20.792  0.00  0.00     0.287 S 
ATOM      2  O   UNL d   1     -41.722  14.737  21.209  0.00  0.00    -0.198 OA
ATOM      3  O   UNL d   1     -41.222  13.405  20.375  0.00  0.00    -0.198 OA
ENDROOT
BRANCH   1   4
ATOM      4  C   UNL d   1     -40.689  14.301  20.894  0.00  0.00     0.127 A 
ATOM      5  C   UNL d   1     -40.322  14.780  20.334  0.00  0.00     0.142 A 
ATOM      6  C   UNL d   1     -39.537  15.011  20.437  0.00  0.00     0.131 A 
ATOM      7  N   UNL d   1     -40.591  15.110  19.632  0.00  0.00    -0.101 NA
ATOM      8  N   UNL d   1     -39.323  15.482  19.797  0.00  0.00    -0.102 NA
ATOM      9  C   UNL d   1     -39.118  14.762  21.100  0.00  0.00     0.023 A 
ATOM     10  O   UNL d   1     -39.976  15.544  19.297  0.00  0.00    -0.106 OA
ATOM     11  C   UNL d   1     -39.483  14.278  21.668  0.00  0.00     0.002 A 
ATOM     12  C   UNL d   1     -40.268  14.047  21.566  0.00  0.00     0.015 A 
ENDBRANCH   1   4
BRANCH   1  13
ATOM     13  N   UNL d   1     -42.261  13.839  20.689  0.00  0.00    -0.157 NA
BRANCH  13  14
ATOM     14  C   UNL d   1     -42.617  13.329  21.230  0.00  0.00     0.117 C 
BRANCH  14  15
ATOM     15  C   UNL d   1     -43.366  13.020  21.077  0.00  0.00     0.084 C 
BRANCH  15  16
ATOM     16  C   UNL d   1     -43.825  12.716  21.696  0.00  0.00     0.281 C 
ATOM     17  N   UNL d   1     -44.557  13.064  21.879  0.00  0.00    -0.206 NA
ATOM     18  O   UNL d   1     -43.552  12.062  22.136  0.00  0.00    -0.265 OA
BRANCH  17  19
ATOM     19  C   UNL d   1     -45.015  12.752  22.507  0.00  0.00     0.109 C 
BRANCH  19  20
ATOM     20  C   UNL d   1     -45.767  13.059  22.672  0.00  0.00     0.049 A 
ATOM     21  S   UNL d   1     -45.995  13.853  22.671  0.00  0.00    -0.085 SA
ATOM     22  C   UNL d   1     -46.786  13.909  22.865  0.00  0.00     0.035 A 
ATOM     23  C   UNL d   1     -47.066  13.140  22.991  0.00  0.00     0.007 A 
ATOM     24  C   UNL d   1     -46.444  12.613  22.874  0.00  0.00     0.009 A 
ENDBRANCH  19  20
ENDBRANCH  17  19
ENDBRANCH  15  16
ENDBRANCH  14  15
ENDBRANCH  13  14
ENDBRANCH   1  13
TORSDOF 7
ENDMDL
