MODEL 1
REMARK VINA RESULT:      38.2      0.000      0.000
REMARK  3 active torsions:
REMARK  status: ('A' for Active; 'I' for Inactive)
REMARK    1  A    between atoms: N_2  and  S_1 
REMARK    2  A    between atoms: N_4  and  S_1 
REMARK    3  A    between atoms: C_9  and  N_3 
ROOT
ATOM      1  N   UNL d   1      58.128  49.431  50.517  0.00  0.00    -0.213 N 
ATOM      2  N   UNL d   1      59.688  49.523  51.032  0.00  0.00    -0.301 N 
ATOM      3  C   UNL d   1      58.721  49.606  49.989  0.00  0.00     0.112 A 
ATOM      4  C   UNL d   1      58.295  49.294  51.333  0.00  0.00     0.112 A 
ATOM      5  C   UNL d   1      59.503  49.652  50.247  0.00  0.00     0.100 A 
ATOM      6  C   UNL d   1      59.077  49.340  51.592  0.00  0.00     0.100 A 
ENDROOT
BRANCH   2   7
ATOM      7  C   UNL d   1      60.475  49.569  51.292  0.00  0.00     0.064 A 
ATOM      8  C   UNL d   1      60.628  49.608  52.106  0.00  0.00     0.018 A 
ATOM      9  C   UNL d   1      61.412  49.654  52.370  0.00  0.00     0.013 A 
ATOM     10  C   UNL d   1      62.032  49.661  51.829  0.00  0.00     0.058 A 
ATOM     11  C   UNL d   1      61.867  49.621  51.012  0.00  0.00     0.013 A 
ATOM     12 CL   UNL d   1      62.817  49.707  52.093  0.00  0.00    -0.082 Cl
ATOM     13  C   UNL d   1      61.090  49.576  50.750  0.00  0.00     0.018 A 
ENDBRANCH   2   7
BRANCH   1  14
ATOM     14  S   UNL d   1      57.330  49.385  50.253  0.00  0.00     0.337 S 
ATOM     15  O   UNL d   1      56.718  49.283  50.800  0.00  0.00    -0.181 OA
ATOM     16  O   UNL d   1      57.157  49.441  49.442  0.00  0.00    -0.181 OA
BRANCH  14  17
ATOM     17  N   UNL d   1      56.503  49.316  50.203  0.00  0.00    -0.213 N 
ATOM     18  C   UNL d   1      56.036  49.507  50.849  0.00  0.00     0.113 C 
ATOM     19  C   UNL d   1      56.149  49.053  49.496  0.00  0.00     0.113 C 
ENDBRANCH  14  17
ENDBRANCH   1  14
TORSDOF 3
ENDMDL
