MODEL 1
REMARK VINA RESULT:      -2.1      0.000      0.000
REMARK  4 active torsions:
REMARK  status: ('A' for Active; 'I' for Inactive)
REMARK    1  A    between atoms: N_8  and  C_3 
REMARK    2  A    between atoms: C_9  and  C_4 
REMARK    3  A    between atoms: C_15  and  N_8 
REMARK    4  A    between atoms: C_10  and  C_15 
ROOT
ATOM      1  C   UNL d   1      32.664  17.361 -23.231  0.00  0.00     0.192 A 
ATOM      2  N   UNL d   1      33.034  17.999 -22.886  0.00  0.00    -0.208 NA
ATOM      3  C   UNL d   1      31.970  17.610 -23.576  0.00  0.00     0.212 A 
ATOM      4  C   UNL d   1      32.546  18.679 -23.023  0.00  0.00     0.185 A 
ATOM      5  O   UNL d   1      31.881  18.422 -23.457  0.00  0.00    -0.269 OA
ATOM      6  C   UNL d   1      32.936  16.569 -23.241  0.00  0.00     0.124 C 
ATOM      7  N   UNL d   1      33.213  15.783 -23.247  0.00  0.00    -0.190 NA
ENDROOT
BRANCH   3   8
ATOM      8  N   UNL d   1      31.430  17.097 -23.992  0.00  0.00    -0.217 NA
BRANCH   8   9
ATOM      9  C   UNL d   1      30.637  17.284 -24.037  0.00  0.00     0.126 C 
BRANCH   9  10
ATOM     10  C   UNL d   1      30.113  16.741 -24.381  0.00  0.00     0.119 A 
ATOM     11  O   UNL d   1      30.167  16.235 -25.026  0.00  0.00    -0.304 OA
ATOM     12  C   UNL d   1      29.458  15.828 -25.093  0.00  0.00     0.123 A 
ATOM     13  C   UNL d   1      28.964  16.068 -24.506  0.00  0.00     0.029 A 
ATOM     14  C   UNL d   1      29.347  16.630 -24.055  0.00  0.00     0.028 A 
ENDBRANCH   9  10
ENDBRANCH   8   9
ENDBRANCH   3   8
BRANCH   4  15
ATOM     15  C   UNL d   1      32.720  19.446 -22.763  0.00  0.00     0.041 A 
ATOM     16  C   UNL d   1      32.617  19.651 -21.971  0.00  0.00     0.004 A 
ATOM     17  C   UNL d   1      32.789  20.410 -21.711  0.00  0.00     0.000 A 
ATOM     18  C   UNL d   1      33.067  20.974 -22.240  0.00  0.00     0.000 A 
ATOM     19  C   UNL d   1      33.170  20.765 -23.031  0.00  0.00     0.000 A 
ATOM     20  C   UNL d   1      33.241  21.755 -21.956  0.00  0.00     0.000 C 
ATOM     21  C   UNL d   1      32.997  20.005 -23.291  0.00  0.00     0.004 A 
ENDBRANCH   4  15
TORSDOF 4
ENDMDL
MODEL 2
REMARK VINA RESULT:      -2.1      1.999      4.936
REMARK  4 active torsions:
REMARK  status: ('A' for Active; 'I' for Inactive)
REMARK    1  A    between atoms: N_8  and  C_3 
REMARK    2  A    between atoms: C_9  and  C_4 
REMARK    3  A    between atoms: C_15  and  N_8 
REMARK    4  A    between atoms: C_10  and  C_15 
ROOT
ATOM      1  C   UNL d   1      33.011  20.085 -23.863  0.00  0.00     0.192 A 
ATOM      2  N   UNL d   1      32.899  19.330 -24.150  0.00  0.00    -0.208 NA
ATOM      3  C   UNL d   1      32.995  20.065 -23.049  0.00  0.00     0.212 A 
ATOM      4  C   UNL d   1      32.809  18.817 -23.481  0.00  0.00     0.185 A 
ATOM      5  O   UNL d   1      32.871  19.289 -22.796  0.00  0.00    -0.269 OA
ATOM      6  C   UNL d   1      33.126  20.780 -24.314  0.00  0.00     0.124 C 
ATOM      7  N   UNL d   1      33.239  21.468 -24.771  0.00  0.00    -0.190 NA
ENDROOT
BRANCH   3   8
ATOM      8  N   UNL d   1      33.093  20.751 -22.551  0.00  0.00    -0.217 NA
BRANCH   8   9
ATOM      9  C   UNL d   1      32.870  20.725 -21.766  0.00  0.00     0.126 C 
BRANCH   9  10
ATOM     10  C   UNL d   1      32.755  21.437 -21.356  0.00  0.00     0.119 A 
ATOM     11  O   UNL d   1      33.241  22.077 -21.189  0.00  0.00    -0.304 OA
ATOM     12  C   UNL d   1      32.808  22.622 -20.756  0.00  0.00     0.123 A 
ATOM     13  C   UNL d   1      32.064  22.337 -20.649  0.00  0.00     0.029 A 
ATOM     14  C   UNL d   1      32.009  21.607 -21.010  0.00  0.00     0.028 A 
ENDBRANCH   9  10
ENDBRANCH   8   9
ENDBRANCH   3   8
BRANCH   4  15
ATOM     15  C   UNL d   1      32.683  17.999 -23.527  0.00  0.00     0.041 A 
ATOM     16  C   UNL d   1      32.140  17.690 -24.065  0.00  0.00     0.004 A 
ATOM     17  C   UNL d   1      32.014  16.881 -24.112  0.00  0.00     0.000 A 
ATOM     18  C   UNL d   1      32.430  16.370 -23.622  0.00  0.00     0.000 A 
ATOM     19  C   UNL d   1      32.972  16.682 -23.084  0.00  0.00     0.000 A 
ATOM     20  C   UNL d   1      32.288  15.535 -23.682  0.00  0.00     0.000 C 
ATOM     21  C   UNL d   1      33.098  17.492 -23.037  0.00  0.00     0.004 A 
ENDBRANCH   4  15
TORSDOF 4
ENDMDL
MODEL 3
REMARK VINA RESULT:      -1.5      1.984      4.952
REMARK  4 active torsions:
REMARK  status: ('A' for Active; 'I' for Inactive)
REMARK    1  A    between atoms: N_8  and  C_3 
REMARK    2  A    between atoms: C_9  and  C_4 
REMARK    3  A    between atoms: C_15  and  N_8 
REMARK    4  A    between atoms: C_10  and  C_15 
ROOT
ATOM      1  C   UNL d   1      32.888  19.911 -22.116  0.00  0.00     0.192 A 
ATOM      2  N   UNL d   1      32.707  19.142 -22.317  0.00  0.00    -0.208 NA
ATOM      3  C   UNL d   1      32.960  20.354 -22.796  0.00  0.00     0.212 A 
ATOM      4  C   UNL d   1      32.665  19.106 -23.164  0.00  0.00     0.185 A 
ATOM      5  O   UNL d   1      32.825  19.872 -23.452  0.00  0.00    -0.269 OA
ATOM      6  C   UNL d   1      32.988  20.216 -21.344  0.00  0.00     0.124 C 
ATOM      7  N   UNL d   1      33.085  20.513 -20.570  0.00  0.00    -0.190 NA
ENDROOT
BRANCH   3   8
ATOM      8  N   UNL d   1      33.147  21.186 -22.807  0.00  0.00    -0.217 NA
BRANCH   8   9
ATOM      9  C   UNL d   1      33.241  21.577 -23.518  0.00  0.00     0.126 C 
BRANCH   9  10
ATOM     10  C   UNL d   1      33.079  22.389 -23.556  0.00  0.00     0.119 A 
ATOM     11  O   UNL d   1      33.001  22.977 -22.988  0.00  0.00    -0.304 OA
ATOM     12  C   UNL d   1      32.838  23.683 -23.370  0.00  0.00     0.123 A 
ATOM     13  C   UNL d   1      32.812  23.551 -24.162  0.00  0.00     0.029 A 
ATOM     14  C   UNL d   1      32.958  22.760 -24.299  0.00  0.00     0.028 A 
ENDBRANCH   9  10
ENDBRANCH   8   9
ENDBRANCH   3   8
BRANCH   4  15
ATOM     15  C   UNL d   1      32.494  18.422 -23.599  0.00  0.00     0.041 A 
ATOM     16  C   UNL d   1      33.020  17.788 -23.603  0.00  0.00     0.004 A 
ATOM     17  C   UNL d   1      32.852  17.110 -24.034  0.00  0.00     0.000 A 
ATOM     18  C   UNL d   1      32.156  17.057 -24.466  0.00  0.00     0.000 A 
ATOM     19  C   UNL d   1      31.631  17.694 -24.459  0.00  0.00     0.000 A 
ATOM     20  C   UNL d   1      31.996  16.349 -24.906  0.00  0.00     0.000 C 
ATOM     21  C   UNL d   1      31.799  18.372 -24.028  0.00  0.00     0.004 A 
ENDBRANCH   4  15
TORSDOF 4
ENDMDL
MODEL 4
REMARK VINA RESULT:      -1.5      1.085      4.630
REMARK  4 active torsions:
REMARK  status: ('A' for Active; 'I' for Inactive)
REMARK    1  A    between atoms: N_8  and  C_3 
REMARK    2  A    between atoms: C_9  and  C_4 
REMARK    3  A    between atoms: C_15  and  N_8 
REMARK    4  A    between atoms: C_10  and  C_15 
ROOT
ATOM      1  C   UNL d   1      31.735  16.255 -24.009  0.00  0.00     0.192 A 
ATOM      2  N   UNL d   1      31.018  15.868 -24.035  0.00  0.00    -0.208 NA
ATOM      3  C   UNL d   1      31.608  17.042 -23.847  0.00  0.00     0.212 A 
ATOM      4  C   UNL d   1      30.415  16.445 -23.881  0.00  0.00     0.185 A 
ATOM      5  O   UNL d   1      30.798  17.177 -23.765  0.00  0.00    -0.269 OA
ATOM      6  C   UNL d   1      32.491  15.916 -24.127  0.00  0.00     0.124 C 
ATOM      7  N   UNL d   1      33.241  15.571 -24.245  0.00  0.00    -0.190 NA
ENDROOT
BRANCH   3   8
ATOM      8  N   UNL d   1      32.228  17.624 -23.776  0.00  0.00    -0.217 NA
BRANCH   8   9
ATOM      9  C   UNL d   1      32.075  18.410 -23.933  0.00  0.00     0.126 C 
BRANCH   9  10
ATOM     10  C   UNL d   1      32.527  18.993 -23.554  0.00  0.00     0.119 A 
ATOM     11  O   UNL d   1      32.839  19.062 -22.797  0.00  0.00    -0.304 OA
ATOM     12  C   UNL d   1      33.241  19.774 -22.749  0.00  0.00     0.123 A 
ATOM     13  C   UNL d   1      33.187  20.152 -23.457  0.00  0.00     0.029 A 
ATOM     14  C   UNL d   1      32.751  19.688 -23.967  0.00  0.00     0.028 A 
ENDBRANCH   9  10
ENDBRANCH   8   9
ENDBRANCH   3   8
BRANCH   4  15
ATOM     15  C   UNL d   1      29.603  16.284 -23.857  0.00  0.00     0.041 A 
ATOM     16  C   UNL d   1      29.274  15.897 -23.208  0.00  0.00     0.004 A 
ATOM     17  C   UNL d   1      28.470  15.736 -23.183  0.00  0.00     0.000 A 
ATOM     18  C   UNL d   1      27.984  15.960 -23.805  0.00  0.00     0.000 A 
ATOM     19  C   UNL d   1      28.317  16.348 -24.454  0.00  0.00     0.000 A 
ATOM     20  C   UNL d   1      27.154  15.787 -23.764  0.00  0.00     0.000 C 
ATOM     21  C   UNL d   1      29.121  16.508 -24.479  0.00  0.00     0.004 A 
ENDBRANCH   4  15
TORSDOF 4
ENDMDL
MODEL 5
REMARK VINA RESULT:       0.3      1.341      4.700
REMARK  4 active torsions:
REMARK  status: ('A' for Active; 'I' for Inactive)
REMARK    1  A    between atoms: N_8  and  C_3 
REMARK    2  A    between atoms: C_9  and  C_4 
REMARK    3  A    between atoms: C_15  and  N_8 
REMARK    4  A    between atoms: C_10  and  C_15 
ROOT
ATOM      1  C   UNL d   1      32.308  18.679 -24.227  0.00  0.00     0.192 A 
ATOM      2  N   UNL d   1      31.731  18.187 -24.524  0.00  0.00    -0.208 NA
ATOM      3  C   UNL d   1      32.373  18.560 -23.424  0.00  0.00     0.212 A 
ATOM      4  C   UNL d   1      31.421  17.740 -23.873  0.00  0.00     0.185 A 
ATOM      5  O   UNL d   1      31.832  17.983 -23.189  0.00  0.00    -0.269 OA
ATOM      6  C   UNL d   1      32.772  19.226 -24.659  0.00  0.00     0.124 C 
ATOM      7  N   UNL d   1      33.229  19.768 -25.097  0.00  0.00    -0.190 NA
ENDROOT
BRANCH   3   8
ATOM      8  N   UNL d   1      32.921  18.976 -22.920  0.00  0.00    -0.217 NA
BRANCH   8   9
ATOM      9  C   UNL d   1      32.957  18.806 -22.122  0.00  0.00     0.126 C 
BRANCH   9  10
ATOM     10  C   UNL d   1      33.060  19.427 -21.582  0.00  0.00     0.119 A 
ATOM     11  O   UNL d   1      33.175  19.454 -20.769  0.00  0.00    -0.304 OA
ATOM     12  C   UNL d   1      33.241  20.240 -20.545  0.00  0.00     0.123 A 
ATOM     13  C   UNL d   1      33.170  20.703 -21.199  0.00  0.00     0.029 A 
ATOM     14  C   UNL d   1      33.058  20.222 -21.849  0.00  0.00     0.028 A 
ENDBRANCH   9  10
ENDBRANCH   8   9
ENDBRANCH   3   8
BRANCH   4  15
ATOM     15  C   UNL d   1      30.820  17.172 -23.933  0.00  0.00     0.041 A 
ATOM     16  C   UNL d   1      30.050  17.399 -24.119  0.00  0.00     0.004 A 
ATOM     17  C   UNL d   1      29.454  16.838 -24.179  0.00  0.00     0.000 A 
ATOM     18  C   UNL d   1      29.620  16.044 -24.055  0.00  0.00     0.000 A 
ATOM     19  C   UNL d   1      30.393  15.821 -23.870  0.00  0.00     0.000 A 
ATOM     20  C   UNL d   1      28.993  15.476 -24.121  0.00  0.00     0.000 C 
ATOM     21  C   UNL d   1      30.989  16.382 -23.809  0.00  0.00     0.004 A 
ENDBRANCH   4  15
TORSDOF 4
ENDMDL
