MODEL 1
REMARK VINA RESULT:      -1.9      0.000      0.000
REMARK  7 active torsions:
REMARK  status: ('A' for Active; 'I' for Inactive)
REMARK    1  A    between atoms: C_4  and  S_1 
REMARK    2  A    between atoms: N_10  and  S_1 
REMARK    3  A    between atoms: C_3  and  C_2 
REMARK       I    between atoms: N_6  and  C_3 
REMARK    4  A    between atoms: C_16  and  N_6 
REMARK    5  A    between atoms: C_19  and  N_10 
REMARK    6  A    between atoms: C_12  and  C_24 
REMARK    7  A    between atoms: C_24  and  C_19 
ROOT
ATOM      1  C   UNL d   1     -41.447-122.295 -50.773  0.00  0.00     0.086 A 
ATOM      2  C   UNL d   1     -41.236-122.359 -52.183  0.00  0.00     0.106 A 
ATOM      3  C   UNL d   1     -41.392-122.735 -51.467  0.00  0.00     0.020 A 
ATOM      4  C   UNL d   1     -41.344-121.474 -50.795  0.00  0.00     0.145 A 
ATOM      5  C   UNL d   1     -41.133-121.543 -52.205  0.00  0.00     0.015 A 
ATOM      6  C   UNL d   1     -41.188-121.100 -51.509  0.00  0.00     0.030 A 
ATOM      7  F   UNL d   1     -41.397-121.031 -50.109  0.00  0.00    -0.204 F 
ENDROOT
BRANCH   2   8
ATOM      8  S   UNL d   1     -41.180-122.798 -52.880  0.00  0.00     0.285 S 
ATOM      9  O   UNL d   1     -41.144-123.490 -52.438  0.00  0.00    -0.198 OA
ATOM     10  O   UNL d   1     -41.217-122.107 -53.326  0.00  0.00    -0.198 OA
BRANCH   8  11
ATOM     11  N   UNL d   1     -41.125-123.231 -53.576  0.00  0.00    -0.157 NA
BRANCH  11  12
ATOM     12  C   UNL d   1     -41.162-122.833 -54.314  0.00  0.00     0.112 C 
BRANCH  12  13
ATOM     13  C   UNL d   1     -41.590-123.144 -54.935  0.00  0.00     0.021 C 
BRANCH  13  14
ATOM     14  C   UNL d   1     -42.028-122.661 -55.420  0.00  0.00     0.002 A 
ATOM     15  C   UNL d   1     -42.795-122.883 -55.663  0.00  0.00     0.000 A 
ATOM     16  C   UNL d   1     -43.241-122.391 -56.158  0.00  0.00     0.000 A 
ATOM     17  C   UNL d   1     -42.931-121.664 -56.424  0.00  0.00     0.000 A 
ATOM     18  C   UNL d   1     -42.164-121.444 -56.180  0.00  0.00     0.000 A 
ATOM     19  C   UNL d   1     -41.718-121.936 -55.685  0.00  0.00     0.000 A 
ENDBRANCH  13  14
ENDBRANCH  12  13
ENDBRANCH  11  12
ENDBRANCH   8  11
ENDBRANCH   2   8
BRANCH   1  20
ATOM     20  C   UNL d   1     -41.603-122.656 -50.053  0.00  0.00     0.281 C 
ATOM     21  N   UNL d   1     -42.252-122.396 -49.605  0.00  0.00    -0.208 NA
ATOM     22  O   UNL d   1     -41.130-123.265 -49.773  0.00  0.00    -0.265 OA
BRANCH  21  23
ATOM     23  C   UNL d   1     -42.411-122.755 -48.885  0.00  0.00     0.085 A 
ATOM     24  C   UNL d   1     -42.894-123.411 -48.850  0.00  0.00     0.019 A 
ATOM     25  C   UNL d   1     -43.046-123.764 -48.119  0.00  0.00     0.002 A 
ATOM     26  C   UNL d   1     -42.717-123.464 -47.425  0.00  0.00     0.000 A 
ATOM     27  C   UNL d   1     -42.229-122.799 -47.469  0.00  0.00     0.002 A 
ATOM     28  C   UNL d   1     -42.869-123.815 -46.698  0.00  0.00     0.000 C 
ATOM     29  C   UNL d   1     -42.075-122.444 -48.196  0.00  0.00     0.019 A 
ENDBRANCH  21  23
ENDBRANCH   1  20
TORSDOF 7
ENDMDL
