MODEL 1
REMARK VINA RESULT:      -8.4      0.000      0.000
REMARK  5 active torsions:
REMARK  status: ('A' for Active; 'I' for Inactive)
REMARK    1  A    between atoms: C_2  and  C_1 
REMARK    2  A    between atoms: C_5  and  C_2 
REMARK    3  A    between atoms: C_11  and  C_5 
REMARK    4  A    between atoms: C_10  and  C_12 
REMARK    5  A    between atoms: O_19  and  C_10 
ROOT
ATOM      1  C   UNL d   1     -48.931  12.775  22.625  0.00  0.00     0.131 C 
ATOM      2  C   UNL d   1     -48.730  12.657  21.823  0.00  0.00     0.106 C 
ATOM      3  N   UNL d   1     -48.536  12.537  21.065  0.00  0.00    -0.191 NA
ENDROOT
BRANCH   1   4
ATOM      4  C   UNL d   1     -49.309  13.457  22.847  0.00  0.00     0.123 A 
ATOM      5  N   UNL d   1     -48.935  14.175  22.995  0.00  0.00    -0.238 NA
ATOM      6  C   UNL d   1     -49.535  14.728  23.208  0.00  0.00     0.088 A 
ATOM      7  C   UNL d   1     -49.500  15.503  23.409  0.00  0.00     0.020 A 
ATOM      8  C   UNL d   1     -50.259  14.335  23.184  0.00  0.00     0.049 A 
ATOM      9  C   UNL d   1     -50.185  15.901  23.590  0.00  0.00     0.002 A 
ATOM     10  C   UNL d   1     -50.929  15.496  23.565  0.00  0.00     0.001 A 
ATOM     11  C   UNL d   1     -50.956  14.711  23.360  0.00  0.00     0.008 A 
ATOM     12  S   UNL d   1     -50.109  13.536  22.956  0.00  0.00    -0.066 SA
ENDBRANCH   1   4
BRANCH   1  13
ATOM     13  C   UNL d   1     -48.747  12.204  23.186  0.00  0.00     0.207 C 
ATOM     14  O   UNL d   1     -49.348  11.869  23.649  0.00  0.00    -0.286 OA
BRANCH  13  15
ATOM     15  C   UNL d   1     -47.938  11.953  23.294  0.00  0.00     0.040 A 
ATOM     16  C   UNL d   1     -47.327  12.465  23.106  0.00  0.00     0.003 A 
ATOM     17  C   UNL d   1     -46.544  12.223  23.210  0.00  0.00     0.005 A 
ATOM     18  C   UNL d   1     -46.387  11.474  23.501  0.00  0.00     0.063 A 
ATOM     19  C   UNL d   1     -47.000  10.956  23.691  0.00  0.00     0.005 A 
ATOM     20  C   UNL d   1     -47.783  11.198  23.587  0.00  0.00     0.003 A 
BRANCH  18  21
ATOM     21  C   UNL d   1     -45.578  11.224  23.608  0.00  0.00     0.296 C 
ATOM     22  O   UNL d   1     -44.972  11.789  23.633  0.00  0.00    -0.259 OA
BRANCH  21  23
ATOM     23  O   UNL d   1     -45.401  10.425  23.688  0.00  0.00    -0.296 OA
ATOM     24  C   UNL d   1     -44.615  10.171  23.658  0.00  0.00     0.185 C 
ENDBRANCH  21  23
ENDBRANCH  18  21
ENDBRANCH  13  15
ENDBRANCH   1  13
TORSDOF 5
ENDMDL
MODEL 2
REMARK VINA RESULT:      -7.7      1.737      2.404
REMARK  5 active torsions:
REMARK  status: ('A' for Active; 'I' for Inactive)
REMARK    1  A    between atoms: C_2  and  C_1 
REMARK    2  A    between atoms: C_5  and  C_2 
REMARK    3  A    between atoms: C_11  and  C_5 
REMARK    4  A    between atoms: C_10  and  C_12 
REMARK    5  A    between atoms: O_19  and  C_10 
ROOT
ATOM      1  C   UNL d   1     -47.957  12.542  23.139  0.00  0.00     0.131 C 
ATOM      2  C   UNL d   1     -47.889  11.760  23.425  0.00  0.00     0.106 C 
ATOM      3  N   UNL d   1     -47.816  11.021  23.698  0.00  0.00    -0.191 NA
ENDROOT
BRANCH   1   4
ATOM      4  C   UNL d   1     -48.624  12.765  22.737  0.00  0.00     0.123 A 
ATOM      5  N   UNL d   1     -48.795  12.558  21.959  0.00  0.00    -0.238 NA
ATOM      6  C   UNL d   1     -49.538  12.907  21.766  0.00  0.00     0.088 A 
ATOM      7  C   UNL d   1     -49.977  12.895  21.097  0.00  0.00     0.020 A 
ATOM      8  C   UNL d   1     -49.802  13.318  22.431  0.00  0.00     0.049 A 
ATOM      9  C   UNL d   1     -50.686  13.291  21.074  0.00  0.00     0.002 A 
ATOM     10  C   UNL d   1     -50.956  13.713  21.757  0.00  0.00     0.001 A 
ATOM     11  C   UNL d   1     -50.506  13.721  22.433  0.00  0.00     0.008 A 
ATOM     12  S   UNL d   1     -49.222  13.224  23.037  0.00  0.00    -0.066 SA
ENDBRANCH   1   4
BRANCH   1  13
ATOM     13  C   UNL d   1     -47.350  13.083  23.266  0.00  0.00     0.207 C 
ATOM     14  O   UNL d   1     -47.496  13.775  23.698  0.00  0.00    -0.286 OA
BRANCH  13  15
ATOM     15  C   UNL d   1     -46.570  12.933  22.953  0.00  0.00     0.040 A 
ATOM     16  C   UNL d   1     -46.124  12.316  23.255  0.00  0.00     0.003 A 
ATOM     17  C   UNL d   1     -45.370  12.171  22.952  0.00  0.00     0.005 A 
ATOM     18  C   UNL d   1     -45.075  12.646  22.355  0.00  0.00     0.063 A 
ATOM     19  C   UNL d   1     -45.521  13.269  22.048  0.00  0.00     0.005 A 
ATOM     20  C   UNL d   1     -46.276  13.414  22.351  0.00  0.00     0.003 A 
BRANCH  18  21
ATOM     21  C   UNL d   1     -44.294  12.496  22.042  0.00  0.00     0.296 C 
ATOM     22  O   UNL d   1     -43.841  11.873  22.348  0.00  0.00    -0.259 OA
BRANCH  21  23
ATOM     23  O   UNL d   1     -43.994  12.968  21.440  0.00  0.00    -0.296 OA
ATOM     24  C   UNL d   1     -43.206  12.887  21.204  0.00  0.00     0.185 C 
ENDBRANCH  21  23
ENDBRANCH  18  21
ENDBRANCH  13  15
ENDBRANCH   1  13
TORSDOF 5
ENDMDL
MODEL 3
REMARK VINA RESULT:      -6.6      9.258     10.704
REMARK  5 active torsions:
REMARK  status: ('A' for Active; 'I' for Inactive)
REMARK    1  A    between atoms: C_2  and  C_1 
REMARK    2  A    between atoms: C_5  and  C_2 
REMARK    3  A    between atoms: C_11  and  C_5 
REMARK    4  A    between atoms: C_10  and  C_12 
REMARK    5  A    between atoms: O_19  and  C_10 
ROOT
ATOM      1  C   UNL d   1     -39.866  14.646  18.572  0.00  0.00     0.131 C 
ATOM      2  C   UNL d   1     -40.635  14.328  18.635  0.00  0.00     0.106 C 
ATOM      3  N   UNL d   1     -41.365  14.030  18.702  0.00  0.00    -0.191 NA
ENDROOT
BRANCH   1   4
ATOM      4  C   UNL d   1     -39.428  14.507  17.905  0.00  0.00     0.123 A 
ATOM      5  N   UNL d   1     -39.101  13.779  17.701  0.00  0.00    -0.238 NA
ATOM      6  C   UNL d   1     -38.694  13.886  16.970  0.00  0.00     0.088 A 
ATOM      7  C   UNL d   1     -38.277  13.379  16.511  0.00  0.00     0.020 A 
ATOM      8  C   UNL d   1     -38.782  14.675  16.747  0.00  0.00     0.049 A 
ATOM      9  C   UNL d   1     -37.940  13.646  15.822  0.00  0.00     0.002 A 
ATOM     10  C   UNL d   1     -38.030  14.456  15.593  0.00  0.00     0.001 A 
ATOM     11  C   UNL d   1     -38.454  14.965  16.063  0.00  0.00     0.008 A 
ATOM     12  S   UNL d   1     -39.244  15.059  17.339  0.00  0.00    -0.066 SA
ENDBRANCH   1   4
BRANCH   1  13
ATOM     13  C   UNL d   1     -39.554  15.099  19.184  0.00  0.00     0.207 C 
ATOM     14  O   UNL d   1     -39.468  15.919  19.090  0.00  0.00    -0.286 OA
BRANCH  13  15
ATOM     15  C   UNL d   1     -39.319  14.728  19.916  0.00  0.00     0.040 A 
ATOM     16  C   UNL d   1     -39.886  14.535  20.473  0.00  0.00     0.003 A 
ATOM     17  C   UNL d   1     -39.658  14.176  21.181  0.00  0.00     0.005 A 
ATOM     18  C   UNL d   1     -38.868  14.016  21.318  0.00  0.00     0.063 A 
ATOM     19  C   UNL d   1     -38.293  14.209  20.758  0.00  0.00     0.005 A 
ATOM     20  C   UNL d   1     -38.520  14.568  20.050  0.00  0.00     0.003 A 
BRANCH  18  21
ATOM     21  C   UNL d   1     -38.632  13.644  22.050  0.00  0.00     0.296 C 
ATOM     22  O   UNL d   1     -38.315  12.879  22.040  0.00  0.00    -0.259 OA
BRANCH  21  23
ATOM     23  O   UNL d   1     -38.720  14.044  22.762  0.00  0.00    -0.296 OA
ATOM     24  C   UNL d   1     -38.422  13.719  23.460  0.00  0.00     0.185 C 
ENDBRANCH  21  23
ENDBRANCH  18  21
ENDBRANCH  13  15
ENDBRANCH   1  13
TORSDOF 5
ENDMDL
