MODEL 1
REMARK VINA RESULT:      -7.9      0.000      0.000
REMARK  4 active torsions:
REMARK  status: ('A' for Active; 'I' for Inactive)
REMARK    1  A    between atoms: N_3  and  C_8 
REMARK    2  A    between atoms: S_11  and  C_4 
REMARK    3  A    between atoms: C_15  and  S_11 
REMARK    4  A    between atoms: C_16  and  C_15 
ROOT
ATOM      1  C   UNL d   1      52.818  32.612  53.574  0.00  0.00     0.037 C 
ENDROOT
BRANCH   1   2
ATOM      2  S   UNL d   1      53.442  32.089  53.673  0.00  0.00    -0.067 SA
BRANCH   2   3
ATOM      3  C   UNL d   1      53.332  31.286  53.503  0.00  0.00     0.117 A 
ATOM      4  N   UNL d   1      53.140  31.047  52.745  0.00  0.00    -0.184 NA
ATOM      5  C   UNL d   1      53.030  30.245  52.576  0.00  0.00     0.369 A 
ATOM      6  N   UNL d   1      53.113  29.683  53.166  0.00  0.00    -0.191 NA
ATOM      7  O   UNL d   1      52.837  30.007  51.811  0.00  0.00    -0.242 OA
ATOM      8  C   UNL d   1      53.307  29.921  53.931  0.00  0.00     0.088 A 
ATOM      9  C   UNL d   1      53.416  30.723  54.100  0.00  0.00     0.045 A 
ATOM     10  C   UNL d   1      53.392  29.356  54.536  0.00  0.00     0.021 C 
ENDBRANCH   2   3
ENDBRANCH   1   2
BRANCH   1  11
ATOM     11  C   UNL d   1      52.889  33.399  53.798  0.00  0.00     0.007 A 
ATOM     12  C   UNL d   1      53.322  33.616  54.468  0.00  0.00     0.002 A 
ATOM     13  C   UNL d   1      53.391  34.397  54.687  0.00  0.00     0.024 A 
ATOM     14  C   UNL d   1      53.024  34.978  54.235  0.00  0.00     0.127 A 
ATOM     15  C   UNL d   1      52.597  34.776  53.576  0.00  0.00     0.024 A 
ATOM     16  C   UNL d   1      52.521  33.986  53.346  0.00  0.00     0.002 A 
BRANCH  14  17
ATOM     17  N   UNL d   1      53.088  35.771  54.449  0.00  0.00    -0.114 N 
ATOM     18  O   UNL d   1      52.494  36.134  54.888  0.00  0.00    -0.532 OA
ATOM     19  O   UNL d   1      53.753  36.201  54.219  0.00  0.00    -0.532 OA
ENDBRANCH  14  17
ENDBRANCH   1  11
TORSDOF 4
ENDMDL
MODEL 2
REMARK VINA RESULT:      -7.7      1.084      4.731
REMARK  4 active torsions:
REMARK  status: ('A' for Active; 'I' for Inactive)
REMARK    1  A    between atoms: N_3  and  C_8 
REMARK    2  A    between atoms: S_11  and  C_4 
REMARK    3  A    between atoms: C_15  and  S_11 
REMARK    4  A    between atoms: C_16  and  C_15 
ROOT
ATOM      1  C   UNL d   1      53.265  32.487  53.354  0.00  0.00     0.037 C 
ENDROOT
BRANCH   1   2
ATOM      2  S   UNL d   1      53.145  32.988  53.993  0.00  0.00    -0.067 SA
BRANCH   2   3
ATOM      3  C   UNL d   1      52.861  33.754  53.863  0.00  0.00     0.117 A 
ATOM      4  N   UNL d   1      53.261  34.400  54.165  0.00  0.00    -0.184 NA
ATOM      5  C   UNL d   1      52.977  35.165  54.035  0.00  0.00     0.369 A 
ATOM      6  N   UNL d   1      52.293  35.284  53.603  0.00  0.00    -0.191 NA
ATOM      7  O   UNL d   1      53.384  35.814  54.341  0.00  0.00    -0.242 OA
ATOM      8  C   UNL d   1      51.886  34.636  53.297  0.00  0.00     0.088 A 
ATOM      9  C   UNL d   1      52.170  33.870  53.427  0.00  0.00     0.045 A 
ATOM     10  C   UNL d   1      51.189  34.749  52.857  0.00  0.00     0.021 C 
ENDBRANCH   2   3
ENDBRANCH   1   2
BRANCH   1  11
ATOM     11  C   UNL d   1      53.226  31.672  53.444  0.00  0.00     0.007 A 
ATOM     12  C   UNL d   1      53.693  31.281  54.005  0.00  0.00     0.002 A 
ATOM     13  C   UNL d   1      53.652  30.473  54.092  0.00  0.00     0.024 A 
ATOM     14  C   UNL d   1      53.140  30.039  53.617  0.00  0.00     0.127 A 
ATOM     15  C   UNL d   1      52.679  30.413  53.064  0.00  0.00     0.024 A 
ATOM     16  C   UNL d   1      52.713  31.233  52.968  0.00  0.00     0.002 A 
BRANCH  14  17
ATOM     17  N   UNL d   1      53.092  29.221  53.698  0.00  0.00    -0.114 N 
ATOM     18  O   UNL d   1      53.444  28.843  54.339  0.00  0.00    -0.532 OA
ATOM     19  O   UNL d   1      52.688  28.780  53.130  0.00  0.00    -0.532 OA
ENDBRANCH  14  17
ENDBRANCH   1  11
TORSDOF 4
ENDMDL
MODEL 3
REMARK VINA RESULT:      -7.7      2.580      3.318
REMARK  4 active torsions:
REMARK  status: ('A' for Active; 'I' for Inactive)
REMARK    1  A    between atoms: N_3  and  C_8 
REMARK    2  A    between atoms: S_11  and  C_4 
REMARK    3  A    between atoms: C_15  and  S_11 
REMARK    4  A    between atoms: C_16  and  C_15 
ROOT
ATOM      1  C   UNL d   1      52.194  33.823  52.962  0.00  0.00     0.037 C 
ENDROOT
BRANCH   1   2
ATOM      2  S   UNL d   1      52.309  33.554  53.728  0.00  0.00    -0.067 SA
BRANCH   2   3
ATOM      3  C   UNL d   1      53.026  33.194  53.931  0.00  0.00     0.117 A 
ATOM      4  N   UNL d   1      53.202  32.442  53.659  0.00  0.00    -0.184 NA
ATOM      5  C   UNL d   1      53.918  32.082  53.862  0.00  0.00     0.369 A 
ATOM      6  N   UNL d   1      54.458  32.474  54.335  0.00  0.00    -0.191 NA
ATOM      7  O   UNL d   1      54.092  31.324  53.586  0.00  0.00    -0.242 OA
ATOM      8  C   UNL d   1      54.284  33.232  54.610  0.00  0.00     0.088 A 
ATOM      9  C   UNL d   1      53.568  33.592  54.408  0.00  0.00     0.045 A 
ATOM     10  C   UNL d   1      54.829  33.636  55.092  0.00  0.00     0.021 C 
ENDBRANCH   2   3
ENDBRANCH   1   2
BRANCH   1  11
ATOM     11  C   UNL d   1      51.449  34.053  52.704  0.00  0.00     0.007 A 
ATOM     12  C   UNL d   1      50.845  34.229  53.241  0.00  0.00     0.002 A 
ATOM     13  C   UNL d   1      50.108  34.456  52.982  0.00  0.00     0.024 A 
ATOM     14  C   UNL d   1      49.961  34.511  52.175  0.00  0.00     0.127 A 
ATOM     15  C   UNL d   1      50.546  34.340  51.640  0.00  0.00     0.024 A 
ATOM     16  C   UNL d   1      51.298  34.109  51.893  0.00  0.00     0.002 A 
BRANCH  14  17
ATOM     17  N   UNL d   1      49.218  34.740  51.903  0.00  0.00    -0.114 N 
ATOM     18  O   UNL d   1      48.957  34.511  51.157  0.00  0.00    -0.532 OA
ATOM     19  O   UNL d   1      48.734  35.202  52.386  0.00  0.00    -0.532 OA
ENDBRANCH  14  17
ENDBRANCH   1  11
TORSDOF 4
ENDMDL
MODEL 4
REMARK VINA RESULT:      -7.2      3.027      4.666
REMARK  4 active torsions:
REMARK  status: ('A' for Active; 'I' for Inactive)
REMARK    1  A    between atoms: N_3  and  C_8 
REMARK    2  A    between atoms: S_11  and  C_4 
REMARK    3  A    between atoms: C_15  and  S_11 
REMARK    4  A    between atoms: C_16  and  C_15 
ROOT
ATOM      1  C   UNL d   1      51.397  34.305  52.765  0.00  0.00     0.037 C 
ENDROOT
BRANCH   1   2
ATOM      2  S   UNL d   1      50.645  34.005  52.900  0.00  0.00    -0.067 SA
BRANCH   2   3
ATOM      3  C   UNL d   1      49.983  34.431  52.644  0.00  0.00     0.117 A 
ATOM      4  N   UNL d   1      49.625  34.974  53.140  0.00  0.00    -0.184 NA
ATOM      5  C   UNL d   1      48.964  35.400  52.884  0.00  0.00     0.369 A 
ATOM      6  N   UNL d   1      48.662  35.283  52.133  0.00  0.00    -0.191 NA
ATOM      7  O   UNL d   1      48.605  35.947  53.387  0.00  0.00    -0.242 OA
ATOM      8  C   UNL d   1      49.021  34.736  51.630  0.00  0.00     0.088 A 
ATOM      9  C   UNL d   1      49.682  34.310  51.886  0.00  0.00     0.045 A 
ATOM     10  C   UNL d   1      48.720  34.612  50.865  0.00  0.00     0.021 C 
ENDBRANCH   2   3
ENDBRANCH   1   2
BRANCH   1  11
ATOM     11  C   UNL d   1      52.060  33.932  53.073  0.00  0.00     0.007 A 
ATOM     12  C   UNL d   1      52.214  33.134  52.916  0.00  0.00     0.002 A 
ATOM     13  C   UNL d   1      52.873  32.768  53.223  0.00  0.00     0.024 A 
ATOM     14  C   UNL d   1      53.393  33.197  53.695  0.00  0.00     0.127 A 
ATOM     15  C   UNL d   1      53.250  33.979  53.854  0.00  0.00     0.024 A 
ATOM     16  C   UNL d   1      52.585  34.360  53.548  0.00  0.00     0.002 A 
BRANCH  14  17
ATOM     17  N   UNL d   1      54.062  32.834  54.010  0.00  0.00    -0.114 N 
ATOM     18  O   UNL d   1      54.054  32.537  54.777  0.00  0.00    -0.532 OA
ATOM     19  O   UNL d   1      54.744  32.771  53.550  0.00  0.00    -0.532 OA
ENDBRANCH  14  17
ENDBRANCH   1  11
TORSDOF 4
ENDMDL
