MODEL 1
REMARK VINA RESULT:      59.4      0.000      0.000
REMARK  3 active torsions:
REMARK  status: ('A' for Active; 'I' for Inactive)
REMARK    1  A    between atoms: N_8  and  C_1 
REMARK    2  A    between atoms: N_7  and  C_2 
REMARK    3  A    between atoms: C_11  and  N_8 
ROOT
ATOM      1  C   UNL d   1     -57.989 -98.888 -44.389  0.00  0.00     0.139 A 
ATOM      2  C   UNL d   1     -57.815 -98.907 -45.192  0.00  0.00     0.124 A 
ATOM      3  C   UNL d   1     -57.025 -98.910 -45.465  0.00  0.00     0.213 A 
ATOM      4  C   UNL d   1     -57.377 -98.873 -43.834  0.00  0.00     0.215 A 
ATOM      5  C   UNL d   1     -56.424 -98.894 -44.892  0.00  0.00     0.044 A 
ATOM      6  C   UNL d   1     -56.598 -98.876 -44.090  0.00  0.00     0.044 A 
ATOM      7  O   UNL d   1     -56.850 -98.929 -46.275  0.00  0.00    -0.285 OA
ATOM      8  O   UNL d   1     -57.552 -98.854 -43.024  0.00  0.00    -0.285 OA
ATOM      9  C   UNL d   1     -55.633 -98.898 -45.165  0.00  0.00     0.003 A 
ATOM     10  C   UNL d   1     -55.985 -98.861 -43.534  0.00  0.00     0.003 A 
ATOM     11  C   UNL d   1     -55.030 -98.882 -44.591  0.00  0.00     0.000 A 
ATOM     12  C   UNL d   1     -55.203 -98.864 -43.789  0.00  0.00     0.000 A 
ENDROOT
BRANCH   1  13
ATOM     13  N   UNL d   1     -58.794 -98.885 -44.140  0.00  0.00    -0.241 NA
BRANCH  13  14
ATOM     14  C   UNL d   1     -58.969 -98.842 -43.330  0.00  0.00     0.082 A 
ATOM     15  C   UNL d   1     -59.755 -98.806 -43.081  0.00  0.00     0.019 A 
ATOM     16  C   UNL d   1     -59.929 -98.764 -42.276  0.00  0.00     0.002 A 
ATOM     17  C   UNL d   1     -59.315 -98.757 -41.732  0.00  0.00     0.000 A 
ATOM     18  C   UNL d   1     -58.538 -98.792 -41.974  0.00  0.00     0.002 A 
ATOM     19  C   UNL d   1     -58.364 -98.835 -42.779  0.00  0.00     0.019 A 
ENDBRANCH  13  14
ENDBRANCH   1  13
BRANCH   2  20
ATOM     20  N   UNL d   1     -58.424 -98.922 -45.767  0.00  0.00    -0.300 N 
ATOM     21  C   UNL d   1     -59.208 -99.093 -45.558  0.00  0.00     0.080 A 
ATOM     22  C   UNL d   1     -59.792 -99.105 -46.134  0.00  0.00     0.019 A 
ATOM     23  C   UNL d   1     -59.607 -98.945 -46.936  0.00  0.00     0.003 A 
ATOM     24  C   UNL d   1     -58.823 -98.774 -47.145  0.00  0.00     0.019 A 
ATOM     25  C   UNL d   1     -58.210 -98.760 -46.555  0.00  0.00     0.080 A 
ENDBRANCH   2  20
TORSDOF 3
ENDMDL
