MODEL 1
REMARK VINA RESULT:      -4.5      0.000      0.000
REMARK  3 active torsions:
REMARK  status: ('A' for Active; 'I' for Inactive)
REMARK    1  A    between atoms: C_6  and  C_5 
REMARK    2  A    between atoms: C_7  and  C_6 
REMARK    3  A    between atoms: O_11  and  C_7 
ROOT
ATOM      1  N   UNL d   1      55.396  -0.750  33.363  0.00  0.00    -0.163 NA
ATOM      2  C   UNL d   1      55.424   0.074  33.293  0.00  0.00     0.313 A 
ATOM      3  C   UNL d   1      55.945  -1.071  32.839  0.00  0.00     0.288 A 
ATOM      4  S   UNL d   1      55.993   0.254  32.725  0.00  0.00    -0.021 SA
ATOM      5  C   UNL d   1      56.312  -0.445  32.447  0.00  0.00     0.097 A 
ATOM      6  O   UNL d   1      54.964   0.610  33.719  0.00  0.00    -0.258 OA
ATOM      7  O   UNL d   1      56.099  -1.877  32.728  0.00  0.00    -0.265 OA
ENDROOT
BRANCH   5   8
ATOM      8  C   UNL d   1      56.900  -0.521  31.873  0.00  0.00     0.080 C 
BRANCH   8   9
ATOM      9  C   UNL d   1      57.277   0.149  31.581  0.00  0.00     0.297 C 
ATOM     10  O   UNL d   1      57.823   0.554  32.053  0.00  0.00    -0.259 OA
BRANCH   9  11
ATOM     11  O   UNL d   1      57.119   0.421  30.825  0.00  0.00    -0.296 OA
ATOM     12  C   UNL d   1      57.735   0.595  30.310  0.00  0.00     0.185 C 
ENDBRANCH   9  11
ENDBRANCH   8   9
ENDBRANCH   5   8
TORSDOF 3
ENDMDL
MODEL 2
REMARK VINA RESULT:      -4.0      1.003      2.745
REMARK  3 active torsions:
REMARK  status: ('A' for Active; 'I' for Inactive)
REMARK    1  A    between atoms: C_6  and  C_5 
REMARK    2  A    between atoms: C_7  and  C_6 
REMARK    3  A    between atoms: O_11  and  C_7 
ROOT
ATOM      1  N   UNL d   1      56.595  -1.209  31.796  0.00  0.00    -0.163 NA
ATOM      2  C   UNL d   1      56.829  -0.416  31.774  0.00  0.00     0.313 A 
ATOM      3  C   UNL d   1      56.151  -1.327  32.480  0.00  0.00     0.288 A 
ATOM      4  S   UNL d   1      56.526  -0.051  32.447  0.00  0.00    -0.021 SA
ATOM      5  C   UNL d   1      56.112  -0.607  32.880  0.00  0.00     0.097 A 
ATOM      6  O   UNL d   1      57.282  -0.063  31.182  0.00  0.00    -0.258 OA
ATOM      7  O   UNL d   1      55.808  -2.042  32.721  0.00  0.00    -0.265 OA
ENDROOT
BRANCH   5   8
ATOM      8  C   UNL d   1      55.719  -0.479  33.594  0.00  0.00     0.080 C 
BRANCH   8   9
ATOM      9  C   UNL d   1      55.368   0.249  33.744  0.00  0.00     0.297 C 
ATOM     10  O   UNL d   1      54.840   0.575  33.197  0.00  0.00    -0.259 OA
BRANCH   9  11
ATOM     11  O   UNL d   1      55.535   0.658  34.434  0.00  0.00    -0.296 OA
ATOM     12  C   UNL d   1      54.987   0.680  35.045  0.00  0.00     0.185 C 
ENDBRANCH   9  11
ENDBRANCH   8   9
ENDBRANCH   5   8
TORSDOF 3
ENDMDL
MODEL 3
REMARK VINA RESULT:      -3.3      8.247      9.156
REMARK  3 active torsions:
REMARK  status: ('A' for Active; 'I' for Inactive)
REMARK    1  A    between atoms: C_6  and  C_5 
REMARK    2  A    between atoms: C_7  and  C_6 
REMARK    3  A    between atoms: O_11  and  C_7 
ROOT
ATOM      1  N   UNL d   1      59.758  -5.918  35.854  0.00  0.00    -0.163 NA
ATOM      2  C   UNL d   1      60.573  -6.012  35.960  0.00  0.00     0.313 A 
ATOM      3  C   UNL d   1      59.405  -6.661  35.898  0.00  0.00     0.288 A 
ATOM      4  S   UNL d   1      60.716  -6.816  36.069  0.00  0.00    -0.021 SA
ATOM      5  C   UNL d   1      60.003  -7.214  36.031  0.00  0.00     0.097 A 
ATOM      6  O   UNL d   1      61.133  -5.407  35.955  0.00  0.00    -0.258 OA
ATOM      7  O   UNL d   1      58.596  -6.822  35.823  0.00  0.00    -0.265 OA
ENDROOT
BRANCH   5   8
ATOM      8  C   UNL d   1      59.891  -8.027  36.112  0.00  0.00     0.080 C 
BRANCH   8   9
ATOM      9  C   UNL d   1      60.470  -8.549  35.851  0.00  0.00     0.297 C 
ATOM     10  O   UNL d   1      61.130  -8.705  36.324  0.00  0.00    -0.259 OA
BRANCH   9  11
ATOM     11  O   UNL d   1      60.401  -8.919  35.123  0.00  0.00    -0.296 OA
ATOM     12  C   UNL d   1      60.559  -9.721  35.049  0.00  0.00     0.185 C 
ENDBRANCH   9  11
ENDBRANCH   8   9
ENDBRANCH   5   8
TORSDOF 3
ENDMDL
MODEL 4
REMARK VINA RESULT:      -2.3      1.412      3.052
REMARK  3 active torsions:
REMARK  status: ('A' for Active; 'I' for Inactive)
REMARK    1  A    between atoms: C_6  and  C_5 
REMARK    2  A    between atoms: C_7  and  C_6 
REMARK    3  A    between atoms: O_11  and  C_7 
ROOT
ATOM      1  N   UNL d   1      57.660   0.660  32.598  0.00  0.00    -0.163 NA
ATOM      2  C   UNL d   1      57.017   0.633  32.078  0.00  0.00     0.313 A 
ATOM      3  C   UNL d   1      57.371   0.602  33.368  0.00  0.00     0.288 A 
ATOM      4  S   UNL d   1      56.335   0.558  32.534  0.00  0.00    -0.021 SA
ATOM      5  C   UNL d   1      56.550   0.539  33.322  0.00  0.00     0.097 A 
ATOM      6  O   UNL d   1      57.060   0.674  31.255  0.00  0.00    -0.258 OA
ATOM      7  O   UNL d   1      57.825   0.606  34.060  0.00  0.00    -0.265 OA
ENDROOT
BRANCH   5   8
ATOM      8  C   UNL d   1      56.040   0.469  33.967  0.00  0.00     0.080 C 
BRANCH   8   9
ATOM      9  C   UNL d   1      55.313   0.097  33.877  0.00  0.00     0.297 C 
ATOM     10  O   UNL d   1      55.261  -0.728  33.920  0.00  0.00    -0.259 OA
BRANCH   9  11
ATOM     11  O   UNL d   1      54.633   0.536  33.744  0.00  0.00    -0.296 OA
ATOM     12  C   UNL d   1      54.098   0.666  34.352  0.00  0.00     0.185 C 
ENDBRANCH   9  11
ENDBRANCH   8   9
ENDBRANCH   5   8
TORSDOF 3
ENDMDL
MODEL 5
REMARK VINA RESULT:      -2.3      1.279      2.111
REMARK  3 active torsions:
REMARK  status: ('A' for Active; 'I' for Inactive)
REMARK    1  A    between atoms: C_6  and  C_5 
REMARK    2  A    between atoms: C_7  and  C_6 
REMARK    3  A    between atoms: O_11  and  C_7 
ROOT
ATOM      1  N   UNL d   1      55.181  -0.974  33.238  0.00  0.00    -0.163 NA
ATOM      2  C   UNL d   1      55.835  -1.354  32.904  0.00  0.00     0.313 A 
ATOM      3  C   UNL d   1      55.373  -0.180  33.347  0.00  0.00     0.288 A 
ATOM      4  S   UNL d   1      56.427  -0.789  32.810  0.00  0.00    -0.021 SA
ATOM      5  C   UNL d   1      56.146  -0.071  33.081  0.00  0.00     0.097 A 
ATOM      6  O   UNL d   1      55.879  -2.153  32.704  0.00  0.00    -0.258 OA
ATOM      7  O   UNL d   1      54.877   0.401  33.668  0.00  0.00    -0.265 OA
ENDROOT
BRANCH   5   8
ATOM      8  C   UNL d   1      56.556   0.644  33.090  0.00  0.00     0.080 C 
BRANCH   8   9
ATOM      9  C   UNL d   1      57.372   0.648  33.192  0.00  0.00     0.297 C 
ATOM     10  O   UNL d   1      57.872   0.679  32.534  0.00  0.00    -0.259 OA
BRANCH   9  11
ATOM     11  O   UNL d   1      57.699   0.620  33.944  0.00  0.00    -0.296 OA
ATOM     12  C   UNL d   1      58.511   0.681  34.044  0.00  0.00     0.185 C 
ENDBRANCH   9  11
ENDBRANCH   8   9
ENDBRANCH   5   8
TORSDOF 3
ENDMDL
MODEL 6
REMARK VINA RESULT:      -2.3      3.884      4.994
REMARK  3 active torsions:
REMARK  status: ('A' for Active; 'I' for Inactive)
REMARK    1  A    between atoms: C_6  and  C_5 
REMARK    2  A    between atoms: C_7  and  C_6 
REMARK    3  A    between atoms: O_11  and  C_7 
ROOT
ATOM      1  N   UNL d   1      59.789  -3.061  28.856  0.00  0.00    -0.163 NA
ATOM      2  C   UNL d   1      58.964  -3.075  28.917  0.00  0.00     0.313 A 
ATOM      3  C   UNL d   1      60.041  -2.283  28.957  0.00  0.00     0.288 A 
ATOM      4  S   UNL d   1      58.714  -2.303  29.054  0.00  0.00    -0.021 SA
ATOM      5  C   UNL d   1      59.371  -1.817  29.079  0.00  0.00     0.097 A 
ATOM      6  O   UNL d   1      58.486  -3.745  28.850  0.00  0.00    -0.258 OA
ATOM      7  O   UNL d   1      60.825  -2.019  28.938  0.00  0.00    -0.265 OA
ENDROOT
BRANCH   5   8
ATOM      8  C   UNL d   1      59.374  -1.002  29.204  0.00  0.00     0.080 C 
BRANCH   8   9
ATOM      9  C   UNL d   1      58.663  -0.594  29.264  0.00  0.00     0.297 C 
ATOM     10  O   UNL d   1      58.223  -0.427  28.583  0.00  0.00    -0.259 OA
BRANCH   9  11
ATOM     11  O   UNL d   1      58.383  -0.348  29.994  0.00  0.00    -0.296 OA
ATOM     12  C   UNL d   1      58.117   0.421  30.098  0.00  0.00     0.185 C 
ENDBRANCH   9  11
ENDBRANCH   8   9
ENDBRANCH   5   8
TORSDOF 3
ENDMDL
MODEL 7
REMARK VINA RESULT:      -2.0      3.714      4.804
REMARK  3 active torsions:
REMARK  status: ('A' for Active; 'I' for Inactive)
REMARK    1  A    between atoms: C_6  and  C_5 
REMARK    2  A    between atoms: C_7  and  C_6 
REMARK    3  A    between atoms: O_11  and  C_7 
ROOT
ATOM      1  N   UNL d   1      58.881   0.175  29.526  0.00  0.00    -0.163 NA
ATOM      2  C   UNL d   1      59.462  -0.044  28.979  0.00  0.00     0.313 A 
ATOM      3  C   UNL d   1      58.458  -0.500  29.735  0.00  0.00     0.288 A 
ATOM      4  S   UNL d   1      59.391  -0.855  28.855  0.00  0.00    -0.021 SA
ATOM      5  C   UNL d   1      58.777  -1.135  29.317  0.00  0.00     0.097 A 
ATOM      6  O   UNL d   1      60.008   0.463  28.626  0.00  0.00    -0.258 OA
ATOM      7  O   UNL d   1      57.826  -0.533  30.269  0.00  0.00    -0.265 OA
ENDROOT
BRANCH   5   8
ATOM      8  C   UNL d   1      58.516  -1.916  29.363  0.00  0.00     0.080 C 
BRANCH   8   9
ATOM      9  C   UNL d   1      59.004  -2.528  29.113  0.00  0.00     0.297 C 
ATOM     10  O   UNL d   1      59.706  -2.691  29.520  0.00  0.00    -0.259 OA
BRANCH   9  11
ATOM     11  O   UNL d   1      58.805  -2.982  28.460  0.00  0.00    -0.296 OA
ATOM     12  C   UNL d   1      58.955  -3.789  28.455  0.00  0.00     0.185 C 
ENDBRANCH   9  11
ENDBRANCH   8   9
ENDBRANCH   5   8
TORSDOF 3
ENDMDL
MODEL 8
REMARK VINA RESULT:      -2.0      2.808      3.976
REMARK  3 active torsions:
REMARK  status: ('A' for Active; 'I' for Inactive)
REMARK    1  A    between atoms: C_6  and  C_5 
REMARK    2  A    between atoms: C_7  and  C_6 
REMARK    3  A    between atoms: O_11  and  C_7 
ROOT
ATOM      1  N   UNL d   1      57.468   0.605  29.909  0.00  0.00    -0.163 NA
ATOM      2  C   UNL d   1      57.850   0.237  30.543  0.00  0.00     0.313 A 
ATOM      3  C   UNL d   1      57.882   0.426  29.220  0.00  0.00     0.288 A 
ATOM      4  S   UNL d   1      58.499  -0.168  30.238  0.00  0.00    -0.021 SA
ATOM      5  C   UNL d   1      58.520  -0.053  29.429  0.00  0.00     0.097 A 
ATOM      6  O   UNL d   1      57.618   0.273  31.334  0.00  0.00    -0.258 OA
ATOM      7  O   UNL d   1      57.690   0.682  28.456  0.00  0.00    -0.265 OA
ENDROOT
BRANCH   5   8
ATOM      8  C   UNL d   1      59.078  -0.360  28.905  0.00  0.00     0.080 C 
BRANCH   8   9
ATOM      9  C   UNL d   1      59.505  -1.032  29.107  0.00  0.00     0.297 C 
ATOM     10  O   UNL d   1      59.122  -1.762  29.171  0.00  0.00    -0.259 OA
BRANCH   9  11
ATOM     11  O   UNL d   1      60.312  -0.987  29.248  0.00  0.00    -0.296 OA
ATOM     12  C   UNL d   1      60.830  -1.480  28.846  0.00  0.00     0.185 C 
ENDBRANCH   9  11
ENDBRANCH   8   9
ENDBRANCH   5   8
TORSDOF 3
ENDMDL
MODEL 9
REMARK VINA RESULT:      -1.9      2.887      4.301
REMARK  3 active torsions:
REMARK  status: ('A' for Active; 'I' for Inactive)
REMARK    1  A    between atoms: C_6  and  C_5 
REMARK    2  A    between atoms: C_7  and  C_6 
REMARK    3  A    between atoms: O_11  and  C_7 
ROOT
ATOM      1  N   UNL d   1      59.683  -0.757  28.879  0.00  0.00    -0.163 NA
ATOM      2  C   UNL d   1      60.089  -0.406  29.509  0.00  0.00     0.313 A 
ATOM      3  C   UNL d   1      58.881  -0.589  28.964  0.00  0.00     0.288 A 
ATOM      4  S   UNL d   1      59.531  -0.024  29.979  0.00  0.00    -0.021 SA
ATOM      5  C   UNL d   1      58.792  -0.134  29.647  0.00  0.00     0.097 A 
ATOM      6  O   UNL d   1      60.903  -0.438  29.637  0.00  0.00    -0.258 OA
ATOM      7  O   UNL d   1      58.275  -0.833  28.455  0.00  0.00    -0.265 OA
ENDROOT
BRANCH   5   8
ATOM      8  C   UNL d   1      58.076   0.154  29.937  0.00  0.00     0.080 C 
BRANCH   8   9
ATOM      9  C   UNL d   1      57.899   0.083  30.737  0.00  0.00     0.297 C 
ATOM     10  O   UNL d   1      58.197   0.635  31.277  0.00  0.00    -0.259 OA
BRANCH   9  11
ATOM     11  O   UNL d   1      57.428  -0.531  31.007  0.00  0.00    -0.296 OA
ATOM     12  C   UNL d   1      56.967  -0.433  31.679  0.00  0.00     0.185 C 
ENDBRANCH   9  11
ENDBRANCH   8   9
ENDBRANCH   5   8
TORSDOF 3
ENDMDL
