MODEL 1
REMARK VINA RESULT:      -0.1      0.000      0.000
REMARK  0 active torsions:
REMARK  status: ('A' for Active; 'I' for Inactive)
ROOT
ATOM      1  N   UNL d   1      23.227  13.704  -0.038  0.00  0.00    -0.152 NA
ATOM      2  C   UNL d   1      23.952  13.494  -0.358  0.00  0.00     0.284 A 
ATOM      3  C   UNL d   1      22.526  13.368  -0.343  0.00  0.00     0.371 A 
ATOM      4  C   UNL d   1      23.992  12.951  -0.981  0.00  0.00     0.076 A 
ATOM      5  N   UNL d   1      22.566  12.825  -0.966  0.00  0.00    -0.191 NA
ATOM      6  C   UNL d   1      23.302  12.616  -1.285  0.00  0.00     0.091 A 
ATOM      7  O   UNL d   1      24.646  13.827  -0.057  0.00  0.00    -0.265 OA
ATOM      8  O   UNL d   1      21.795  13.578  -0.023  0.00  0.00    -0.242 OA
ATOM      9  C   UNL d   1      24.725  12.745  -1.297  0.00  0.00     0.006 A 
ATOM     10  C   UNL d   1      23.345  12.075  -1.906  0.00  0.00     0.019 A 
ATOM     11  C   UNL d   1      24.768  12.204  -1.918  0.00  0.00     0.000 A 
ATOM     12  C   UNL d   1      24.078  11.869  -2.222  0.00  0.00     0.002 A 
ENDROOT
TORSDOF 0
ENDMDL
MODEL 2
REMARK VINA RESULT:       0.2      1.571      2.616
REMARK  0 active torsions:
REMARK  status: ('A' for Active; 'I' for Inactive)
ROOT
ATOM      1  N   UNL d   1      23.654  11.981  -2.097  0.00  0.00    -0.152 NA
ATOM      2  C   UNL d   1      23.317  12.323  -1.432  0.00  0.00     0.284 A 
ATOM      3  C   UNL d   1      24.375  12.279  -2.396  0.00  0.00     0.371 A 
ATOM      4  C   UNL d   1      23.688  12.960  -1.058  0.00  0.00     0.076 A 
ATOM      5  N   UNL d   1      24.746  12.916  -2.022  0.00  0.00    -0.191 NA
ATOM      6  C   UNL d   1      24.400  13.258  -1.350  0.00  0.00     0.091 A 
ATOM      7  O   UNL d   1      22.604  12.029  -1.137  0.00  0.00    -0.265 OA
ATOM      8  O   UNL d   1      24.717  11.936  -3.065  0.00  0.00    -0.242 OA
ATOM      9  C   UNL d   1      23.342  13.299  -0.390  0.00  0.00     0.006 A 
ATOM     10  C   UNL d   1      24.767  13.893  -0.974  0.00  0.00     0.019 A 
ATOM     11  C   UNL d   1      23.709  13.934  -0.014  0.00  0.00     0.000 A 
ATOM     12  C   UNL d   1      24.421  14.232  -0.306  0.00  0.00     0.002 A 
ENDROOT
TORSDOF 0
ENDMDL
