MODEL 1
REMARK VINA RESULT:      35.4      0.000      0.000
REMARK  4 active torsions:
REMARK  status: ('A' for Active; 'I' for Inactive)
REMARK    1  A    between atoms: C_2  and  N_1 
REMARK       I    between atoms: C_3  and  N_1 
REMARK    2  A    between atoms: N_4  and  C_2 
REMARK    3  A    between atoms: C_7  and  C_3 
REMARK    4  A    between atoms: C_8  and  N_4 
ROOT
ATOM      1  C   UNL d   1      59.559  49.572  50.579  0.00  0.00     0.179 C 
ATOM      2  S   UNL d   1      60.227  49.445  50.107  0.00  0.00    -0.040 SA
ENDROOT
BRANCH   1   3
ATOM      3  N   UNL d   1      58.820  49.692  50.233  0.00  0.00    -0.299 N 
ATOM      4  C   UNL d   1      58.260  49.103  50.289  0.00  0.00     0.259 C 
ATOM      5  O   UNL d   1      58.427  48.395  50.686  0.00  0.00    -0.267 OA
ATOM      6  H   UNL d   1      58.656  50.389  49.842  0.00  0.00     0.171 HD
BRANCH   4   7
ATOM      7  C   UNL d   1      57.510  49.218  49.940  0.00  0.00     0.056 A 
ATOM      8  C   UNL d   1      57.370  48.959  49.179  0.00  0.00     0.005 A 
ATOM      9  C   UNL d   1      56.631  49.070  48.830  0.00  0.00     0.000 A 
ATOM     10  C   UNL d   1      56.034  49.446  49.258  0.00  0.00     0.000 A 
ATOM     11  C   UNL d   1      56.174  49.706  50.019  0.00  0.00     0.000 A 
ATOM     12  C   UNL d   1      56.913  49.594  50.369  0.00  0.00     0.005 A 
ENDBRANCH   4   7
ENDBRANCH   1   3
BRANCH   1  13
ATOM     13  N   UNL d   1      59.626  49.582  51.402  0.00  0.00    -0.332 N 
ATOM     14  H   UNL d   1      58.958  49.560  51.870  0.00  0.00     0.168 HD
BRANCH  13  15
ATOM     15  C   UNL d   1      60.372  49.613  51.741  0.00  0.00     0.058 A 
ATOM     16  C   UNL d   1      61.049  49.668  51.266  0.00  0.00     0.018 A 
ATOM     17  C   UNL d   1      61.787  49.698  51.625  0.00  0.00     0.013 A 
ATOM     18  C   UNL d   1      61.870  49.676  52.436  0.00  0.00     0.058 A 
ATOM     19  C   UNL d   1      61.194  49.622  52.911  0.00  0.00     0.013 A 
ATOM     20 CL   UNL d   1      62.605  49.706  52.790  0.00  0.00    -0.082 Cl
ATOM     21  C   UNL d   1      60.444  49.590  52.567  0.00  0.00     0.018 A 
ENDBRANCH  13  15
ENDBRANCH   1  13
TORSDOF 4
ENDMDL
MODEL 2
REMARK VINA RESULT:      37.0      1.537      1.696
REMARK  4 active torsions:
REMARK  status: ('A' for Active; 'I' for Inactive)
REMARK    1  A    between atoms: C_2  and  N_1 
REMARK       I    between atoms: C_3  and  N_1 
REMARK    2  A    between atoms: N_4  and  C_2 
REMARK    3  A    between atoms: C_7  and  C_3 
REMARK    4  A    between atoms: C_8  and  N_4 
ROOT
ATOM      1  C   UNL d   1      59.563  49.639  51.360  0.00  0.00     0.179 C 
ATOM      2  S   UNL d   1      59.434  49.651  52.178  0.00  0.00    -0.040 SA
ENDROOT
BRANCH   1   3
ATOM      3  N   UNL d   1      58.927  49.562  50.839  0.00  0.00    -0.299 N 
ATOM      4  C   UNL d   1      58.169  49.586  51.137  0.00  0.00     0.259 C 
ATOM      5  O   UNL d   1      58.036  49.685  51.948  0.00  0.00    -0.267 OA
ATOM      6  H   UNL d   1      59.059  49.464  50.040  0.00  0.00     0.171 HD
BRANCH   4   7
ATOM      7  C   UNL d   1      57.522  49.508  50.614  0.00  0.00     0.056 A 
ATOM      8  C   UNL d   1      57.608  49.708  49.827  0.00  0.00     0.005 A 
ATOM      9  C   UNL d   1      56.973  49.633  49.306  0.00  0.00     0.000 A 
ATOM     10  C   UNL d   1      56.249  49.355  49.589  0.00  0.00     0.000 A 
ATOM     11  C   UNL d   1      56.163  49.156  50.376  0.00  0.00     0.000 A 
ATOM     12  C   UNL d   1      56.799  49.230  50.897  0.00  0.00     0.005 A 
ENDBRANCH   4   7
ENDBRANCH   1   3
BRANCH   1  13
ATOM     13  N   UNL d   1      60.327  49.704  51.057  0.00  0.00    -0.332 N 
ATOM     14  H   UNL d   1      60.674  50.437  50.967  0.00  0.00     0.168 HD
BRANCH  13  15
ATOM     15  C   UNL d   1      60.733  49.022  50.849  0.00  0.00     0.058 A 
ATOM     16  C   UNL d   1      61.048  48.936  50.088  0.00  0.00     0.018 A 
ATOM     17  C   UNL d   1      61.451  48.246  49.899  0.00  0.00     0.013 A 
ATOM     18  C   UNL d   1      61.547  47.644  50.441  0.00  0.00     0.058 A 
ATOM     19  C   UNL d   1      61.232  47.730  51.202  0.00  0.00     0.013 A 
ATOM     20 CL   UNL d   1      61.948  46.958  50.251  0.00  0.00    -0.082 Cl
ATOM     21  C   UNL d   1      60.825  48.417  51.409  0.00  0.00     0.018 A 
ENDBRANCH  13  15
ENDBRANCH   1  13
TORSDOF 4
ENDMDL
