MODEL 1
REMARK VINA RESULT:     106.8      0.000      0.000
REMARK  3 active torsions:
REMARK  status: ('A' for Active; 'I' for Inactive)
REMARK    1  A    between atoms: N_2  and  S_1 
REMARK    2  A    between atoms: C_5  and  S_1 
REMARK    3  A    between atoms: C_4  and  N_3 
ROOT
ATOM      1  N   UNL d   1      61.376  45.918  50.205  0.00  0.00    -0.226 N 
ATOM      2  N   UNL d   1      61.035  47.435  50.756  0.00  0.00    -0.301 N 
ATOM      3  C   UNL d   1      60.794  46.030  50.773  0.00  0.00     0.111 A 
ATOM      4  C   UNL d   1      61.798  46.571  49.905  0.00  0.00     0.111 A 
ATOM      5  C   UNL d   1      60.624  46.789  51.048  0.00  0.00     0.100 A 
ATOM      6  C   UNL d   1      61.627  47.329  50.181  0.00  0.00     0.100 A 
ENDROOT
BRANCH   1   7
ATOM      7  S   UNL d   1      61.547  45.159  49.930  0.00  0.00     0.271 S 
ATOM      8  O   UNL d   1      61.832  45.479  49.226  0.00  0.00    -0.200 OA
ATOM      9  O   UNL d   1      61.261  44.839  50.635  0.00  0.00    -0.200 OA
BRANCH   7  10
ATOM     10  C   UNL d   1      61.717  44.400  49.654  0.00  0.00     0.104 A 
ATOM     11  C   UNL d   1      61.227  44.042  49.103  0.00  0.00     0.015 A 
ATOM     12  C   UNL d   1      61.397  43.284  48.828  0.00  0.00     0.030 A 
ATOM     13  C   UNL d   1      62.058  42.885  49.104  0.00  0.00     0.140 A 
ATOM     14  C   UNL d   1      62.560  43.243  49.663  0.00  0.00     0.030 A 
ATOM     15  F   UNL d   1      62.229  42.126  48.828  0.00  0.00    -0.204 F 
ATOM     16  C   UNL d   1      62.390  44.000  49.938  0.00  0.00     0.015 A 
ENDBRANCH   7  10
ENDBRANCH   1   7
BRANCH   2  17
ATOM     17  C   UNL d   1      60.866  48.190  51.031  0.00  0.00     0.064 A 
ATOM     18  C   UNL d   1      60.564  48.757  50.520  0.00  0.00     0.016 A 
ATOM     19  C   UNL d   1      60.393  49.516  50.795  0.00  0.00     0.001 A 
ATOM     20  C   UNL d   1      60.430  48.566  49.726  0.00  0.00     0.002 C 
ATOM     21  C   UNL d   1      60.525  49.706  51.581  0.00  0.00     0.000 A 
ATOM     22  C   UNL d   1      60.831  49.138  52.106  0.00  0.00     0.001 A 
ATOM     23  C   UNL d   1      61.001  48.379  51.830  0.00  0.00     0.016 A 
ATOM     24  C   UNL d   1      61.304  47.812  52.342  0.00  0.00     0.002 C 
ENDBRANCH   2  17
TORSDOF 3
ENDMDL
