MODEL 1
REMARK VINA RESULT:       7.7      0.000      0.000
REMARK  5 active torsions:
REMARK  status: ('A' for Active; 'I' for Inactive)
REMARK    1  A    between atoms: C_11  and  C_4 
REMARK    2  A    between atoms: N_10  and  C_6 
REMARK    3  A    between atoms: C_13  and  C_9 
REMARK    4  A    between atoms: C_14  and  N_10 
REMARK    5  A    between atoms: C_15  and  C_14 
ROOT
ATOM      1  C   UNL d   1     -42.601-122.898 -49.752  0.00  0.00     0.167 A 
ATOM      2  N   UNL d   1     -42.232-122.935 -50.483  0.00  0.00    -0.195 N 
ATOM      3  N   UNL d   1     -41.123-123.565 -49.891  0.00  0.00    -0.163 NA
ATOM      4  C   UNL d   1     -42.234-123.190 -49.105  0.00  0.00     0.055 A 
ATOM      5  N   UNL d   1     -43.337-122.564 -49.694  0.00  0.00    -0.227 NA
ATOM      6  C   UNL d   1     -42.611-122.638 -51.131  0.00  0.00     0.167 A 
ATOM      7  C   UNL d   1     -41.492-123.527 -49.160  0.00  0.00     0.104 A 
ATOM      8  C   UNL d   1     -43.370-122.295 -51.062  0.00  0.00     0.058 A 
ATOM      9  C   UNL d   1     -43.707-122.270 -50.342  0.00  0.00     0.086 A 
ATOM     10  C   UNL d   1     -41.128-123.817 -48.515  0.00  0.00     0.023 C 
ENDROOT
BRANCH   6  11
ATOM     11  N   UNL d   1     -42.236-122.674 -51.884  0.00  0.00    -0.224 NA
BRANCH  11  12
ATOM     12  C   UNL d   1     -41.674-122.270 -52.363  0.00  0.00     0.120 C 
BRANCH  12  13
ATOM     13  C   UNL d   1     -41.657-122.390 -53.191  0.00  0.00     0.101 A 
ATOM     14  N   UNL d   1     -42.027-121.836 -53.705  0.00  0.00    -0.242 NA
ATOM     15  C   UNL d   1     -42.010-121.956 -54.535  0.00  0.00     0.099 A 
ATOM     16  C   UNL d   1     -41.620-122.635 -54.850  0.00  0.00     0.021 A 
ATOM     17  C   UNL d   1     -41.247-123.192 -54.337  0.00  0.00     0.003 A 
ATOM     18  C   UNL d   1     -41.269-123.064 -53.506  0.00  0.00     0.021 A 
ENDBRANCH  12  13
ENDBRANCH  11  12
ENDBRANCH   6  11
BRANCH   9  19
ATOM     19  C   UNL d   1     -44.482-121.920 -50.276  0.00  0.00     0.018 C 
ATOM     20  C   UNL d   1     -44.551-121.104 -50.029  0.00  0.00     0.002 C 
ATOM     21  C   UNL d   1     -45.174-122.377 -50.452  0.00  0.00     0.002 C 
ENDBRANCH   9  19
BRANCH   4  22
ATOM     22  C   UNL d   1     -42.607-123.152 -48.366  0.00  0.00     0.004 A 
ATOM     23  C   UNL d   1     -42.554-122.479 -47.923  0.00  0.00     0.000 A 
ATOM     24  C   UNL d   1     -42.922-122.442 -47.194  0.00  0.00     0.000 A 
ATOM     25  C   UNL d   1     -43.334-123.078 -46.924  0.00  0.00     0.000 A 
ATOM     26  C   UNL d   1     -43.385-123.757 -47.375  0.00  0.00     0.000 A 
ATOM     27  C   UNL d   1     -43.021-123.785 -48.091  0.00  0.00     0.000 A 
ENDBRANCH   4  22
TORSDOF 5
ENDMDL
