MODEL 1
REMARK VINA RESULT:      63.9      0.000      0.000
REMARK  3 active torsions:
REMARK  status: ('A' for Active; 'I' for Inactive)
REMARK    1  A    between atoms: C_2  and  C_1 
REMARK    2  A    between atoms: C_3  and  C_2 
REMARK       I    between atoms: N_5  and  C_3 
REMARK    3  A    between atoms: C_10  and  N_8 
ROOT
ATOM      1  C   UNL d   1     -50.642  27.143  33.580  0.00  0.00     0.304 C 
ATOM      2  N   UNL d   1     -50.052  27.586  33.944  0.00  0.00    -0.266 N 
ATOM      3  N   UNL d   1     -48.868  28.482  34.673  0.00  0.00    -0.301 N 
ATOM      4  O   UNL d   1     -51.324  27.513  33.306  0.00  0.00    -0.263 OA
ATOM      5  C   UNL d   1     -50.144  28.400  34.032  0.00  0.00     0.102 A 
ATOM      6  C   UNL d   1     -49.373  27.212  34.216  0.00  0.00     0.102 A 
ATOM      7  C   UNL d   1     -48.784  27.659  34.579  0.00  0.00     0.100 A 
ATOM      8  C   UNL d   1     -49.558  28.848  34.393  0.00  0.00     0.100 A 
ENDROOT
BRANCH   1   9
ATOM      9  C   UNL d   1     -50.550  26.321  33.491  0.00  0.00     0.253 C 
ATOM     10  O   UNL d   1     -49.792  25.998  33.431  0.00  0.00    -0.281 OA
BRANCH   9  11
ATOM     11  C   UNL d   1     -51.211  25.837  33.463  0.00  0.00     0.064 A 
ATOM     12  C   UNL d   1     -52.002  26.073  33.483  0.00  0.00     0.102 A 
ATOM     13  N   UNL d   1     -52.483  25.408  33.443  0.00  0.00    -0.244 NA
ATOM     14  C   UNL d   1     -51.990  24.747  33.397  0.00  0.00     0.082 A 
ATOM     15  C   UNL d   1     -51.206  25.012  33.409  0.00  0.00     0.022 A 
ATOM     16  C   UNL d   1     -52.153  23.942  33.345  0.00  0.00     0.019 A 
ATOM     17  C   UNL d   1     -50.589  24.469  33.370  0.00  0.00     0.002 A 
ATOM     18  C   UNL d   1     -50.755  23.654  33.318  0.00  0.00     0.000 A 
ATOM     19  C   UNL d   1     -51.535  23.399  33.306  0.00  0.00     0.002 A 
ENDBRANCH   9  11
ENDBRANCH   1   9
BRANCH   3  20
ATOM     20  C   UNL d   1     -48.286  28.930  35.032  0.00  0.00     0.064 A 
ATOM     21  C   UNL d   1     -47.563  28.591  35.237  0.00  0.00     0.020 A 
ATOM     22  C   UNL d   1     -46.981  29.056  35.601  0.00  0.00     0.031 A 
ATOM     23  C   UNL d   1     -47.123  29.856  35.760  0.00  0.00     0.140 A 
ATOM     24  C   UNL d   1     -47.853  30.196  35.553  0.00  0.00     0.031 A 
ATOM     25  F   UNL d   1     -46.539  30.312  36.122  0.00  0.00    -0.204 F 
ATOM     26  C   UNL d   1     -48.427  29.733  35.192  0.00  0.00     0.020 A 
ENDBRANCH   3  20
TORSDOF 3
ENDMDL
