MODEL 1
REMARK VINA RESULT:     103.6      0.000      0.000
REMARK  9 active torsions:
REMARK  status: ('A' for Active; 'I' for Inactive)
REMARK    1  A    between atoms: C_2  and  C_1 
REMARK    2  A    between atoms: C_3  and  C_1 
REMARK    3  A    between atoms: C_12  and  C_1 
REMARK    4  A    between atoms: C_13  and  N_4 
REMARK    5  A    between atoms: C_14  and  N_5 
REMARK    6  A    between atoms: C_17  and  C_12 
REMARK    7  A    between atoms: N_16  and  C_15 
REMARK    8  A    between atoms: C_32  and  N_16 
REMARK    9  A    between atoms: C_33  and  N_16 
ROOT
ATOM      1  C   UNL d   1     -51.126  25.570  34.354  0.00  0.00     0.075 C 
ENDROOT
BRANCH   1   2
ATOM      2  C   UNL d   1     -50.760  24.957  33.941  0.00  0.00     0.191 A 
ATOM      3  N   UNL d   1     -51.111  24.259  33.708  0.00  0.00    -0.192 N 
ATOM      4  N   UNL d   1     -50.549  23.810  33.314  0.00  0.00    -0.039 NA
ATOM      5  N   UNL d   1     -49.852  24.234  33.306  0.00  0.00    -0.022 NA
ATOM      6  N   UNL d   1     -49.977  24.935  33.688  0.00  0.00    -0.108 NA
BRANCH   3   7
ATOM      7  C   UNL d   1     -51.886  24.004  33.823  0.00  0.00     0.086 A 
ATOM      8  C   UNL d   1     -52.489  24.237  33.322  0.00  0.00     0.019 A 
ATOM      9  C   UNL d   1     -53.262  23.978  33.444  0.00  0.00     0.002 A 
ATOM     10  C   UNL d   1     -53.432  23.487  34.066  0.00  0.00     0.000 A 
ATOM     11  C   UNL d   1     -52.836  23.242  34.581  0.00  0.00     0.002 A 
ATOM     12  C   UNL d   1     -54.217  23.224  34.190  0.00  0.00     0.000 C 
ATOM     13  C   UNL d   1     -52.063  23.501  34.460  0.00  0.00     0.019 A 
ENDBRANCH   3   7
ENDBRANCH   1   2
BRANCH   1  14
ATOM     14  C   UNL d   1     -51.616  26.085  33.950  0.00  0.00     0.191 A 
ATOM     15  N   UNL d   1     -51.336  26.818  33.733  0.00  0.00    -0.192 N 
ATOM     16  N   UNL d   1     -51.936  27.210  33.342  0.00  0.00    -0.039 NA
ATOM     17  N   UNL d   1     -52.585  26.732  33.314  0.00  0.00    -0.022 NA
ATOM     18  N   UNL d   1     -52.389  26.029  33.692  0.00  0.00    -0.108 NA
BRANCH  15  19
ATOM     19  C   UNL d   1     -50.590  27.104  33.880  0.00  0.00     0.086 A 
ATOM     20  C   UNL d   1     -50.426  27.489  34.587  0.00  0.00     0.019 A 
ATOM     21  C   UNL d   1     -49.678  27.781  34.747  0.00  0.00     0.002 A 
ATOM     22  C   UNL d   1     -49.083  27.682  34.177  0.00  0.00     0.000 A 
ATOM     23  C   UNL d   1     -49.240  27.299  33.470  0.00  0.00     0.002 A 
ATOM     24  C   UNL d   1     -48.312  27.978  34.332  0.00  0.00     0.000 C 
ATOM     25  C   UNL d   1     -49.996  27.009  33.321  0.00  0.00     0.019 A 
ENDBRANCH  15  19
ENDBRANCH   1  14
BRANCH   1  26
ATOM     26  C   UNL d   1     -51.075  25.809  35.313  0.00  0.00     0.006 C 
BRANCH  26  27
ATOM     27  C   UNL d   1     -51.500  25.815  36.033  0.00  0.00     0.000 A 
ATOM     28  C   UNL d   1     -52.358  25.714  36.198  0.00  0.00     0.002 A 
ATOM     29  C   UNL d   1     -52.658  25.747  37.028  0.00  0.00     0.018 A 
ATOM     30  C   UNL d   1     -52.097  25.882  37.702  0.00  0.00     0.064 A 
ATOM     31  C   UNL d   1     -51.228  25.984  37.532  0.00  0.00     0.018 A 
ATOM     32  C   UNL d   1     -50.931  25.952  36.710  0.00  0.00     0.002 A 
BRANCH  30  33
ATOM     33  N   UNL d   1     -52.402  25.915  38.536  0.00  0.00    -0.304 N 
BRANCH  33  34
ATOM     34  C   UNL d   1     -52.931  25.273  38.833  0.00  0.00     0.080 C 
ATOM     35  C   UNL d   1     -52.725  24.833  39.574  0.00  0.00     0.021 C 
ENDBRANCH  33  34
BRANCH  33  36
ATOM     36  C   UNL d   1     -52.176  26.588  39.063  0.00  0.00     0.080 C 
ATOM     37  C   UNL d   1     -52.646  27.338  39.055  0.00  0.00     0.021 C 
ENDBRANCH  33  36
ENDBRANCH  30  33
ENDBRANCH  26  27
ENDBRANCH   1  26
TORSDOF 9
ENDMDL
