MODEL 1
REMARK VINA RESULT:      60.5      0.000      0.000
REMARK  5 active torsions:
REMARK  status: ('A' for Active; 'I' for Inactive)
REMARK    1  A    between atoms: C_10  and  C_2 
REMARK    2  A    between atoms: S_8  and  C_3 
REMARK    3  A    between atoms: C_6  and  N_7 
REMARK       I    between atoms: N_7  and  C_9 
REMARK    4  A    between atoms: C_15  and  S_8 
REMARK    5  A    between atoms: C_9  and  C_15 
ROOT
ATOM      1  S   UNL d   1     -55.758 -99.397 -43.477  0.00  0.00    -0.041 SA
ENDROOT
BRANCH   1   2
ATOM      2  C   UNL d   1     -56.548 -99.185 -43.479  0.00  0.00     0.219 A 
ATOM      3  N   UNL d   1     -56.987 -99.224 -44.170  0.00  0.00    -0.167 N 
ATOM      4  C   UNL d   1     -57.743 -98.983 -44.004  0.00  0.00     0.189 A 
ATOM      5  N   UNL d   1     -56.704 -99.468 -44.905  0.00  0.00    -0.038 N 
ATOM      6  N   UNL d   1     -57.813 -98.787 -43.225  0.00  0.00    -0.126 NA
ATOM      7  N   UNL d   1     -57.066 -98.913 -42.896  0.00  0.00    -0.120 NA
BRANCH   4   8
ATOM      8  C   UNL d   1     -58.359 -98.941 -44.546  0.00  0.00     0.038 A 
ATOM      9  C   UNL d   1     -59.162 -98.984 -44.285  0.00  0.00     0.003 A 
ATOM     10  C   UNL d   1     -59.787 -98.942 -44.830  0.00  0.00     0.000 A 
ATOM     11  C   UNL d   1     -59.606 -98.855 -45.647  0.00  0.00     0.000 A 
ATOM     12  C   UNL d   1     -58.808 -98.813 -45.895  0.00  0.00     0.000 A 
ATOM     13  C   UNL d   1     -58.195 -98.855 -45.354  0.00  0.00     0.003 A 
ENDBRANCH   4   8
ENDBRANCH   1   2
BRANCH   1  14
ATOM     14  C   UNL d   1     -55.307 -99.370 -44.172  0.00  0.00     0.101 C 
BRANCH  14  15
ATOM     15  C   UNL d   1     -55.136-100.047 -44.587  0.00  0.00     0.286 C 
ATOM     16  N   UNL d   1     -55.277-100.797 -44.226  0.00  0.00    -0.208 NA
ATOM     17  O   UNL d   1     -54.833-100.010 -45.343  0.00  0.00    -0.265 OA
BRANCH  16  18
ATOM     18  C   UNL d   1     -55.101-101.496 -44.655  0.00  0.00     0.085 A 
ATOM     19  C   UNL d   1     -54.885-102.187 -44.251  0.00  0.00     0.018 A 
ATOM     20  C   UNL d   1     -54.712-102.874 -44.672  0.00  0.00     0.002 A 
ATOM     21  C   UNL d   1     -54.844-102.191 -43.439  0.00  0.00     0.002 C 
ATOM     22  C   UNL d   1     -54.754-102.872 -45.498  0.00  0.00     0.000 A 
ATOM     23  C   UNL d   1     -54.969-102.179 -45.888  0.00  0.00     0.002 A 
ATOM     24  C   UNL d   1     -55.137-101.512 -45.479  0.00  0.00     0.019 A 
ATOM     25  C   UNL d   1     -55.010-102.179 -46.711  0.00  0.00     0.000 C 
ENDBRANCH  16  18
ENDBRANCH  14  15
ENDBRANCH   1  14
TORSDOF 5
ENDMDL
