MODEL 1
REMARK VINA RESULT:      -6.9      0.000      0.000
REMARK  4 active torsions:
REMARK  status: ('A' for Active; 'I' for Inactive)
REMARK    1  A    between atoms: S_7  and  C_3 
REMARK    2  A    between atoms: C_12  and  S_7 
REMARK    3  A    between atoms: C_9  and  C_12 
REMARK    4  A    between atoms: C_11  and  C_9 
ROOT
ATOM      1  S   UNL d   1     -46.744  13.669  22.712  0.00  0.00    -0.043 SA
ENDROOT
BRANCH   1   2
ATOM      2  C   UNL d   1     -46.451  12.939  22.956  0.00  0.00     0.220 A 
ATOM      3  N   UNL d   1     -45.708  12.687  22.701  0.00  0.00    -0.149 N 
ATOM      4  C   UNL d   1     -45.402  11.954  22.940  0.00  0.00     0.303 A 
ATOM      5  N   UNL d   1     -45.258  13.165  22.202  0.00  0.00    -0.037 N 
ATOM      6  C   UNL d   1     -45.862  11.480  23.443  0.00  0.00     0.161 A 
ATOM      7  O   UNL d   1     -44.666  11.705  22.688  0.00  0.00    -0.263 OA
ATOM      8  C   UNL d   1     -45.567  10.751  23.686  0.00  0.00     0.028 C 
ATOM      9  N   UNL d   1     -46.605  11.732  23.698  0.00  0.00    -0.141 NA
ATOM     10  N   UNL d   1     -46.895  12.461  23.453  0.00  0.00    -0.121 NA
ENDBRANCH   1   2
BRANCH   1  11
ATOM     11  C   UNL d   1     -47.537  13.851  22.826  0.00  0.00     0.080 C 
BRANCH  11  12
ATOM     12  C   UNL d   1     -47.825  14.575  22.573  0.00  0.00     0.202 C 
ATOM     13  O   UNL d   1     -47.323  15.154  22.276  0.00  0.00    -0.286 OA
BRANCH  12  14
ATOM     14  C   UNL d   1     -48.644  14.723  22.620  0.00  0.00     0.040 A 
ATOM     15  C   UNL d   1     -48.934  15.213  23.223  0.00  0.00     0.004 A 
ATOM     16  C   UNL d   1     -49.743  15.364  23.276  0.00  0.00     0.011 A 
ATOM     17  C   UNL d   1     -50.264  15.022  22.721  0.00  0.00     0.058 A 
ATOM     18  C   UNL d   1     -49.972  14.539  22.127  0.00  0.00     0.011 A 
ATOM     19 CL   UNL d   1     -51.064  15.171  22.773  0.00  0.00    -0.082 Cl
ATOM     20  C   UNL d   1     -49.163  14.386  22.071  0.00  0.00     0.004 A 
ENDBRANCH  12  14
ENDBRANCH  11  12
ENDBRANCH   1  11
TORSDOF 4
ENDMDL
MODEL 2
REMARK VINA RESULT:      -6.8      2.499      4.603
REMARK  4 active torsions:
REMARK  status: ('A' for Active; 'I' for Inactive)
REMARK    1  A    between atoms: S_7  and  C_3 
REMARK    2  A    between atoms: C_12  and  S_7 
REMARK    3  A    between atoms: C_9  and  C_12 
REMARK    4  A    between atoms: C_11  and  C_9 
ROOT
ATOM      1  S   UNL d   1     -48.151  14.160  22.832  0.00  0.00    -0.043 SA
ENDROOT
BRANCH   1   2
ATOM      2  C   UNL d   1     -48.879  14.190  22.449  0.00  0.00     0.220 A 
ATOM      3  N   UNL d   1     -49.435  14.761  22.662  0.00  0.00    -0.149 N 
ATOM      4  C   UNL d   1     -50.171  14.800  22.284  0.00  0.00     0.303 A 
ATOM      5  N   UNL d   1     -49.262  15.303  23.258  0.00  0.00    -0.037 N 
ATOM      6  C   UNL d   1     -50.336  14.249  21.685  0.00  0.00     0.161 A 
ATOM      7  O   UNL d   1     -50.721  15.366  22.494  0.00  0.00    -0.263 OA
ATOM      8  C   UNL d   1     -51.064  14.280  21.303  0.00  0.00     0.028 C 
ATOM      9  N   UNL d   1     -49.781  13.678  21.472  0.00  0.00    -0.141 NA
ATOM     10  N   UNL d   1     -49.055  13.651  21.856  0.00  0.00    -0.121 NA
ENDBRANCH   1   2
BRANCH   1  11
ATOM     11  C   UNL d   1     -47.729  13.456  22.860  0.00  0.00     0.080 C 
BRANCH  11  12
ATOM     12  C   UNL d   1     -46.956  13.458  23.131  0.00  0.00     0.202 C 
ATOM     13  O   UNL d   1     -46.572  14.159  23.320  0.00  0.00    -0.286 OA
BRANCH  12  14
ATOM     14  C   UNL d   1     -46.554  12.732  23.213  0.00  0.00     0.040 A 
ATOM     15  C   UNL d   1     -46.925  12.107  23.613  0.00  0.00     0.004 A 
ATOM     16  C   UNL d   1     -46.534  11.386  23.698  0.00  0.00     0.011 A 
ATOM     17  C   UNL d   1     -45.768  11.291  23.381  0.00  0.00     0.058 A 
ATOM     18  C   UNL d   1     -45.407  11.913  22.987  0.00  0.00     0.011 A 
ATOM     19 CL   UNL d   1     -45.381  10.578  23.465  0.00  0.00    -0.082 Cl
ATOM     20  C   UNL d   1     -45.795  12.636  22.900  0.00  0.00     0.004 A 
ENDBRANCH  12  14
ENDBRANCH  11  12
ENDBRANCH   1  11
TORSDOF 4
ENDMDL
MODEL 3
REMARK VINA RESULT:      -6.1      1.363      1.637
REMARK  4 active torsions:
REMARK  status: ('A' for Active; 'I' for Inactive)
REMARK    1  A    between atoms: S_7  and  C_3 
REMARK    2  A    between atoms: C_12  and  S_7 
REMARK    3  A    between atoms: C_9  and  C_12 
REMARK    4  A    between atoms: C_11  and  C_9 
ROOT
ATOM      1  S   UNL d   1     -46.188  12.794  22.848  0.00  0.00    -0.043 SA
ENDROOT
BRANCH   1   2
ATOM      2  C   UNL d   1     -45.674  12.170  23.006  0.00  0.00     0.220 A 
ATOM      3  N   UNL d   1     -44.940  12.135  22.631  0.00  0.00    -0.149 N 
ATOM      4  C   UNL d   1     -44.414  11.512  22.782  0.00  0.00     0.303 A 
ATOM      5  N   UNL d   1     -44.720  12.724  22.098  0.00  0.00    -0.037 N 
ATOM      6  C   UNL d   1     -44.645  10.924  23.320  0.00  0.00     0.161 A 
ATOM      7  O   UNL d   1     -43.687  11.478  22.411  0.00  0.00    -0.263 OA
ATOM      8  C   UNL d   1     -44.130  10.301  23.477  0.00  0.00     0.028 C 
ATOM      9  N   UNL d   1     -45.379  10.958  23.695  0.00  0.00    -0.141 NA
ATOM     10  N   UNL d   1     -45.889  11.582  23.536  0.00  0.00    -0.121 NA
ENDBRANCH   1   2
BRANCH   1  11
ATOM     11  C   UNL d   1     -46.995  12.701  22.969  0.00  0.00     0.080 C 
BRANCH  11  12
ATOM     12  C   UNL d   1     -47.500  13.329  22.821  0.00  0.00     0.202 C 
ATOM     13  O   UNL d   1     -47.258  14.106  22.930  0.00  0.00    -0.286 OA
BRANCH  12  14
ATOM     14  C   UNL d   1     -48.274  13.171  22.554  0.00  0.00     0.040 A 
ATOM     15  C   UNL d   1     -48.688  12.526  22.872  0.00  0.00     0.004 A 
ATOM     16  C   UNL d   1     -49.454  12.363  22.613  0.00  0.00     0.011 A 
ATOM     17  C   UNL d   1     -49.806  12.849  22.033  0.00  0.00     0.058 A 
ATOM     18  C   UNL d   1     -49.391  13.484  21.722  0.00  0.00     0.011 A 
ATOM     19 CL   UNL d   1     -50.564  12.687  21.776  0.00  0.00    -0.082 Cl
ATOM     20  C   UNL d   1     -48.625  13.650  21.979  0.00  0.00     0.004 A 
ENDBRANCH  12  14
ENDBRANCH  11  12
ENDBRANCH   1  11
TORSDOF 4
ENDMDL
MODEL 4
REMARK VINA RESULT:      -5.7      8.531      9.587
REMARK  4 active torsions:
REMARK  status: ('A' for Active; 'I' for Inactive)
REMARK    1  A    between atoms: S_7  and  C_3 
REMARK    2  A    between atoms: C_12  and  S_7 
REMARK    3  A    between atoms: C_9  and  C_12 
REMARK    4  A    between atoms: C_11  and  C_9 
ROOT
ATOM      1  S   UNL d   1     -40.170  14.497  19.494  0.00  0.00    -0.043 SA
ENDROOT
BRANCH   1   2
ATOM      2  C   UNL d   1     -39.880  14.593  20.259  0.00  0.00     0.220 A 
ATOM      3  N   UNL d   1     -40.163  15.207  20.732  0.00  0.00    -0.149 N 
ATOM      4  C   UNL d   1     -39.879  15.314  21.504  0.00  0.00     0.303 A 
ATOM      5  N   UNL d   1     -40.735  15.724  20.441  0.00  0.00    -0.037 N 
ATOM      6  C   UNL d   1     -39.303  14.788  21.788  0.00  0.00     0.161 A 
ATOM      7  O   UNL d   1     -40.159  15.921  21.973  0.00  0.00    -0.263 OA
ATOM      8  C   UNL d   1     -39.014  14.886  22.553  0.00  0.00     0.028 C 
ATOM      9  N   UNL d   1     -39.020  14.175  21.315  0.00  0.00    -0.141 NA
ATOM     10  N   UNL d   1     -39.311  14.081  20.552  0.00  0.00    -0.121 NA
ENDBRANCH   1   2
BRANCH   1  11
ATOM     11  C   UNL d   1     -39.677  14.214  18.901  0.00  0.00     0.080 C 
BRANCH  11  12
ATOM     12  C   UNL d   1     -39.990  14.041  18.164  0.00  0.00     0.202 C 
ATOM     13  O   UNL d   1     -40.792  13.895  18.064  0.00  0.00    -0.286 OA
BRANCH  12  14
ATOM     14  C   UNL d   1     -39.480  14.014  17.504  0.00  0.00     0.040 A 
ATOM     15  C   UNL d   1     -39.443  14.667  16.994  0.00  0.00     0.004 A 
ATOM     16  C   UNL d   1     -38.941  14.648  16.339  0.00  0.00     0.011 A 
ATOM     17  C   UNL d   1     -38.475  13.971  16.197  0.00  0.00     0.058 A 
ATOM     18  C   UNL d   1     -38.516  13.329  16.705  0.00  0.00     0.011 A 
ATOM     19 CL   UNL d   1     -37.978  13.952  15.549  0.00  0.00    -0.082 Cl
ATOM     20  C   UNL d   1     -39.016  13.345  17.360  0.00  0.00     0.004 A 
ENDBRANCH  12  14
ENDBRANCH  11  12
ENDBRANCH   1  11
TORSDOF 4
ENDMDL
MODEL 5
REMARK VINA RESULT:      -5.6      2.700      4.634
REMARK  4 active torsions:
REMARK  status: ('A' for Active; 'I' for Inactive)
REMARK    1  A    between atoms: S_7  and  C_3 
REMARK    2  A    between atoms: C_12  and  S_7 
REMARK    3  A    between atoms: C_9  and  C_12 
REMARK    4  A    between atoms: C_11  and  C_9 
ROOT
ATOM      1  S   UNL d   1     -48.659  13.147  22.970  0.00  0.00    -0.043 SA
ENDROOT
BRANCH   1   2
ATOM      2  C   UNL d   1     -49.247  13.715  22.875  0.00  0.00     0.220 A 
ATOM      3  N   UNL d   1     -49.859  13.590  22.336  0.00  0.00    -0.149 N 
ATOM      4  C   UNL d   1     -50.456  14.156  22.231  0.00  0.00     0.303 A 
ATOM      5  N   UNL d   1     -49.883  12.896  21.892  0.00  0.00    -0.037 N 
ATOM      6  C   UNL d   1     -50.424  14.851  22.683  0.00  0.00     0.161 A 
ATOM      7  O   UNL d   1     -51.062  14.032  21.698  0.00  0.00    -0.263 OA
ATOM      8  C   UNL d   1     -51.012  15.419  22.587  0.00  0.00     0.028 C 
ATOM      9  N   UNL d   1     -49.812  14.977  23.222  0.00  0.00    -0.141 NA
ATOM     10  N   UNL d   1     -49.227  14.408  23.315  0.00  0.00    -0.121 NA
ENDBRANCH   1   2
BRANCH   1  11
ATOM     11  C   UNL d   1     -47.869  13.359  22.909  0.00  0.00     0.080 C 
BRANCH  11  12
ATOM     12  C   UNL d   1     -47.289  12.830  23.145  0.00  0.00     0.202 C 
ATOM     13  O   UNL d   1     -47.446  12.244  23.698  0.00  0.00    -0.286 OA
BRANCH  12  14
ATOM     14  C   UNL d   1     -46.526  12.893  22.815  0.00  0.00     0.040 A 
ATOM     15  C   UNL d   1     -46.036  12.224  22.796  0.00  0.00     0.004 A 
ATOM     16  C   UNL d   1     -45.280  12.278  22.471  0.00  0.00     0.011 A 
ATOM     17  C   UNL d   1     -45.014  13.007  22.163  0.00  0.00     0.058 A 
ATOM     18  C   UNL d   1     -45.503  13.665  22.185  0.00  0.00     0.011 A 
ATOM     19 CL   UNL d   1     -44.266  13.061  21.841  0.00  0.00    -0.082 Cl
ATOM     20  C   UNL d   1     -46.260  13.614  22.509  0.00  0.00     0.004 A 
ENDBRANCH  12  14
ENDBRANCH  11  12
ENDBRANCH   1  11
TORSDOF 4
ENDMDL
MODEL 6
REMARK VINA RESULT:      -5.4      8.219      9.148
REMARK  4 active torsions:
REMARK  status: ('A' for Active; 'I' for Inactive)
REMARK    1  A    between atoms: S_7  and  C_3 
REMARK    2  A    between atoms: C_12  and  S_7 
REMARK    3  A    between atoms: C_9  and  C_12 
REMARK    4  A    between atoms: C_11  and  C_9 
ROOT
ATOM      1  S   UNL d   1     -40.400  14.514  19.207  0.00  0.00    -0.043 SA
ENDROOT
BRANCH   1   2
ATOM      2  C   UNL d   1     -40.014  14.410  18.487  0.00  0.00     0.220 A 
ATOM      3  N   UNL d   1     -40.222  14.874  17.837  0.00  0.00    -0.149 N 
ATOM      4  C   UNL d   1     -39.839  14.778  17.108  0.00  0.00     0.303 A 
ATOM      5  N   UNL d   1     -40.815  15.441  17.907  0.00  0.00    -0.037 N 
ATOM      6  C   UNL d   1     -39.243  14.204  17.047  0.00  0.00     0.161 A 
ATOM      7  O   UNL d   1     -40.045  15.237  16.464  0.00  0.00    -0.263 OA
ATOM      8  C   UNL d   1     -38.858  14.102  16.327  0.00  0.00     0.028 C 
ATOM      9  N   UNL d   1     -39.036  13.740  17.697  0.00  0.00    -0.141 NA
ATOM     10  N   UNL d   1     -39.423  13.846  18.414  0.00  0.00    -0.121 NA
ENDBRANCH   1   2
BRANCH   1  11
ATOM     11  C   UNL d   1     -39.970  14.527  19.906  0.00  0.00     0.080 C 
BRANCH  11  12
ATOM     12  C   UNL d   1     -40.363  14.596  20.622  0.00  0.00     0.202 C 
ATOM     13  O   UNL d   1     -41.158  14.405  20.691  0.00  0.00    -0.286 OA
BRANCH  12  14
ATOM     14  C   UNL d   1     -39.942  14.866  21.289  0.00  0.00     0.040 A 
ATOM     15  C   UNL d   1     -39.506  14.323  21.740  0.00  0.00     0.004 A 
ATOM     16  C   UNL d   1     -39.088  14.583  22.402  0.00  0.00     0.011 A 
ATOM     17  C   UNL d   1     -39.107  15.390  22.613  0.00  0.00     0.058 A 
ATOM     18  C   UNL d   1     -39.540  15.922  22.163  0.00  0.00     0.011 A 
ATOM     19 CL   UNL d   1     -38.693  15.647  23.267  0.00  0.00    -0.082 Cl
ATOM     20  C   UNL d   1     -39.960  15.666  21.501  0.00  0.00     0.004 A 
ENDBRANCH  12  14
ENDBRANCH  11  12
ENDBRANCH   1  11
TORSDOF 4
ENDMDL
MODEL 7
REMARK VINA RESULT:      -5.3      8.584      9.662
REMARK  4 active torsions:
REMARK  status: ('A' for Active; 'I' for Inactive)
REMARK    1  A    between atoms: S_7  and  C_3 
REMARK    2  A    between atoms: C_12  and  S_7 
REMARK    3  A    between atoms: C_9  and  C_12 
REMARK    4  A    between atoms: C_11  and  C_9 
ROOT
ATOM      1  S   UNL d   1     -39.888  14.250  17.979  0.00  0.00    -0.043 SA
ENDROOT
BRANCH   1   2
ATOM      2  C   UNL d   1     -39.415  14.459  17.338  0.00  0.00     0.220 A 
ATOM      3  N   UNL d   1     -38.951  13.888  16.964  0.00  0.00    -0.149 N 
ATOM      4  C   UNL d   1     -38.471  14.087  16.318  0.00  0.00     0.303 A 
ATOM      5  N   UNL d   1     -38.961  13.108  17.231  0.00  0.00    -0.037 N 
ATOM      6  C   UNL d   1     -38.469  14.874  16.056  0.00  0.00     0.161 A 
ATOM      7  O   UNL d   1     -38.012  13.521  15.948  0.00  0.00    -0.263 OA
ATOM      8  C   UNL d   1     -37.995  15.081  15.415  0.00  0.00     0.028 C 
ATOM      9  N   UNL d   1     -38.932  15.445  16.430  0.00  0.00    -0.141 NA
ATOM     10  N   UNL d   1     -39.403  15.234  17.069  0.00  0.00    -0.121 NA
ENDBRANCH   1   2
BRANCH   1  11
ATOM     11  C   UNL d   1     -39.938  14.746  18.631  0.00  0.00     0.080 C 
BRANCH  11  12
ATOM     12  C   UNL d   1     -40.393  14.522  19.275  0.00  0.00     0.202 C 
ATOM     13  O   UNL d   1     -41.009  13.985  19.196  0.00  0.00    -0.286 OA
BRANCH  12  14
ATOM     14  C   UNL d   1     -40.222  14.849  20.023  0.00  0.00     0.040 A 
ATOM     15  C   UNL d   1     -39.786  14.403  20.570  0.00  0.00     0.004 A 
ATOM     16  C   UNL d   1     -39.614  14.719  21.312  0.00  0.00     0.011 A 
ATOM     17  C   UNL d   1     -39.880  15.486  21.506  0.00  0.00     0.058 A 
ATOM     18  C   UNL d   1     -40.310  15.922  20.961  0.00  0.00     0.011 A 
ATOM     19 CL   UNL d   1     -39.709  15.799  22.240  0.00  0.00    -0.082 Cl
ATOM     20  C   UNL d   1     -40.484  15.609  20.218  0.00  0.00     0.004 A 
ENDBRANCH  12  14
ENDBRANCH  11  12
ENDBRANCH   1  11
TORSDOF 4
ENDMDL
MODEL 8
REMARK VINA RESULT:      -5.0      8.252      8.766
REMARK  4 active torsions:
REMARK  status: ('A' for Active; 'I' for Inactive)
REMARK    1  A    between atoms: S_7  and  C_3 
REMARK    2  A    between atoms: C_12  and  S_7 
REMARK    3  A    between atoms: C_9  and  C_12 
REMARK    4  A    between atoms: C_11  and  C_9 
ROOT
ATOM      1  S   UNL d   1     -40.168  14.393  20.599  0.00  0.00    -0.043 SA
ENDROOT
BRANCH   1   2
ATOM      2  C   UNL d   1     -39.803  14.748  21.246  0.00  0.00     0.220 A 
ATOM      3  N   UNL d   1     -39.435  14.282  21.819  0.00  0.00    -0.149 N 
ATOM      4  C   UNL d   1     -39.064  14.629  22.475  0.00  0.00     0.303 A 
ATOM      5  N   UNL d   1     -39.431  13.462  21.745  0.00  0.00    -0.037 N 
ATOM      6  C   UNL d   1     -39.073  15.456  22.541  0.00  0.00     0.161 A 
ATOM      7  O   UNL d   1     -38.699  14.168  23.042  0.00  0.00    -0.263 OA
ATOM      8  C   UNL d   1     -38.708  15.810  23.188  0.00  0.00     0.028 C 
ATOM      9  N   UNL d   1     -39.442  15.922  21.968  0.00  0.00    -0.141 NA
ATOM     10  N   UNL d   1     -39.805  15.565  21.324  0.00  0.00    -0.121 NA
ENDBRANCH   1   2
BRANCH   1  11
ATOM     11  C   UNL d   1     -40.153  14.762  19.866  0.00  0.00     0.080 C 
BRANCH  11  12
ATOM     12  C   UNL d   1     -40.549  14.421  19.234  0.00  0.00     0.202 C 
ATOM     13  O   UNL d   1     -41.067  13.793  19.344  0.00  0.00    -0.286 OA
BRANCH  12  14
ATOM     14  C   UNL d   1     -40.421  14.722  18.467  0.00  0.00     0.040 A 
ATOM     15  C   UNL d   1     -40.906  15.334  18.186  0.00  0.00     0.004 A 
ATOM     16  C   UNL d   1     -40.785  15.637  17.428  0.00  0.00     0.011 A 
ATOM     17  C   UNL d   1     -40.176  15.325  16.951  0.00  0.00     0.058 A 
ATOM     18  C   UNL d   1     -39.701  14.721  17.235  0.00  0.00     0.011 A 
ATOM     19 CL   UNL d   1     -40.057  15.625  16.201  0.00  0.00    -0.082 Cl
ATOM     20  C   UNL d   1     -39.818  14.415  17.992  0.00  0.00     0.004 A 
ENDBRANCH  12  14
ENDBRANCH  11  12
ENDBRANCH   1  11
TORSDOF 4
ENDMDL
MODEL 9
REMARK VINA RESULT:      -4.9      8.897      9.752
REMARK  4 active torsions:
REMARK  status: ('A' for Active; 'I' for Inactive)
REMARK    1  A    between atoms: S_7  and  C_3 
REMARK    2  A    between atoms: C_12  and  S_7 
REMARK    3  A    between atoms: C_9  and  C_12 
REMARK    4  A    between atoms: C_11  and  C_9 
ROOT
ATOM      1  S   UNL d   1     -39.124  15.735  18.911  0.00  0.00    -0.043 SA
ENDROOT
BRANCH   1   2
ATOM      2  C   UNL d   1     -39.720  15.781  18.345  0.00  0.00     0.220 A 
ATOM      3  N   UNL d   1     -39.526  15.828  17.544  0.00  0.00    -0.149 N 
ATOM      4  C   UNL d   1     -40.118  15.875  16.966  0.00  0.00     0.303 A 
ATOM      5  N   UNL d   1     -38.736  15.828  17.310  0.00  0.00    -0.037 N 
ATOM      6  C   UNL d   1     -40.910  15.875  17.212  0.00  0.00     0.161 A 
ATOM      7  O   UNL d   1     -39.926  15.921  16.173  0.00  0.00    -0.263 OA
ATOM      8  C   UNL d   1     -41.505  15.921  16.645  0.00  0.00     0.028 C 
ATOM      9  N   UNL d   1     -41.104  15.828  18.012  0.00  0.00    -0.141 NA
ATOM     10  N   UNL d   1     -40.507  15.782  18.575  0.00  0.00    -0.121 NA
ENDBRANCH   1   2
BRANCH   1  11
ATOM     11  C   UNL d   1     -39.269  15.368  19.631  0.00  0.00     0.080 C 
BRANCH  11  12
ATOM     12  C   UNL d   1     -38.688  15.370  20.210  0.00  0.00     0.202 C 
ATOM     13  O   UNL d   1     -38.059  15.897  20.182  0.00  0.00    -0.286 OA
BRANCH  12  14
ATOM     14  C   UNL d   1     -38.742  14.824  20.838  0.00  0.00     0.040 A 
ATOM     15  C   UNL d   1     -39.265  14.976  21.464  0.00  0.00     0.004 A 
ATOM     16  C   UNL d   1     -39.324  14.441  22.088  0.00  0.00     0.011 A 
ATOM     17  C   UNL d   1     -38.856  13.750  22.085  0.00  0.00     0.058 A 
ATOM     18  C   UNL d   1     -38.341  13.605  21.464  0.00  0.00     0.011 A 
ATOM     19 CL   UNL d   1     -38.914  13.220  22.703  0.00  0.00    -0.082 Cl
ATOM     20  C   UNL d   1     -38.280  14.138  20.838  0.00  0.00     0.004 A 
ENDBRANCH  12  14
ENDBRANCH  11  12
ENDBRANCH   1  11
TORSDOF 4
ENDMDL
