MODEL 1
REMARK VINA RESULT:      58.3      0.000      0.000
REMARK  3 active torsions:
REMARK  status: ('A' for Active; 'I' for Inactive)
REMARK    1  A    between atoms: C_4  and  C_1 
REMARK       I    between atoms: N_7  and  C_4 
REMARK    2  A    between atoms: C_9  and  N_7 
REMARK    3  A    between atoms: N_8  and  C_11 
ROOT
ATOM      1  C   UNL d   1     -57.070 -99.022 -43.826  0.00  0.00     0.263 C 
ATOM      2  N   UNL d   1     -57.758 -99.155 -44.256  0.00  0.00    -0.210 NA
ATOM      3  O   UNL d   1     -57.108 -98.756 -43.044  0.00  0.00    -0.270 OA
ENDROOT
BRANCH   1   4
ATOM      4  C   UNL d   1     -56.458 -99.210 -44.353  0.00  0.00     0.113 A 
ATOM      5  C   UNL d   1     -55.581 -99.346 -45.449  0.00  0.00     0.025 A 
ATOM      6  C   UNL d   1     -55.937 -99.382 -44.773  0.00  0.00     0.074 A 
ATOM      7  C   UNL d   1     -55.587 -99.039 -46.222  0.00  0.00     0.002 C 
ATOM      8  C   UNL d   1     -54.871 -99.737 -45.620  0.00  0.00     0.002 C 
ATOM      9  C   UNL d   1     -55.235 -99.819 -44.812  0.00  0.00     0.012 C 
ATOM     10  C   UNL d   1     -56.548 -99.000 -44.740  0.00  0.00    -0.023 A 
ATOM     11  C   UNL d   1     -55.742 -99.788 -44.054  0.00  0.00     0.172 A 
ATOM     12  C   UNL d   1     -57.116 -98.756 -44.428  0.00  0.00    -0.018 A 
ATOM     13  C   UNL d   1     -56.251 -99.585 -43.736  0.00  0.00     0.024 A 
ATOM     14  O   UNL d   1     -55.109-100.279 -43.843  0.00  0.00    -0.291 OA
ENDBRANCH   1   4
BRANCH   2  15
ATOM     15  C   UNL d   1     -58.496 -99.022 -43.896  0.00  0.00     0.100 A 
ATOM     16  C   UNL d   1     -59.160 -98.910 -44.372  0.00  0.00     0.082 A 
ATOM     17  C   UNL d   1     -59.890 -98.777 -44.017  0.00  0.00     0.019 A 
ATOM     18  C   UNL d   1     -59.960 -98.756 -43.189  0.00  0.00     0.002 A 
ATOM     19  C   UNL d   1     -59.287 -98.870 -42.724  0.00  0.00     0.002 A 
ATOM     20  C   UNL d   1     -58.558 -99.002 -43.076  0.00  0.00     0.021 A 
BRANCH  16  21
ATOM     21  N   UNL d   1     -59.089 -98.930 -45.195  0.00  0.00    -0.302 N 
ATOM     22  C   UNL d   1     -58.405 -98.756 -45.622  0.00  0.00     0.080 A 
ATOM     23  C   UNL d   1     -58.578 -98.846 -46.430  0.00  0.00     0.021 A 
ATOM     24  C   UNL d   1     -59.370 -99.076 -46.493  0.00  0.00     0.021 A 
ATOM     25  C   UNL d   1     -59.688 -99.129 -45.730  0.00  0.00     0.080 A 
ENDBRANCH  16  21
ENDBRANCH   2  15
TORSDOF 3
ENDMDL
