MODEL 1
REMARK VINA RESULT:      60.5      0.000      0.000
REMARK  11 active torsions:
REMARK  status: ('A' for Active; 'I' for Inactive)
REMARK    1  A    between atoms: C_7  and  C_1 
REMARK    2  A    between atoms: C_8  and  C_2 
REMARK    3  A    between atoms: S_9  and  C_3 
REMARK    4  A    between atoms: C_11  and  C_4 
REMARK    5  A    between atoms: O_20  and  C_7 
REMARK    6  A    between atoms: C_15  and  S_9 
REMARK    7  A    between atoms: C_12  and  C_15 
REMARK    8  A    between atoms: O_24  and  C_12 
REMARK    9  A    between atoms: C_18  and  C_26 
REMARK   10  A    between atoms: C_26  and  O_20 
REMARK   11  A    between atoms: C_27  and  O_24 
ROOT
ATOM      1  C   UNL d   1      14.387  15.129  -2.938  0.00  0.00     0.081 A 
ATOM      2  C   UNL d   1      14.377  15.484  -4.329  0.00  0.00     0.045 A 
ATOM      3  C   UNL d   1      14.696  16.246  -4.126  0.00  0.00     0.112 A 
ATOM      4  C   UNL d   1      14.228  14.939  -3.726  0.00  0.00     0.010 A 
ATOM      5  C   UNL d   1      14.698  15.870  -2.741  0.00  0.00     0.087 A 
ATOM      6  N   UNL d   1      14.848  16.418  -3.332  0.00  0.00    -0.239 NA
ATOM      7  C   UNL d   1      14.865  16.083  -1.959  0.00  0.00     0.021 C 
ENDROOT
BRANCH   3   8
ATOM      8  S   UNL d   1      14.868  16.845  -4.708  0.00  0.00    -0.062 SA
BRANCH   8   9
ATOM      9  C   UNL d   1      14.653  17.619  -4.549  0.00  0.00     0.105 C 
BRANCH   9  10
ATOM     10  C   UNL d   1      14.925  18.221  -5.050  0.00  0.00     0.307 C 
ATOM     11  O   UNL d   1      15.728  18.334  -5.156  0.00  0.00    -0.258 OA
BRANCH  10  12
ATOM     12  O   UNL d   1      14.388  18.697  -5.433  0.00  0.00    -0.271 OA
BRANCH  12  13
ATOM     13  C   UNL d   1      14.610  19.452  -5.669  0.00  0.00     0.126 C 
ATOM     14  C   UNL d   1      14.079  19.917  -6.088  0.00  0.00     0.029 C 
ENDBRANCH  12  13
ENDBRANCH  10  12
ENDBRANCH   9  10
ENDBRANCH   8   9
ENDBRANCH   3   8
BRANCH   2  15
ATOM     15  C   UNL d   1      14.206  15.267  -5.129  0.00  0.00     0.124 C 
ATOM     16  N   UNL d   1      13.627  15.663  -5.541  0.00  0.00    -0.146 N 
ENDBRANCH   2  15
BRANCH   4  17
ATOM     17  C   UNL d   1      13.919  14.202  -3.922  0.00  0.00     0.000 A 
ATOM     18  C   UNL d   1      13.101  14.122  -4.014  0.00  0.00     0.000 A 
ATOM     19  C   UNL d   1      12.769  13.401  -4.209  0.00  0.00     0.000 A 
ATOM     20  C   UNL d   1      13.294  12.713  -4.319  0.00  0.00     0.000 A 
ATOM     21  C   UNL d   1      14.108  12.812  -4.223  0.00  0.00     0.000 A 
ATOM     22  C   UNL d   1      12.995  11.972  -4.515  0.00  0.00     0.000 C 
ATOM     23  C   UNL d   1      14.419  13.553  -4.025  0.00  0.00     0.000 A 
ENDBRANCH   4  17
BRANCH   1  24
ATOM     24  C   UNL d   1      14.225  14.551  -2.333  0.00  0.00     0.302 C 
ATOM     25  O   UNL d   1      13.462  14.265  -2.219  0.00  0.00    -0.259 OA
BRANCH  24  26
ATOM     26  O   UNL d   1      14.843  14.286  -1.870  0.00  0.00    -0.271 OA
BRANCH  26  27
ATOM     27  C   UNL d   1      14.700  13.937  -1.132  0.00  0.00     0.126 C 
BRANCH  27  28
ATOM     28  C   UNL d   1      15.234  13.403  -0.813  0.00  0.00     0.027 C 
ATOM     29  C   UNL d   1      15.167  13.161  -0.029  0.00  0.00     0.002 C 
ENDBRANCH  27  28
ENDBRANCH  26  27
ENDBRANCH  24  26
ENDBRANCH   1  24
TORSDOF 11
ENDMDL
MODEL 2
REMARK VINA RESULT:      61.5      2.293      4.873
REMARK  11 active torsions:
REMARK  status: ('A' for Active; 'I' for Inactive)
REMARK    1  A    between atoms: C_7  and  C_1 
REMARK    2  A    between atoms: C_8  and  C_2 
REMARK    3  A    between atoms: S_9  and  C_3 
REMARK    4  A    between atoms: C_11  and  C_4 
REMARK    5  A    between atoms: O_20  and  C_7 
REMARK    6  A    between atoms: C_15  and  S_9 
REMARK    7  A    between atoms: C_12  and  C_15 
REMARK    8  A    between atoms: O_24  and  C_12 
REMARK    9  A    between atoms: C_18  and  C_26 
REMARK   10  A    between atoms: C_26  and  O_20 
REMARK   11  A    between atoms: C_27  and  O_24 
ROOT
ATOM      1  C   UNL d   1      13.235  13.155  -4.014  0.00  0.00     0.081 A 
ATOM      2  C   UNL d   1      13.851  13.946  -2.987  0.00  0.00     0.045 A 
ATOM      3  C   UNL d   1      13.810  13.278  -2.462  0.00  0.00     0.112 A 
ATOM      4  C   UNL d   1      13.561  13.868  -3.757  0.00  0.00     0.010 A 
ATOM      5  C   UNL d   1      13.195  12.505  -3.503  0.00  0.00     0.087 A 
ATOM      6  N   UNL d   1      13.481  12.572  -2.737  0.00  0.00    -0.239 NA
ATOM      7  C   UNL d   1      12.873  11.779  -3.738  0.00  0.00     0.021 C 
ENDROOT
BRANCH   3   8
ATOM      8  S   UNL d   1      14.095  13.305  -1.659  0.00  0.00    -0.062 SA
BRANCH   8   9
ATOM      9  C   UNL d   1      14.260  12.598  -1.279  0.00  0.00     0.105 C 
BRANCH   9  10
ATOM     10  C   UNL d   1      14.279  12.585  -0.450  0.00  0.00     0.307 C 
ATOM     11  O   UNL d   1      13.708  12.171  -0.034  0.00  0.00    -0.258 OA
BRANCH  10  12
ATOM     12  O   UNL d   1      14.867  12.985  -0.056  0.00  0.00    -0.271 OA
BRANCH  12  13
ATOM     13  C   UNL d   1      15.579  13.141  -0.437  0.00  0.00     0.126 C 
ATOM     14  C   UNL d   1      16.281  12.876  -0.105  0.00  0.00     0.029 C 
ENDBRANCH  12  13
ENDBRANCH  10  12
ENDBRANCH   9  10
ENDBRANCH   8   9
ENDBRANCH   3   8
BRANCH   2  15
ATOM     15  C   UNL d   1      14.180  14.688  -2.747  0.00  0.00     0.124 C 
ATOM     16  N   UNL d   1      14.971  14.739  -2.563  0.00  0.00    -0.146 N 
ENDBRANCH   2  15
BRANCH   4  17
ATOM     17  C   UNL d   1      13.600  14.514  -4.265  0.00  0.00     0.000 A 
ATOM     18  C   UNL d   1      12.942  15.010  -4.336  0.00  0.00     0.000 A 
ATOM     19  C   UNL d   1      12.956  15.658  -4.834  0.00  0.00     0.000 A 
ATOM     20  C   UNL d   1      13.681  15.820  -5.292  0.00  0.00     0.000 A 
ATOM     21  C   UNL d   1      14.328  15.314  -5.209  0.00  0.00     0.000 A 
ATOM     22  C   UNL d   1      13.731  16.463  -5.803  0.00  0.00     0.000 C 
ATOM     23  C   UNL d   1      14.288  14.664  -4.697  0.00  0.00     0.000 A 
ENDBRANCH   4  17
BRANCH   1  24
ATOM     24  C   UNL d   1      12.941  13.098  -4.812  0.00  0.00     0.302 C 
ATOM     25  O   UNL d   1      12.831  13.774  -5.268  0.00  0.00    -0.259 OA
BRANCH  24  26
ATOM     26  O   UNL d   1      12.773  12.359  -5.115  0.00  0.00    -0.271 OA
BRANCH  26  27
ATOM     27  C   UNL d   1      12.916  12.185  -5.913  0.00  0.00     0.126 C 
BRANCH  27  28
ATOM     28  C   UNL d   1      13.593  11.780  -6.137  0.00  0.00     0.027 C 
ATOM     29  C   UNL d   1      14.322  12.161  -6.155  0.00  0.00     0.002 C 
ENDBRANCH  27  28
ENDBRANCH  26  27
ENDBRANCH  24  26
ENDBRANCH   1  24
TORSDOF 11
ENDMDL
MODEL 3
REMARK VINA RESULT:      62.1      2.597      4.224
REMARK  11 active torsions:
REMARK  status: ('A' for Active; 'I' for Inactive)
REMARK    1  A    between atoms: C_7  and  C_1 
REMARK    2  A    between atoms: C_8  and  C_2 
REMARK    3  A    between atoms: S_9  and  C_3 
REMARK    4  A    between atoms: C_11  and  C_4 
REMARK    5  A    between atoms: O_20  and  C_7 
REMARK    6  A    between atoms: C_15  and  S_9 
REMARK    7  A    between atoms: C_12  and  C_15 
REMARK    8  A    between atoms: O_24  and  C_12 
REMARK    9  A    between atoms: C_18  and  C_26 
REMARK   10  A    between atoms: C_26  and  O_20 
REMARK   11  A    between atoms: C_27  and  O_24 
ROOT
ATOM      1  C   UNL d   1      14.420  13.600  -1.487  0.00  0.00     0.081 A 
ATOM      2  C   UNL d   1      13.867  14.046  -2.734  0.00  0.00     0.045 A 
ATOM      3  C   UNL d   1      13.573  13.260  -2.873  0.00  0.00     0.112 A 
ATOM      4  C   UNL d   1      14.287  14.199  -2.039  0.00  0.00     0.010 A 
ATOM      5  C   UNL d   1      14.134  12.835  -1.623  0.00  0.00     0.087 A 
ATOM      6  N   UNL d   1      13.717  12.673  -2.310  0.00  0.00    -0.239 NA
ATOM      7  C   UNL d   1      14.256  12.218  -1.085  0.00  0.00     0.021 C 
ENDROOT
BRANCH   3   8
ATOM      8  S   UNL d   1      13.135  13.049  -3.573  0.00  0.00    -0.062 SA
BRANCH   8   9
ATOM      9  C   UNL d   1      13.363  12.384  -3.992  0.00  0.00     0.105 C 
BRANCH   9  10
ATOM     10  C   UNL d   1      13.440  12.436  -4.816  0.00  0.00     0.307 C 
ATOM     11  O   UNL d   1      14.171  12.587  -5.151  0.00  0.00    -0.258 OA
BRANCH  10  12
ATOM     12  O   UNL d   1      12.784  12.336  -5.287  0.00  0.00    -0.271 OA
BRANCH  12  13
ATOM     13  C   UNL d   1      12.814  11.813  -5.920  0.00  0.00     0.126 C 
ATOM     14  C   UNL d   1      13.490  11.781  -6.385  0.00  0.00     0.029 C 
ENDBRANCH  12  13
ENDBRANCH  10  12
ENDBRANCH   9  10
ENDBRANCH   8   9
ENDBRANCH   3   8
BRANCH   2  15
ATOM     15  C   UNL d   1      13.743  14.678  -3.284  0.00  0.00     0.124 C 
ATOM     16  N   UNL d   1      13.035  14.734  -3.682  0.00  0.00    -0.146 N 
ENDBRANCH   2  15
BRANCH   4  17
ATOM     17  C   UNL d   1      14.571  14.960  -1.904  0.00  0.00     0.000 A 
ATOM     18  C   UNL d   1      14.744  15.191  -1.129  0.00  0.00     0.000 A 
ATOM     19  C   UNL d   1      15.027  15.941  -0.968  0.00  0.00     0.000 A 
ATOM     20  C   UNL d   1      15.145  16.496  -1.631  0.00  0.00     0.000 A 
ATOM     21  C   UNL d   1      14.967  16.248  -2.397  0.00  0.00     0.000 A 
ATOM     22  C   UNL d   1      15.428  17.259  -1.506  0.00  0.00     0.000 C 
ATOM     23  C   UNL d   1      14.681  15.483  -2.533  0.00  0.00     0.000 A 
ENDBRANCH   4  17
BRANCH   1  24
ATOM     24  C   UNL d   1      14.856  13.781  -0.777  0.00  0.00     0.302 C 
ATOM     25  O   UNL d   1      14.498  14.187  -0.157  0.00  0.00    -0.259 OA
BRANCH  24  26
ATOM     26  O   UNL d   1      15.635  13.543  -0.724  0.00  0.00    -0.271 OA
BRANCH  26  27
ATOM     27  C   UNL d   1      15.855  12.923  -0.220  0.00  0.00     0.126 C 
BRANCH  27  28
ATOM     28  C   UNL d   1      16.570  12.536  -0.323  0.00  0.00     0.027 C 
ATOM     29  C   UNL d   1      16.686  11.782  -0.015  0.00  0.00     0.002 C 
ENDBRANCH  27  28
ENDBRANCH  26  27
ENDBRANCH  24  26
ENDBRANCH   1  24
TORSDOF 11
ENDMDL
