MODEL 1
REMARK VINA RESULT:      -9.5      0.000      0.000
REMARK  4 active torsions:
REMARK  status: ('A' for Active; 'I' for Inactive)
REMARK    1  A    between atoms: S_12  and  C_5 
REMARK       I    between atoms: N_7  and  C_9 
REMARK    2  A    between atoms: C_19  and  N_8 
REMARK    3  A    between atoms: C_9  and  C_14 
REMARK    4  A    between atoms: C_14  and  S_12 
ROOT
ATOM      1  C   UNL d   1      50.481  34.456  52.379  0.00  0.00     0.098 C 
ENDROOT
BRANCH   1   2
ATOM      2  C   UNL d   1      49.897  34.481  51.797  0.00  0.00     0.272 C 
ATOM      3  N   UNL d   1      49.175  34.853  51.950  0.00  0.00    -0.269 N 
ATOM      4  C   UNL d   1      49.041  35.199  52.684  0.00  0.00     0.102 A 
ATOM      5  C   UNL d   1      48.593  34.879  51.371  0.00  0.00     0.102 A 
ATOM      6  C   UNL d   1      48.319  35.571  52.836  0.00  0.00     0.100 A 
ATOM      7  N   UNL d   1      47.735  35.596  52.254  0.00  0.00    -0.301 N 
ATOM      8  C   UNL d   1      47.875  35.249  51.523  0.00  0.00     0.100 A 
ATOM      9  O   UNL d   1      50.041  34.132  51.065  0.00  0.00    -0.266 OA
BRANCH   7  10
ATOM     10  C   UNL d   1      47.017  35.966  52.405  0.00  0.00     0.064 A 
ATOM     11  C   UNL d   1      46.434  35.991  51.827  0.00  0.00     0.018 A 
ATOM     12  C   UNL d   1      45.713  36.363  51.980  0.00  0.00     0.002 A 
ATOM     13  C   UNL d   1      45.576  36.708  52.709  0.00  0.00     0.000 A 
ATOM     14  C   UNL d   1      46.160  36.684  53.291  0.00  0.00     0.002 A 
ATOM     15  C   UNL d   1      46.879  36.314  53.140  0.00  0.00     0.018 A 
ENDBRANCH   7  10
ENDBRANCH   1   2
BRANCH   1  16
ATOM     16  S   UNL d   1      51.185  34.042  52.244  0.00  0.00    -0.060 SA
BRANCH  16  17
ATOM     17  C   UNL d   1      51.779  34.039  52.828  0.00  0.00     0.137 A 
ATOM     18  C   UNL d   1      52.198  33.350  52.995  0.00  0.00     0.141 A 
ATOM     19  O   UNL d   1      52.152  32.589  52.679  0.00  0.00    -0.303 OA
ATOM     20  C   UNL d   1      52.787  33.355  53.577  0.00  0.00     0.110 A 
ATOM     21  C   UNL d   1      52.717  32.118  53.067  0.00  0.00     0.102 A 
ATOM     22  C   UNL d   1      52.924  31.320  52.986  0.00  0.00     0.025 A 
ATOM     23  C   UNL d   1      53.105  32.596  53.620  0.00  0.00     0.043 A 
ATOM     24  C   UNL d   1      53.522  31.005  53.463  0.00  0.00     0.002 A 
ATOM     25  C   UNL d   1      53.912  31.478  54.016  0.00  0.00     0.000 A 
ATOM     26  C   UNL d   1      53.705  32.277  54.097  0.00  0.00     0.004 A 
ATOM     27  N   UNL d   1      52.950  34.052  53.986  0.00  0.00    -0.222 NA
ATOM     28  C   UNL d   1      52.531  34.740  53.819  0.00  0.00     0.200 A 
ATOM     29  N   UNL d   1      51.946  34.739  53.243  0.00  0.00    -0.215 NA
ENDBRANCH  16  17
ENDBRANCH   1  16
TORSDOF 4
ENDMDL
MODEL 2
REMARK VINA RESULT:      -9.3      1.154      6.330
REMARK  4 active torsions:
REMARK  status: ('A' for Active; 'I' for Inactive)
REMARK    1  A    between atoms: S_12  and  C_5 
REMARK       I    between atoms: N_7  and  C_9 
REMARK    2  A    between atoms: C_19  and  N_8 
REMARK    3  A    between atoms: C_9  and  C_14 
REMARK    4  A    between atoms: C_14  and  S_12 
ROOT
ATOM      1  C   UNL d   1      49.791  34.837  52.788  0.00  0.00     0.098 C 
ENDROOT
BRANCH   1   2
ATOM      2  C   UNL d   1      50.371  34.386  52.413  0.00  0.00     0.272 C 
ATOM      3  N   UNL d   1      51.055  34.167  52.823  0.00  0.00    -0.269 N 
ATOM      4  C   UNL d   1      51.154  34.400  53.605  0.00  0.00     0.102 A 
ATOM      5  C   UNL d   1      51.633  33.718  52.451  0.00  0.00     0.102 A 
ATOM      6  C   UNL d   1      51.838  34.180  54.014  0.00  0.00     0.100 A 
ATOM      7  N   UNL d   1      52.418  33.729  53.640  0.00  0.00    -0.301 N 
ATOM      8  C   UNL d   1      52.312  33.500  52.858  0.00  0.00     0.100 A 
ATOM      9  O   UNL d   1      50.262  34.157  51.629  0.00  0.00    -0.266 OA
BRANCH   7  10
ATOM     10  C   UNL d   1      53.098  33.511  54.046  0.00  0.00     0.064 A 
ATOM     11  C   UNL d   1      53.518  34.067  54.481  0.00  0.00     0.018 A 
ATOM     12  C   UNL d   1      54.201  33.845  54.889  0.00  0.00     0.002 A 
ATOM     13  C   UNL d   1      54.462  33.071  54.861  0.00  0.00     0.000 A 
ATOM     14  C   UNL d   1      54.042  32.511  54.425  0.00  0.00     0.002 A 
ATOM     15  C   UNL d   1      53.362  32.729  54.018  0.00  0.00     0.018 A 
ENDBRANCH   7  10
ENDBRANCH   1   2
BRANCH   1  16
ATOM     16  S   UNL d   1      49.105  35.053  52.378  0.00  0.00    -0.060 SA
BRANCH  16  17
ATOM     17  C   UNL d   1      48.542  35.542  52.749  0.00  0.00     0.137 A 
ATOM     18  C   UNL d   1      47.802  35.663  52.408  0.00  0.00     0.141 A 
ATOM     19  O   UNL d   1      47.465  35.376  51.712  0.00  0.00    -0.303 OA
ATOM     20  C   UNL d   1      47.248  36.151  52.783  0.00  0.00     0.110 A 
ATOM     21  C   UNL d   1      46.697  35.688  51.653  0.00  0.00     0.102 A 
ATOM     22  C   UNL d   1      46.103  35.597  51.083  0.00  0.00     0.025 A 
ATOM     23  C   UNL d   1      46.569  36.165  52.317  0.00  0.00     0.043 A 
ATOM     24  C   UNL d   1      45.381  35.988  51.182  0.00  0.00     0.002 A 
ATOM     25  C   UNL d   1      45.248  36.465  51.843  0.00  0.00     0.000 A 
ATOM     26  C   UNL d   1      45.842  36.556  52.415  0.00  0.00     0.004 A 
ATOM     27  N   UNL d   1      47.442  36.514  53.497  0.00  0.00    -0.222 NA
ATOM     28  C   UNL d   1      48.181  36.394  53.838  0.00  0.00     0.200 A 
ATOM     29  N   UNL d   1      48.733  35.910  53.469  0.00  0.00    -0.215 NA
ENDBRANCH  16  17
ENDBRANCH   1  16
TORSDOF 4
ENDMDL
MODEL 3
REMARK VINA RESULT:      -8.7      1.112      6.390
REMARK  4 active torsions:
REMARK  status: ('A' for Active; 'I' for Inactive)
REMARK    1  A    between atoms: S_12  and  C_5 
REMARK       I    between atoms: N_7  and  C_9 
REMARK    2  A    between atoms: C_19  and  N_8 
REMARK    3  A    between atoms: C_9  and  C_14 
REMARK    4  A    between atoms: C_14  and  S_12 
ROOT
ATOM      1  C   UNL d   1      50.469  34.154  52.523  0.00  0.00     0.098 C 
ENDROOT
BRANCH   1   2
ATOM      2  C   UNL d   1      51.195  34.164  52.915  0.00  0.00     0.272 C 
ATOM      3  N   UNL d   1      51.624  33.463  53.010  0.00  0.00    -0.269 N 
ATOM      4  C   UNL d   1      51.324  32.758  52.713  0.00  0.00     0.102 A 
ATOM      5  C   UNL d   1      52.346  33.471  53.400  0.00  0.00     0.102 A 
ATOM      6  C   UNL d   1      51.753  32.057  52.809  0.00  0.00     0.100 A 
ATOM      7  N   UNL d   1      52.479  32.067  53.201  0.00  0.00    -0.301 N 
ATOM      8  C   UNL d   1      52.772  32.775  53.495  0.00  0.00     0.100 A 
ATOM      9  O   UNL d   1      51.487  34.876  53.209  0.00  0.00    -0.266 OA
BRANCH   7  10
ATOM     10  C   UNL d   1      52.906  31.371  53.296  0.00  0.00     0.064 A 
ATOM     11  C   UNL d   1      53.671  31.392  53.593  0.00  0.00     0.018 A 
ATOM     12  C   UNL d   1      54.099  30.692  53.688  0.00  0.00     0.002 A 
ATOM     13  C   UNL d   1      53.761  29.974  53.487  0.00  0.00     0.000 A 
ATOM     14  C   UNL d   1      52.992  29.951  53.189  0.00  0.00     0.002 A 
ATOM     15  C   UNL d   1      52.565  30.647  53.094  0.00  0.00     0.018 A 
ENDBRANCH   7  10
ENDBRANCH   1   2
BRANCH   1  16
ATOM     16  S   UNL d   1      49.959  34.804  52.577  0.00  0.00    -0.060 SA
BRANCH  16  17
ATOM     17  C   UNL d   1      49.299  34.852  52.073  0.00  0.00     0.137 A 
ATOM     18  C   UNL d   1      48.630  35.275  52.298  0.00  0.00     0.141 A 
ATOM     19  O   UNL d   1      48.455  35.703  52.981  0.00  0.00    -0.303 OA
ATOM     20  C   UNL d   1      47.976  35.319  51.790  0.00  0.00     0.110 A 
ATOM     21  C   UNL d   1      47.688  36.015  52.897  0.00  0.00     0.102 A 
ATOM     22  C   UNL d   1      47.222  36.484  53.397  0.00  0.00     0.025 A 
ATOM     23  C   UNL d   1      47.399  35.774  52.161  0.00  0.00     0.043 A 
ATOM     24  C   UNL d   1      46.465  36.709  53.152  0.00  0.00     0.002 A 
ATOM     25  C   UNL d   1      46.172  36.471  52.418  0.00  0.00     0.000 A 
ATOM     26  C   UNL d   1      46.638  36.002  51.918  0.00  0.00     0.004 A 
ATOM     27  N   UNL d   1      48.003  34.936  51.061  0.00  0.00    -0.222 NA
ATOM     28  C   UNL d   1      48.671  34.513  50.835  0.00  0.00     0.200 A 
ATOM     29  N   UNL d   1      49.320  34.468  51.336  0.00  0.00    -0.215 NA
ENDBRANCH  16  17
ENDBRANCH   1  16
TORSDOF 4
ENDMDL
MODEL 4
REMARK VINA RESULT:      -8.2      1.136      1.631
REMARK  4 active torsions:
REMARK  status: ('A' for Active; 'I' for Inactive)
REMARK    1  A    between atoms: S_12  and  C_5 
REMARK       I    between atoms: N_7  and  C_9 
REMARK    2  A    between atoms: C_19  and  N_8 
REMARK    3  A    between atoms: C_9  and  C_14 
REMARK    4  A    between atoms: C_14  and  S_12 
ROOT
ATOM      1  C   UNL d   1      50.943  33.978  52.674  0.00  0.00     0.098 C 
ENDROOT
BRANCH   1   2
ATOM      2  C   UNL d   1      50.435  34.243  52.081  0.00  0.00     0.272 C 
ATOM      3  N   UNL d   1      49.746  34.655  52.279  0.00  0.00    -0.269 N 
ATOM      4  C   UNL d   1      49.570  34.800  53.069  0.00  0.00     0.102 A 
ATOM      5  C   UNL d   1      49.239  34.919  51.690  0.00  0.00     0.102 A 
ATOM      6  C   UNL d   1      48.881  35.212  53.267  0.00  0.00     0.100 A 
ATOM      7  N   UNL d   1      48.372  35.477  52.674  0.00  0.00    -0.301 N 
ATOM      8  C   UNL d   1      48.555  35.329  51.887  0.00  0.00     0.100 A 
ATOM      9  O   UNL d   1      50.620  34.093  51.292  0.00  0.00    -0.266 OA
BRANCH   7  10
ATOM     10  C   UNL d   1      47.687  35.887  52.870  0.00  0.00     0.064 A 
ATOM     11  C   UNL d   1      47.085  35.975  52.318  0.00  0.00     0.018 A 
ATOM     12  C   UNL d   1      46.398  36.388  52.517  0.00  0.00     0.002 A 
ATOM     13  C   UNL d   1      46.314  36.709  53.264  0.00  0.00     0.000 A 
ATOM     14  C   UNL d   1      46.918  36.622  53.819  0.00  0.00     0.002 A 
ATOM     15  C   UNL d   1      47.603  36.212  53.623  0.00  0.00     0.018 A 
ENDBRANCH   7  10
ENDBRANCH   1   2
BRANCH   1  16
ATOM     16  S   UNL d   1      51.760  33.953  52.540  0.00  0.00    -0.060 SA
BRANCH  16  17
ATOM     17  C   UNL d   1      52.211  33.333  52.864  0.00  0.00     0.137 A 
ATOM     18  C   UNL d   1      52.787  33.486  53.432  0.00  0.00     0.141 A 
ATOM     19  O   UNL d   1      53.038  34.189  53.784  0.00  0.00    -0.303 OA
ATOM     20  C   UNL d   1      53.232  32.864  53.750  0.00  0.00     0.110 A 
ATOM     21  C   UNL d   1      53.642  34.002  54.324  0.00  0.00     0.102 A 
ATOM     22  C   UNL d   1      54.098  34.473  54.831  0.00  0.00     0.025 A 
ATOM     23  C   UNL d   1      53.757  33.184  54.297  0.00  0.00     0.043 A 
ATOM     24  C   UNL d   1      54.670  34.116  55.311  0.00  0.00     0.002 A 
ATOM     25  C   UNL d   1      54.788  33.300  55.288  0.00  0.00     0.000 A 
ATOM     26  C   UNL d   1      54.332  32.828  54.781  0.00  0.00     0.004 A 
ATOM     27  N   UNL d   1      53.093  32.093  53.493  0.00  0.00    -0.222 NA
ATOM     28  C   UNL d   1      52.518  31.939  52.925  0.00  0.00     0.200 A 
ATOM     29  N   UNL d   1      52.076  32.554  52.609  0.00  0.00    -0.215 NA
ENDBRANCH  16  17
ENDBRANCH   1  16
TORSDOF 4
ENDMDL
