MODEL 1
REMARK VINA RESULT:      19.9      0.000      0.000
REMARK  5 active torsions:
REMARK  status: ('A' for Active; 'I' for Inactive)
REMARK    1  A    between atoms: C_2  and  C_1 
REMARK    2  A    between atoms: C_3  and  C_2 
REMARK    3  A    between atoms: C_6  and  C_3 
REMARK    4  A    between atoms: O_15  and  C_12 
REMARK    5  A    between atoms: O_14  and  C_13 
ROOT
ATOM      1  C   UNL d   1      45.719 -17.527  43.503  0.00  0.00     0.143 C 
ATOM      2  C   UNL d   1      45.212 -17.744  42.870  0.00  0.00     0.107 C 
ATOM      3  N   UNL d   1      44.705 -17.947  42.242  0.00  0.00    -0.191 NA
ENDROOT
BRANCH   1   4
ATOM      4  C   UNL d   1      45.689 -16.754  43.821  0.00  0.00     0.175 A 
ATOM      5  N   UNL d   1      46.283 -16.199  43.881  0.00  0.00    -0.225 NA
ATOM      6  C   UNL d   1      46.004 -15.546  44.219  0.00  0.00     0.101 A 
ATOM      7  C   UNL d   1      46.343 -14.847  44.407  0.00  0.00     0.021 A 
ATOM      8  C   UNL d   1      45.205 -15.653  44.394  0.00  0.00     0.101 A 
ATOM      9  C   UNL d   1      45.909 -14.231  44.772  0.00  0.00     0.002 A 
ATOM     10  C   UNL d   1      45.128 -14.372  44.929  0.00  0.00     0.002 A 
ATOM     11  C   UNL d   1      44.792 -15.079  44.737  0.00  0.00     0.021 A 
ATOM     12  N   UNL d   1      45.017 -16.425  44.136  0.00  0.00    -0.225 NA
ENDBRANCH   1   4
BRANCH   1  13
ATOM     13  C   UNL d   1      46.233 -18.099  43.787  0.00  0.00     0.212 C 
ATOM     14  O   UNL d   1      46.647 -17.960  44.492  0.00  0.00    -0.286 OA
BRANCH  13  15
ATOM     15  C   UNL d   1      46.349 -18.808  43.389  0.00  0.00     0.084 A 
ATOM     16  C   UNL d   1      46.512 -18.791  42.586  0.00  0.00     0.099 A 
ATOM     17  C   UNL d   1      46.632 -19.514  42.169  0.00  0.00     0.024 A 
ATOM     18  C   UNL d   1      46.581 -20.227  42.591  0.00  0.00     0.004 A 
ATOM     19  C   UNL d   1      46.414 -20.234  43.407  0.00  0.00     0.024 A 
ATOM     20  C   UNL d   1      46.299 -19.502  43.796  0.00  0.00     0.099 A 
BRANCH  16  21
ATOM     21  O   UNL d   1      46.568 -18.092  42.145  0.00  0.00    -0.328 OA
ATOM     22  C   UNL d   1      46.635 -18.133  41.313  0.00  0.00     0.181 C 
ENDBRANCH  16  21
BRANCH  20  23
ATOM     23  O   UNL d   1      46.133 -19.505  44.609  0.00  0.00    -0.328 OA
ATOM     24  C   UNL d   1      45.655 -20.083  44.945  0.00  0.00     0.181 C 
ENDBRANCH  20  23
ENDBRANCH  13  15
ENDBRANCH   1  13
TORSDOF 5
ENDMDL
MODEL 2
REMARK VINA RESULT:      20.1      0.091      1.591
REMARK  5 active torsions:
REMARK  status: ('A' for Active; 'I' for Inactive)
REMARK    1  A    between atoms: C_2  and  C_1 
REMARK    2  A    between atoms: C_3  and  C_2 
REMARK    3  A    between atoms: C_6  and  C_3 
REMARK    4  A    between atoms: O_15  and  C_12 
REMARK    5  A    between atoms: O_14  and  C_13 
ROOT
ATOM      1  C   UNL d   1      45.698 -17.594  43.530  0.00  0.00     0.143 C 
ATOM      2  C   UNL d   1      45.185 -17.828  42.909  0.00  0.00     0.107 C 
ATOM      3  N   UNL d   1      44.670 -18.049  42.293  0.00  0.00    -0.191 NA
ENDROOT
BRANCH   1   4
ATOM      4  C   UNL d   1      45.664 -16.816  43.835  0.00  0.00     0.175 A 
ATOM      5  N   UNL d   1      46.269 -16.282  43.951  0.00  0.00    -0.225 NA
ATOM      6  C   UNL d   1      45.981 -15.615  44.251  0.00  0.00     0.101 A 
ATOM      7  C   UNL d   1      46.324 -14.925  44.466  0.00  0.00     0.021 A 
ATOM      8  C   UNL d   1      45.165 -15.691  44.342  0.00  0.00     0.101 A 
ATOM      9  C   UNL d   1      45.877 -14.289  44.777  0.00  0.00     0.002 A 
ATOM     10  C   UNL d   1      45.079 -14.400  44.852  0.00  0.00     0.002 A 
ATOM     11  C   UNL d   1      44.739 -15.097  44.634  0.00  0.00     0.021 A 
ATOM     12  N   UNL d   1      44.976 -16.459  44.074  0.00  0.00    -0.225 NA
ENDBRANCH   1   4
BRANCH   1  13
ATOM     13  C   UNL d   1      46.224 -18.155  43.816  0.00  0.00     0.212 C 
ATOM     14  O   UNL d   1      46.645 -17.999  44.513  0.00  0.00    -0.286 OA
BRANCH  13  15
ATOM     15  C   UNL d   1      46.344 -18.869  43.427  0.00  0.00     0.084 A 
ATOM     16  C   UNL d   1      46.285 -19.566  43.852  0.00  0.00     0.099 A 
ATOM     17  C   UNL d   1      46.406 -20.304  43.462  0.00  0.00     0.024 A 
ATOM     18  C   UNL d   1      46.584 -20.298  42.651  0.00  0.00     0.004 A 
ATOM     19  C   UNL d   1      46.642 -19.583  42.228  0.00  0.00     0.024 A 
ATOM     20  C   UNL d   1      46.517 -18.865  42.640  0.00  0.00     0.099 A 
BRANCH  16  21
ATOM     21  O   UNL d   1      46.108 -19.597  44.660  0.00  0.00    -0.328 OA
ATOM     22  C   UNL d   1      45.607 -20.198  44.952  0.00  0.00     0.181 C 
ENDBRANCH  16  21
BRANCH  20  23
ATOM     23  O   UNL d   1      46.574 -18.151  42.222  0.00  0.00    -0.328 OA
ATOM     24  C   UNL d   1      46.637 -18.140  41.402  0.00  0.00     0.181 C 
ENDBRANCH  20  23
ENDBRANCH  13  15
ENDBRANCH   1  13
TORSDOF 5
ENDMDL
