MODEL 1
REMARK VINA RESULT:      -8.9      0.000      0.000
REMARK  3 active torsions:
REMARK  status: ('A' for Active; 'I' for Inactive)
REMARK    1  A    between atoms: N_10  and  C_7 
REMARK       I    between atoms: C_9  and  N_10 
REMARK    2  A    between atoms: C_12  and  C_9 
REMARK    3  A    between atoms: O_20  and  C_17 
ROOT
ATOM      1  C   UNL d   1     -49.158  14.317  22.797  0.00  0.00     0.081 A 
ATOM      2  C   UNL d   1     -49.875  14.667  22.983  0.00  0.00     0.301 A 
ATOM      3  C   UNL d   1     -49.043  13.507  22.876  0.00  0.00     0.090 A 
ATOM      4  O   UNL d   1     -50.500  14.189  23.257  0.00  0.00    -0.273 OA
ATOM      5  N   UNL d   1     -48.314  13.165  22.686  0.00  0.00    -0.226 NA
ATOM      6  C   UNL d   1     -49.665  13.037  23.149  0.00  0.00     0.041 A 
ATOM      7  C   UNL d   1     -47.695  13.649  22.413  0.00  0.00     0.166 A 
ATOM      8  C   UNL d   1     -48.536  14.795  22.524  0.00  0.00     0.010 A 
ATOM      9  C   UNL d   1     -50.396  13.376  23.340  0.00  0.00     0.105 A 
ATOM     10  C   UNL d   1     -47.804  14.461  22.331  0.00  0.00     0.039 A 
ATOM     11  O   UNL d   1     -49.987  15.484  22.901  0.00  0.00    -0.259 OA
ATOM     12  C   UNL d   1     -49.556  12.221  23.231  0.00  0.00     0.004 A 
ATOM     13  C   UNL d   1     -48.655  15.607  22.445  0.00  0.00     0.000 C 
ATOM     14  C   UNL d   1     -51.011  12.912  23.610  0.00  0.00     0.025 A 
ATOM     15  C   UNL d   1     -50.180  11.758  23.503  0.00  0.00     0.000 A 
ATOM     16  C   UNL d   1     -50.908  12.104  23.693  0.00  0.00     0.002 A 
ENDROOT
BRANCH   7  17
ATOM     17  N   UNL d   1     -46.957  13.307  22.219  0.00  0.00    -0.189 NA
ATOM     18  C   UNL d   1     -46.389  13.202  22.807  0.00  0.00     0.281 C 
ATOM     19  O   UNL d   1     -46.551  13.436  23.588  0.00  0.00    -0.265 OA
BRANCH  18  20
ATOM     20  C   UNL d   1     -45.670  12.869  22.623  0.00  0.00     0.060 A 
ATOM     21  C   UNL d   1     -45.423  12.206  23.004  0.00  0.00     0.029 A 
ATOM     22  C   UNL d   1     -44.688  11.866  22.816  0.00  0.00     0.094 A 
ATOM     23  C   UNL d   1     -44.209  12.197  22.247  0.00  0.00     0.024 A 
ATOM     24  C   UNL d   1     -44.471  12.887  21.853  0.00  0.00     0.002 A 
ATOM     25  C   UNL d   1     -45.196  13.219  22.041  0.00  0.00     0.005 A 
BRANCH  22  26
ATOM     26  O   UNL d   1     -44.436  11.181  23.212  0.00  0.00    -0.328 OA
ATOM     27  C   UNL d   1     -43.655  10.896  23.099  0.00  0.00     0.181 C 
ENDBRANCH  22  26
ENDBRANCH  18  20
ENDBRANCH   7  17
TORSDOF 3
ENDMDL
MODEL 2
REMARK VINA RESULT:      -8.4      0.834      1.950
REMARK  3 active torsions:
REMARK  status: ('A' for Active; 'I' for Inactive)
REMARK    1  A    between atoms: N_10  and  C_7 
REMARK       I    between atoms: C_9  and  N_10 
REMARK    2  A    between atoms: C_12  and  C_9 
REMARK    3  A    between atoms: O_20  and  C_17 
ROOT
ATOM      1  C   UNL d   1     -49.853  13.057  23.140  0.00  0.00     0.081 A 
ATOM      2  C   UNL d   1     -50.637  13.053  23.375  0.00  0.00     0.301 A 
ATOM      3  C   UNL d   1     -49.425  13.758  23.086  0.00  0.00     0.090 A 
ATOM      4  O   UNL d   1     -51.009  13.774  23.563  0.00  0.00    -0.273 OA
ATOM      5  N   UNL d   1     -48.633  13.751  22.848  0.00  0.00    -0.226 NA
ATOM      6  C   UNL d   1     -49.797  14.471  23.274  0.00  0.00     0.041 A 
ATOM      7  C   UNL d   1     -48.269  13.026  22.662  0.00  0.00     0.166 A 
ATOM      8  C   UNL d   1     -49.484  12.337  22.953  0.00  0.00     0.010 A 
ATOM      9  C   UNL d   1     -50.590  14.483  23.512  0.00  0.00     0.105 A 
ATOM     10  C   UNL d   1     -48.692  12.321  22.714  0.00  0.00     0.039 A 
ATOM     11  O   UNL d   1     -51.064  12.344  23.428  0.00  0.00    -0.259 OA
ATOM     12  C   UNL d   1     -49.374  15.180  23.222  0.00  0.00     0.004 A 
ATOM     13  C   UNL d   1     -49.915  11.637  23.008  0.00  0.00     0.000 C 
ATOM     14  C   UNL d   1     -50.958  15.187  23.698  0.00  0.00     0.025 A 
ATOM     15  C   UNL d   1     -49.750  15.888  23.410  0.00  0.00     0.000 A 
ATOM     16  C   UNL d   1     -50.543  15.891  23.648  0.00  0.00     0.002 A 
ENDROOT
BRANCH   7  17
ATOM     17  N   UNL d   1     -47.469  13.014  22.421  0.00  0.00    -0.189 NA
ATOM     18  C   UNL d   1     -46.893  12.726  22.933  0.00  0.00     0.281 C 
ATOM     19  O   UNL d   1     -47.108  12.447  23.687  0.00  0.00    -0.265 OA
BRANCH  18  20
ATOM     20  C   UNL d   1     -46.112  12.713  22.702  0.00  0.00     0.060 A 
ATOM     21  C   UNL d   1     -45.616  12.149  22.989  0.00  0.00     0.029 A 
ATOM     22  C   UNL d   1     -44.819  12.136  22.753  0.00  0.00     0.094 A 
ATOM     23  C   UNL d   1     -44.530  12.690  22.232  0.00  0.00     0.024 A 
ATOM     24  C   UNL d   1     -45.051  13.274  21.936  0.00  0.00     0.002 A 
ATOM     25  C   UNL d   1     -45.835  13.284  22.171  0.00  0.00     0.005 A 
BRANCH  22  26
ATOM     26  O   UNL d   1     -44.310  11.551  23.052  0.00  0.00    -0.328 OA
ATOM     27  C   UNL d   1     -43.604  11.363  22.640  0.00  0.00     0.181 C 
ENDBRANCH  22  26
ENDBRANCH  18  20
ENDBRANCH   7  17
TORSDOF 3
ENDMDL
MODEL 3
REMARK VINA RESULT:      -6.3      1.264      5.392
REMARK  3 active torsions:
REMARK  status: ('A' for Active; 'I' for Inactive)
REMARK    1  A    between atoms: N_10  and  C_7 
REMARK       I    between atoms: C_9  and  N_10 
REMARK    2  A    between atoms: C_12  and  C_9 
REMARK    3  A    between atoms: O_20  and  C_17 
ROOT
ATOM      1  C   UNL d   1     -45.236  11.813  22.917  0.00  0.00     0.081 A 
ATOM      2  C   UNL d   1     -44.642  11.250  22.917  0.00  0.00     0.301 A 
ATOM      3  C   UNL d   1     -45.144  12.534  22.533  0.00  0.00     0.090 A 
ATOM      4  O   UNL d   1     -43.928  11.412  22.519  0.00  0.00    -0.273 OA
ATOM      5  N   UNL d   1     -45.751  13.096  22.539  0.00  0.00    -0.226 NA
ATOM      6  C   UNL d   1     -44.435  12.692  22.140  0.00  0.00     0.041 A 
ATOM      7  C   UNL d   1     -46.461  12.925  22.939  0.00  0.00     0.166 A 
ATOM      8  C   UNL d   1     -45.947  11.649  23.314  0.00  0.00     0.010 A 
ATOM      9  C   UNL d   1     -43.825  12.132  22.131  0.00  0.00     0.105 A 
ATOM     10  C   UNL d   1     -46.559  12.205  23.325  0.00  0.00     0.039 A 
ATOM     11  O   UNL d   1     -44.740  10.524  23.305  0.00  0.00    -0.259 OA
ATOM     12  C   UNL d   1     -44.334  13.415  21.751  0.00  0.00     0.004 A 
ATOM     13  C   UNL d   1     -46.037  10.925  23.698  0.00  0.00     0.000 C 
ATOM     14  C   UNL d   1     -43.124  12.287  21.743  0.00  0.00     0.025 A 
ATOM     15  C   UNL d   1     -43.625  13.567  21.361  0.00  0.00     0.000 A 
ATOM     16  C   UNL d   1     -43.020  13.002  21.356  0.00  0.00     0.002 A 
ENDROOT
BRANCH   7  17
ATOM     17  N   UNL d   1     -47.077  13.490  22.948  0.00  0.00    -0.189 NA
ATOM     18  C   UNL d   1     -47.683  13.441  22.393  0.00  0.00     0.281 C 
ATOM     19  O   UNL d   1     -47.682  12.831  21.828  0.00  0.00    -0.265 OA
BRANCH  18  20
ATOM     20  C   UNL d   1     -48.285  13.989  22.399  0.00  0.00     0.060 A 
ATOM     21  C   UNL d   1     -49.051  13.748  22.345  0.00  0.00     0.029 A 
ATOM     22  C   UNL d   1     -49.665  14.308  22.350  0.00  0.00     0.094 A 
ATOM     23  C   UNL d   1     -49.504  15.103  22.409  0.00  0.00     0.024 A 
ATOM     24  C   UNL d   1     -48.705  15.348  22.465  0.00  0.00     0.002 A 
ATOM     25  C   UNL d   1     -48.103  14.794  22.459  0.00  0.00     0.005 A 
BRANCH  22  26
ATOM     26  O   UNL d   1     -50.454  14.055  22.294  0.00  0.00    -0.328 OA
ATOM     27  C   UNL d   1     -51.058  14.608  22.111  0.00  0.00     0.181 C 
ENDBRANCH  22  26
ENDBRANCH  18  20
ENDBRANCH   7  17
TORSDOF 3
ENDMDL
MODEL 4
REMARK VINA RESULT:      -6.2      1.250      2.422
REMARK  3 active torsions:
REMARK  status: ('A' for Active; 'I' for Inactive)
REMARK    1  A    between atoms: N_10  and  C_7 
REMARK       I    between atoms: C_9  and  N_10 
REMARK    2  A    between atoms: C_12  and  C_9 
REMARK    3  A    between atoms: O_20  and  C_17 
ROOT
ATOM      1  C   UNL d   1     -48.496  12.795  23.294  0.00  0.00     0.081 A 
ATOM      2  C   UNL d   1     -49.309  12.850  23.378  0.00  0.00     0.301 A 
ATOM      3  C   UNL d   1     -48.046  13.440  23.053  0.00  0.00     0.090 A 
ATOM      4  O   UNL d   1     -49.687  13.574  23.216  0.00  0.00    -0.273 OA
ATOM      5  N   UNL d   1     -47.226  13.374  22.971  0.00  0.00    -0.226 NA
ATOM      6  C   UNL d   1     -48.424  14.157  22.893  0.00  0.00     0.041 A 
ATOM      7  C   UNL d   1     -46.857  12.646  23.135  0.00  0.00     0.166 A 
ATOM      8  C   UNL d   1     -48.122  12.072  23.456  0.00  0.00     0.010 A 
ATOM      9  C   UNL d   1     -49.245  14.227  22.973  0.00  0.00     0.105 A 
ATOM     10  C   UNL d   1     -47.302  11.997  23.377  0.00  0.00     0.039 A 
ATOM     11  O   UNL d   1     -49.759  12.197  23.621  0.00  0.00    -0.259 OA
ATOM     12  C   UNL d   1     -47.978  14.810  22.650  0.00  0.00     0.004 A 
ATOM     13  C   UNL d   1     -48.576  11.428  23.698  0.00  0.00     0.000 C 
ATOM     14  C   UNL d   1     -49.619  14.935  22.815  0.00  0.00     0.025 A 
ATOM     15  C   UNL d   1     -48.360  15.522  22.491  0.00  0.00     0.000 A 
ATOM     16  C   UNL d   1     -49.181  15.584  22.574  0.00  0.00     0.002 A 
ENDROOT
BRANCH   7  17
ATOM     17  N   UNL d   1     -46.027  12.575  23.054  0.00  0.00    -0.189 NA
ATOM     18  C   UNL d   1     -45.697  12.492  22.305  0.00  0.00     0.281 C 
ATOM     19  O   UNL d   1     -46.187  12.478  21.633  0.00  0.00    -0.265 OA
BRANCH  18  20
ATOM     20  C   UNL d   1     -44.890  12.422  22.221  0.00  0.00     0.060 A 
ATOM     21  C   UNL d   1     -44.491  12.921  21.733  0.00  0.00     0.029 A 
ATOM     22  C   UNL d   1     -43.667  12.850  21.648  0.00  0.00     0.094 A 
ATOM     23  C   UNL d   1     -43.254  12.279  22.054  0.00  0.00     0.024 A 
ATOM     24  C   UNL d   1     -43.674  11.763  22.561  0.00  0.00     0.002 A 
ATOM     25  C   UNL d   1     -44.486  11.836  22.643  0.00  0.00     0.005 A 
BRANCH  22  26
ATOM     26  O   UNL d   1     -43.258  13.367  21.142  0.00  0.00    -0.328 OA
ATOM     27  C   UNL d   1     -42.428  13.292  21.050  0.00  0.00     0.181 C 
ENDBRANCH  22  26
ENDBRANCH  18  20
ENDBRANCH   7  17
TORSDOF 3
ENDMDL
