MODEL 1
REMARK VINA RESULT:      -8.7      0.000      0.000
REMARK  6 active torsions:
REMARK  status: ('A' for Active; 'I' for Inactive)
REMARK    1  A    between atoms: C_10  and  C_2 
REMARK    2  A    between atoms: C_11  and  C_4 
REMARK    3  A    between atoms: N_12  and  C_10 
REMARK    4  A    between atoms: O_17  and  C_11 
REMARK    5  A    between atoms: C_14  and  N_12 
REMARK    6  A    between atoms: C_23  and  O_17 
ROOT
ATOM      1  C   UNL d   1      53.304  32.606  53.598  0.00  0.00     0.035 A 
ATOM      2  C   UNL d   1      52.539  32.477  53.282  0.00  0.00     0.060 A 
ATOM      3  C   UNL d   1      53.804  31.972  53.763  0.00  0.00     0.100 A 
ATOM      4  C   UNL d   1      53.715  33.307  53.804  0.00  0.00     0.088 A 
ATOM      5  O   UNL d   1      54.509  32.257  54.064  0.00  0.00    -0.307 OA
ATOM      6  C   UNL d   1      54.458  33.079  54.091  0.00  0.00     0.105 A 
ATOM      7  C   UNL d   1      52.290  31.715  53.138  0.00  0.00     0.197 A 
ATOM      8  C   UNL d   1      53.536  31.204  53.611  0.00  0.00     0.026 A 
ATOM      9  C   UNL d   1      52.771  31.074  53.295  0.00  0.00     0.041 A 
ATOM     10  O   UNL d   1      51.521  31.585  52.820  0.00  0.00    -0.286 OA
ATOM     11  C   UNL d   1      55.054  33.607  54.361  0.00  0.00     0.027 C 
ATOM     12  C   UNL d   1      54.036  30.572  53.776  0.00  0.00     0.002 A 
ATOM     13  C   UNL d   1      52.522  30.315  53.151  0.00  0.00     0.003 A 
ATOM     14  C   UNL d   1      53.768  29.807  53.624  0.00  0.00     0.000 A 
ATOM     15  C   UNL d   1      53.003  29.677  53.308  0.00  0.00     0.000 A 
ENDROOT
BRANCH   2  16
ATOM     16  C   UNL d   1      52.035  33.130  53.116  0.00  0.00     0.104 C 
BRANCH  16  17
ATOM     17  N   UNL d   1      51.234  33.000  52.919  0.00  0.00    -0.225 NA
BRANCH  17  18
ATOM     18  C   UNL d   1      50.744  33.638  52.728  0.00  0.00     0.163 A 
ATOM     19  N   UNL d   1      50.280  33.979  53.316  0.00  0.00    -0.225 NA
ATOM     20  C   UNL d   1      49.795  34.611  53.123  0.00  0.00     0.101 A 
ATOM     21  C   UNL d   1      49.772  34.899  52.356  0.00  0.00     0.021 A 
ATOM     22  C   UNL d   1      50.233  34.562  51.765  0.00  0.00     0.005 A 
ATOM     23  C   UNL d   1      50.720  33.927  51.961  0.00  0.00     0.039 A 
ENDBRANCH  17  18
ENDBRANCH  16  17
ENDBRANCH   2  16
BRANCH   4  24
ATOM     24  C   UNL d   1      53.435  34.091  53.736  0.00  0.00     0.302 C 
ATOM     25  O   UNL d   1      53.422  34.482  53.017  0.00  0.00    -0.259 OA
BRANCH  24  26
ATOM     26  O   UNL d   1      53.166  34.475  54.418  0.00  0.00    -0.271 OA
BRANCH  26  27
ATOM     27  C   UNL d   1      53.178  35.292  54.447  0.00  0.00     0.126 C 
ATOM     28  C   UNL d   1      52.792  35.671  55.088  0.00  0.00     0.029 C 
ENDBRANCH  26  27
ENDBRANCH  24  26
ENDBRANCH   4  24
TORSDOF 6
ENDMDL
MODEL 2
REMARK VINA RESULT:      -7.4      1.044      3.681
REMARK  6 active torsions:
REMARK  status: ('A' for Active; 'I' for Inactive)
REMARK    1  A    between atoms: C_10  and  C_2 
REMARK    2  A    between atoms: C_11  and  C_4 
REMARK    3  A    between atoms: N_12  and  C_10 
REMARK    4  A    between atoms: O_17  and  C_11 
REMARK    5  A    between atoms: C_14  and  N_12 
REMARK    6  A    between atoms: C_23  and  O_17 
ROOT
ATOM      1  C   UNL d   1      52.271  33.910  53.474  0.00  0.00     0.035 A 
ATOM      2  C   UNL d   1      52.014  33.139  53.270  0.00  0.00     0.060 A 
ATOM      3  C   UNL d   1      51.771  34.559  53.381  0.00  0.00     0.100 A 
ATOM      4  C   UNL d   1      52.995  34.198  53.783  0.00  0.00     0.088 A 
ATOM      5  O   UNL d   1      52.161  35.236  53.621  0.00  0.00    -0.307 OA
ATOM      6  C   UNL d   1      52.916  35.018  53.870  0.00  0.00     0.105 A 
ATOM      7  C   UNL d   1      51.262  33.034  52.977  0.00  0.00     0.197 A 
ATOM      8  C   UNL d   1      51.009  34.435  53.081  0.00  0.00     0.026 A 
ATOM      9  C   UNL d   1      50.752  33.664  52.877  0.00  0.00     0.041 A 
ATOM     10  O   UNL d   1      51.004  32.259  52.771  0.00  0.00    -0.286 OA
ATOM     11  C   UNL d   1      53.513  35.532  54.163  0.00  0.00     0.027 C 
ATOM     12  C   UNL d   1      50.512  35.083  52.989  0.00  0.00     0.002 A 
ATOM     13  C   UNL d   1      50.003  33.557  52.584  0.00  0.00     0.003 A 
ATOM     14  C   UNL d   1      49.752  34.958  52.690  0.00  0.00     0.000 A 
ATOM     15  C   UNL d   1      49.495  34.186  52.486  0.00  0.00     0.000 A 
ENDROOT
BRANCH   2  16
ATOM     16  C   UNL d   1      52.531  32.483  53.368  0.00  0.00     0.104 C 
BRANCH  16  17
ATOM     17  N   UNL d   1      52.323  31.737  53.057  0.00  0.00    -0.225 NA
BRANCH  17  18
ATOM     18  C   UNL d   1      52.766  31.066  53.251  0.00  0.00     0.163 A 
ATOM     19  N   UNL d   1      52.634  30.692  53.972  0.00  0.00    -0.225 NA
ATOM     20  C   UNL d   1      53.075  30.027  54.161  0.00  0.00     0.101 A 
ATOM     21  C   UNL d   1      53.639  29.739  53.640  0.00  0.00     0.021 A 
ATOM     22  C   UNL d   1      53.774  30.109  52.919  0.00  0.00     0.005 A 
ATOM     23  C   UNL d   1      53.330  30.778  52.731  0.00  0.00     0.039 A 
ENDBRANCH  17  18
ENDBRANCH  16  17
ENDBRANCH   2  16
BRANCH   4  24
ATOM     24  C   UNL d   1      53.674  33.748  53.971  0.00  0.00     0.302 C 
ATOM     25  O   UNL d   1      54.209  33.517  53.396  0.00  0.00    -0.259 OA
BRANCH  24  26
ATOM     26  O   UNL d   1      53.801  33.535  54.760  0.00  0.00    -0.271 OA
BRANCH  26  27
ATOM     27  C   UNL d   1      54.562  33.381  55.014  0.00  0.00     0.126 C 
ATOM     28  C   UNL d   1      54.680  33.204  55.826  0.00  0.00     0.029 C 
ENDBRANCH  26  27
ENDBRANCH  24  26
ENDBRANCH   4  24
TORSDOF 6
ENDMDL
MODEL 3
REMARK VINA RESULT:      -6.9      0.891      2.980
REMARK  6 active torsions:
REMARK  status: ('A' for Active; 'I' for Inactive)
REMARK    1  A    between atoms: C_10  and  C_2 
REMARK    2  A    between atoms: C_11  and  C_4 
REMARK    3  A    between atoms: N_12  and  C_10 
REMARK    4  A    between atoms: O_17  and  C_11 
REMARK    5  A    between atoms: C_14  and  N_12 
REMARK    6  A    between atoms: C_23  and  O_17 
ROOT
ATOM      1  C   UNL d   1      53.389  32.668  53.816  0.00  0.00     0.035 A 
ATOM      2  C   UNL d   1      52.983  33.395  53.729  0.00  0.00     0.060 A 
ATOM      3  C   UNL d   1      54.081  32.623  54.263  0.00  0.00     0.100 A 
ATOM      4  C   UNL d   1      53.234  31.898  53.521  0.00  0.00     0.088 A 
ATOM      5  O   UNL d   1      54.357  31.854  54.254  0.00  0.00    -0.307 OA
ATOM      6  C   UNL d   1      53.838  31.404  53.798  0.00  0.00     0.105 A 
ATOM      7  C   UNL d   1      53.276  34.062  54.090  0.00  0.00     0.197 A 
ATOM      8  C   UNL d   1      54.366  33.311  54.625  0.00  0.00     0.026 A 
ATOM      9  C   UNL d   1      53.960  34.039  54.537  0.00  0.00     0.041 A 
ATOM     10  O   UNL d   1      52.868  34.793  54.002  0.00  0.00    -0.286 OA
ATOM     11  C   UNL d   1      53.902  30.582  53.635  0.00  0.00     0.027 C 
ATOM     12  C   UNL d   1      55.056  33.265  55.070  0.00  0.00     0.002 A 
ATOM     13  C   UNL d   1      54.252  34.704  54.896  0.00  0.00     0.003 A 
ATOM     14  C   UNL d   1      55.339  33.951  55.429  0.00  0.00     0.000 A 
ATOM     15  C   UNL d   1      54.933  34.679  55.342  0.00  0.00     0.000 A 
ENDROOT
BRANCH   2  16
ATOM     16  C   UNL d   1      52.278  33.432  53.271  0.00  0.00     0.104 C 
BRANCH  16  17
ATOM     17  N   UNL d   1      51.938  34.171  53.085  0.00  0.00    -0.225 NA
BRANCH  17  18
ATOM     18  C   UNL d   1      51.223  34.209  52.672  0.00  0.00     0.163 A 
ATOM     19  N   UNL d   1      51.233  34.202  51.849  0.00  0.00    -0.225 NA
ATOM     20  C   UNL d   1      50.521  34.240  51.443  0.00  0.00     0.101 A 
ATOM     21  C   UNL d   1      49.811  34.284  51.850  0.00  0.00     0.021 A 
ATOM     22  C   UNL d   1      49.796  34.291  52.672  0.00  0.00     0.005 A 
ATOM     23  C   UNL d   1      50.512  34.253  53.079  0.00  0.00     0.039 A 
ENDBRANCH  17  18
ENDBRANCH  16  17
ENDBRANCH   2  16
BRANCH   4  24
ATOM     24  C   UNL d   1      52.593  31.666  53.038  0.00  0.00     0.302 C 
ATOM     25  O   UNL d   1      52.626  31.727  52.223  0.00  0.00    -0.259 OA
BRANCH  24  26
ATOM     26  O   UNL d   1      51.912  31.369  53.402  0.00  0.00    -0.271 OA
BRANCH  26  27
ATOM     27  C   UNL d   1      51.536  30.721  53.075  0.00  0.00     0.126 C 
ATOM     28  C   UNL d   1      50.863  30.413  53.470  0.00  0.00     0.029 C 
ENDBRANCH  26  27
ENDBRANCH  24  26
ENDBRANCH   4  24
TORSDOF 6
ENDMDL
