MODEL 1
REMARK VINA RESULT:      -9.1      0.000      0.000
REMARK  3 active torsions:
REMARK  status: ('A' for Active; 'I' for Inactive)
REMARK    1  A    between atoms: C_5  and  N_1 
REMARK    2  A    between atoms: C_8  and  C_2 
REMARK    3  A    between atoms: C_7  and  C_5 
ROOT
ATOM      1  N   UNL d   1      53.243  32.494  53.161  0.00  0.00    -0.287 N 
ATOM      2  C   UNL d   1      52.894  31.743  53.172  0.00  0.00     0.187 A 
ATOM      3  N   UNL d   1      52.066  31.832  53.100  0.00  0.00    -0.224 NA
ATOM      4  C   UNL d   1      52.635  33.061  53.080  0.00  0.00     0.083 A 
ATOM      5  C   UNL d   1      51.915  32.649  53.043  0.00  0.00     0.099 A 
ATOM      6  C   UNL d   1      52.636  33.894  53.035  0.00  0.00     0.019 A 
ATOM      7  C   UNL d   1      51.194  33.067  52.961  0.00  0.00     0.021 A 
ATOM      8  C   UNL d   1      51.927  34.307  52.955  0.00  0.00     0.002 A 
ATOM      9  C   UNL d   1      51.207  33.895  52.918  0.00  0.00     0.002 A 
ENDROOT
BRANCH   1  10
ATOM     10  C   UNL d   1      54.064  32.492  53.228  0.00  0.00     0.082 C 
BRANCH  10  11
ATOM     11  C   UNL d   1      54.426  32.858  53.866  0.00  0.00     0.018 A 
ATOM     12  C   UNL d   1      55.126  33.268  53.763  0.00  0.00     0.001 A 
ATOM     13  C   UNL d   1      55.490  33.635  54.401  0.00  0.00     0.000 A 
ATOM     14  C   UNL d   1      55.464  33.309  53.011  0.00  0.00     0.000 C 
ATOM     15  C   UNL d   1      55.149  33.592  55.151  0.00  0.00     0.000 A 
ATOM     16  C   UNL d   1      54.443  33.179  55.257  0.00  0.00     0.000 A 
ATOM     17  C   UNL d   1      54.082  32.813  54.615  0.00  0.00     0.002 A 
ATOM     18  C   UNL d   1      54.099  33.134  56.007  0.00  0.00     0.000 C 
ENDBRANCH  10  11
ENDBRANCH   1  10
BRANCH   2  19
ATOM     19  C   UNL d   1      52.885  30.925  53.216  0.00  0.00     0.230 C 
ATOM     20  O   UNL d   1      52.771  30.550  53.942  0.00  0.00    -0.283 OA
ATOM     21  C   UNL d   1      52.989  30.474  52.538  0.00  0.00     0.049 C 
ENDBRANCH   2  19
TORSDOF 3
ENDMDL
MODEL 2
REMARK VINA RESULT:      -9.1      0.952      2.476
REMARK  3 active torsions:
REMARK  status: ('A' for Active; 'I' for Inactive)
REMARK    1  A    between atoms: C_5  and  N_1 
REMARK    2  A    between atoms: C_8  and  C_2 
REMARK    3  A    between atoms: C_7  and  C_5 
ROOT
ATOM      1  N   UNL d   1      52.974  32.314  53.771  0.00  0.00    -0.287 N 
ATOM      2  C   UNL d   1      52.457  32.586  53.183  0.00  0.00     0.187 A 
ATOM      3  N   UNL d   1      52.267  31.947  52.679  0.00  0.00    -0.224 NA
ATOM      4  C   UNL d   1      53.111  31.501  53.639  0.00  0.00     0.083 A 
ATOM      5  C   UNL d   1      52.674  31.281  52.968  0.00  0.00     0.099 A 
ATOM      6  C   UNL d   1      53.571  30.930  54.036  0.00  0.00     0.019 A 
ATOM      7  C   UNL d   1      52.696  30.491  52.690  0.00  0.00     0.021 A 
ATOM      8  C   UNL d   1      53.594  30.151  53.764  0.00  0.00     0.002 A 
ATOM      9  C   UNL d   1      53.158  29.932  53.093  0.00  0.00     0.002 A 
ENDROOT
BRANCH   1  10
ATOM     10  C   UNL d   1      53.211  32.888  54.312  0.00  0.00     0.082 C 
BRANCH  10  11
ATOM     11  C   UNL d   1      53.996  33.122  54.348  0.00  0.00     0.018 A 
ATOM     12  C   UNL d   1      54.313  33.393  55.051  0.00  0.00     0.001 A 
ATOM     13  C   UNL d   1      55.100  33.627  55.088  0.00  0.00     0.000 A 
ATOM     14  C   UNL d   1      53.836  33.429  55.723  0.00  0.00     0.000 C 
ATOM     15  C   UNL d   1      55.574  33.590  54.414  0.00  0.00     0.000 A 
ATOM     16  C   UNL d   1      55.256  33.316  53.704  0.00  0.00     0.000 A 
ATOM     17  C   UNL d   1      54.467  33.083  53.672  0.00  0.00     0.002 A 
ATOM     18  C   UNL d   1      55.727  33.278  53.027  0.00  0.00     0.000 C 
ENDBRANCH  10  11
ENDBRANCH   1  10
BRANCH   2  19
ATOM     19  C   UNL d   1      52.003  33.141  52.789  0.00  0.00     0.230 C 
ATOM     20  O   UNL d   1      52.256  33.446  52.065  0.00  0.00    -0.283 OA
ATOM     21  C   UNL d   1      51.292  33.398  53.110  0.00  0.00     0.049 C 
ENDBRANCH   2  19
TORSDOF 3
ENDMDL
MODEL 3
REMARK VINA RESULT:      -8.9      1.149      3.236
REMARK  3 active torsions:
REMARK  status: ('A' for Active; 'I' for Inactive)
REMARK    1  A    between atoms: C_5  and  N_1 
REMARK    2  A    between atoms: C_8  and  C_2 
REMARK    3  A    between atoms: C_7  and  C_5 
ROOT
ATOM      1  N   UNL d   1      53.358  32.841  53.533  0.00  0.00    -0.287 N 
ATOM      2  C   UNL d   1      53.738  32.908  54.265  0.00  0.00     0.187 A 
ATOM      3  N   UNL d   1      53.889  32.140  54.558  0.00  0.00    -0.224 NA
ATOM      4  C   UNL d   1      53.267  32.029  53.361  0.00  0.00     0.083 A 
ATOM      5  C   UNL d   1      53.595  31.604  53.994  0.00  0.00     0.099 A 
ATOM      6  C   UNL d   1      52.931  31.618  52.717  0.00  0.00     0.019 A 
ATOM      7  C   UNL d   1      53.589  30.766  53.986  0.00  0.00     0.021 A 
ATOM      8  C   UNL d   1      52.925  30.793  52.709  0.00  0.00     0.002 A 
ATOM      9  C   UNL d   1      53.253  30.368  53.341  0.00  0.00     0.002 A 
ENDROOT
BRANCH   1  10
ATOM     10  C   UNL d   1      53.173  33.561  53.175  0.00  0.00     0.082 C 
BRANCH  10  11
ATOM     11  C   UNL d   1      52.392  33.756  53.021  0.00  0.00     0.018 A 
ATOM     12  C   UNL d   1      52.206  34.247  52.394  0.00  0.00     0.001 A 
ATOM     13  C   UNL d   1      51.424  34.443  52.238  0.00  0.00     0.000 A 
ATOM     14  C   UNL d   1      52.812  34.544  51.919  0.00  0.00     0.000 C 
ATOM     15  C   UNL d   1      50.820  34.144  52.715  0.00  0.00     0.000 A 
ATOM     16  C   UNL d   1      51.006  33.649  53.347  0.00  0.00     0.000 A 
ATOM     17  C   UNL d   1      51.791  33.455  53.500  0.00  0.00     0.002 A 
ATOM     18  C   UNL d   1      50.404  33.347  53.827  0.00  0.00     0.000 C 
ENDBRANCH  10  11
ENDBRANCH   1  10
BRANCH   2  19
ATOM     19  C   UNL d   1      54.070  33.305  54.901  0.00  0.00     0.230 C 
ATOM     20  O   UNL d   1      53.614  33.473  55.568  0.00  0.00    -0.283 OA
ATOM     21  C   UNL d   1      54.856  33.539  54.877  0.00  0.00     0.049 C 
ENDBRANCH   2  19
TORSDOF 3
ENDMDL
MODEL 4
REMARK VINA RESULT:      -8.3      0.922      3.234
REMARK  3 active torsions:
REMARK  status: ('A' for Active; 'I' for Inactive)
REMARK    1  A    between atoms: C_5  and  N_1 
REMARK    2  A    between atoms: C_8  and  C_2 
REMARK    3  A    between atoms: C_7  and  C_5 
ROOT
ATOM      1  N   UNL d   1      52.695  32.538  53.736  0.00  0.00    -0.287 N 
ATOM      2  C   UNL d   1      53.035  31.856  53.411  0.00  0.00     0.187 A 
ATOM      3  N   UNL d   1      53.846  31.840  53.612  0.00  0.00    -0.224 NA
ATOM      4  C   UNL d   1      53.292  32.955  54.144  0.00  0.00     0.083 A 
ATOM      5  C   UNL d   1      53.996  32.523  54.064  0.00  0.00     0.099 A 
ATOM      6  C   UNL d   1      53.293  33.669  54.576  0.00  0.00     0.019 A 
ATOM      7  C   UNL d   1      54.703  32.801  54.416  0.00  0.00     0.021 A 
ATOM      8  C   UNL d   1      53.989  33.944  54.923  0.00  0.00     0.002 A 
ATOM      9  C   UNL d   1      54.692  33.511  54.844  0.00  0.00     0.002 A 
ENDROOT
BRANCH   1  10
ATOM     10  C   UNL d   1      51.890  32.627  53.581  0.00  0.00     0.082 C 
BRANCH  10  11
ATOM     11  C   UNL d   1      51.625  33.259  53.131  0.00  0.00     0.018 A 
ATOM     12  C   UNL d   1      50.872  33.558  53.243  0.00  0.00     0.001 A 
ATOM     13  C   UNL d   1      50.605  34.190  52.793  0.00  0.00     0.000 A 
ATOM     14  C   UNL d   1      50.383  33.218  53.814  0.00  0.00     0.000 C 
ATOM     15  C   UNL d   1      51.097  34.528  52.223  0.00  0.00     0.000 A 
ATOM     16  C   UNL d   1      51.857  34.228  52.107  0.00  0.00     0.000 A 
ATOM     17  C   UNL d   1      52.120  33.593  52.561  0.00  0.00     0.002 A 
ATOM     18  C   UNL d   1      52.352  34.563  51.538  0.00  0.00     0.000 C 
ENDBRANCH  10  11
ENDBRANCH   1  10
BRANCH   2  19
ATOM     19  C   UNL d   1      53.041  31.154  52.987  0.00  0.00     0.230 C 
ATOM     20  O   UNL d   1      53.139  31.165  52.168  0.00  0.00    -0.283 OA
ATOM     21  C   UNL d   1      52.951  30.437  53.376  0.00  0.00     0.049 C 
ENDBRANCH   2  19
TORSDOF 3
ENDMDL
MODEL 5
REMARK VINA RESULT:      -7.5      1.232      2.769
REMARK  3 active torsions:
REMARK  status: ('A' for Active; 'I' for Inactive)
REMARK    1  A    between atoms: C_5  and  N_1 
REMARK    2  A    between atoms: C_8  and  C_2 
REMARK    3  A    between atoms: C_7  and  C_5 
ROOT
ATOM      1  N   UNL d   1      53.368  32.348  53.536  0.00  0.00    -0.287 N 
ATOM      2  C   UNL d   1      53.844  32.824  54.019  0.00  0.00     0.187 A 
ATOM      3  N   UNL d   1      53.399  33.491  54.255  0.00  0.00    -0.224 NA
ATOM      4  C   UNL d   1      52.621  32.714  53.466  0.00  0.00     0.083 A 
ATOM      5  C   UNL d   1      52.646  33.415  53.910  0.00  0.00     0.099 A 
ATOM      6  C   UNL d   1      51.921  32.508  53.061  0.00  0.00     0.019 A 
ATOM      7  C   UNL d   1      51.973  33.913  53.951  0.00  0.00     0.021 A 
ATOM      8  C   UNL d   1      51.258  32.996  53.101  0.00  0.00     0.002 A 
ATOM      9  C   UNL d   1      51.283  33.697  53.545  0.00  0.00     0.002 A 
ENDROOT
BRANCH   1  10
ATOM     10  C   UNL d   1      53.736  31.665  53.258  0.00  0.00     0.082 C 
BRANCH  10  11
ATOM     11  C   UNL d   1      53.462  30.927  53.488  0.00  0.00     0.018 A 
ATOM     12  C   UNL d   1      53.250  30.373  52.925  0.00  0.00     0.001 A 
ATOM     13  C   UNL d   1      52.975  29.634  53.154  0.00  0.00     0.000 A 
ATOM     14  C   UNL d   1      53.314  30.564  52.125  0.00  0.00     0.000 C 
ATOM     15  C   UNL d   1      52.912  29.446  53.955  0.00  0.00     0.000 A 
ATOM     16  C   UNL d   1      53.126  30.004  54.524  0.00  0.00     0.000 A 
ATOM     17  C   UNL d   1      53.400  30.743  54.290  0.00  0.00     0.002 A 
ATOM     18  C   UNL d   1      53.064  29.820  55.327  0.00  0.00     0.000 C 
ENDBRANCH  10  11
ENDBRANCH   1  10
BRANCH   2  19
ATOM     19  C   UNL d   1      54.527  33.034  54.419  0.00  0.00     0.230 C 
ATOM     20  O   UNL d   1      54.558  32.981  55.242  0.00  0.00    -0.283 OA
ATOM     21  C   UNL d   1      55.184  33.297  54.004  0.00  0.00     0.049 C 
ENDBRANCH   2  19
TORSDOF 3
ENDMDL
MODEL 6
REMARK VINA RESULT:      -7.2      1.163      2.985
REMARK  3 active torsions:
REMARK  status: ('A' for Active; 'I' for Inactive)
REMARK    1  A    between atoms: C_5  and  N_1 
REMARK    2  A    between atoms: C_8  and  C_2 
REMARK    3  A    between atoms: C_7  and  C_5 
ROOT
ATOM      1  N   UNL d   1      53.092  32.563  53.473  0.00  0.00    -0.287 N 
ATOM      2  C   UNL d   1      52.407  33.028  53.503  0.00  0.00     0.187 A 
ATOM      3  N   UNL d   1      52.549  33.679  54.008  0.00  0.00    -0.224 NA
ATOM      4  C   UNL d   1      53.669  32.920  53.959  0.00  0.00     0.083 A 
ATOM      5  C   UNL d   1      53.331  33.605  54.285  0.00  0.00     0.099 A 
ATOM      6  C   UNL d   1      54.456  32.718  54.150  0.00  0.00     0.019 A 
ATOM      7  C   UNL d   1      53.775  34.090  54.803  0.00  0.00     0.021 A 
ATOM      8  C   UNL d   1      54.895  33.195  54.660  0.00  0.00     0.002 A 
ATOM      9  C   UNL d   1      54.556  33.879  54.986  0.00  0.00     0.002 A 
ENDROOT
BRANCH   1  10
ATOM     10  C   UNL d   1      53.033  31.896  52.992  0.00  0.00     0.082 C 
BRANCH  10  11
ATOM     11  C   UNL d   1      53.089  31.147  53.319  0.00  0.00     0.018 A 
ATOM     12  C   UNL d   1      53.168  30.491  52.836  0.00  0.00     0.001 A 
ATOM     13  C   UNL d   1      53.224  29.740  53.162  0.00  0.00     0.000 A 
ATOM     14  C   UNL d   1      53.191  30.593  52.017  0.00  0.00     0.000 C 
ATOM     15  C   UNL d   1      53.201  29.642  53.981  0.00  0.00     0.000 A 
ATOM     16  C   UNL d   1      53.121  30.302  54.470  0.00  0.00     0.000 A 
ATOM     17  C   UNL d   1      53.065  31.053  54.138  0.00  0.00     0.002 A 
ATOM     18  C   UNL d   1      53.097  30.208  55.290  0.00  0.00     0.000 C 
ENDBRANCH  10  11
ENDBRANCH   1  10
BRANCH   2  19
ATOM     19  C   UNL d   1      51.635  33.232  53.320  0.00  0.00     0.230 C 
ATOM     20  O   UNL d   1      51.010  32.938  53.770  0.00  0.00    -0.283 OA
ATOM     21  C   UNL d   1      51.480  33.731  52.687  0.00  0.00     0.049 C 
ENDBRANCH   2  19
TORSDOF 3
ENDMDL
MODEL 7
REMARK VINA RESULT:      -6.9      1.600      2.942
REMARK  3 active torsions:
REMARK  status: ('A' for Active; 'I' for Inactive)
REMARK    1  A    between atoms: C_5  and  N_1 
REMARK    2  A    between atoms: C_8  and  C_2 
REMARK    3  A    between atoms: C_7  and  C_5 
ROOT
ATOM      1  N   UNL d   1      52.280  33.580  53.565  0.00  0.00    -0.287 N 
ATOM      2  C   UNL d   1      51.950  34.022  52.947  0.00  0.00     0.187 A 
ATOM      3  N   UNL d   1      52.094  34.832  53.093  0.00  0.00    -0.224 NA
ATOM      4  C   UNL d   1      52.633  34.111  54.104  0.00  0.00     0.083 A 
ATOM      5  C   UNL d   1      52.516  34.878  53.809  0.00  0.00     0.099 A 
ATOM      6  C   UNL d   1      53.045  34.003  54.821  0.00  0.00     0.019 A 
ATOM      7  C   UNL d   1      52.810  35.540  54.229  0.00  0.00     0.021 A 
ATOM      8  C   UNL d   1      53.335  34.654  55.236  0.00  0.00     0.002 A 
ATOM      9  C   UNL d   1      53.217  35.421  54.941  0.00  0.00     0.002 A 
ENDROOT
BRANCH   1  10
ATOM     10  C   UNL d   1      52.180  32.765  53.495  0.00  0.00     0.082 C 
BRANCH  10  11
ATOM     11  C   UNL d   1      52.830  32.278  53.386  0.00  0.00     0.018 A 
ATOM     12  C   UNL d   1      52.737  31.465  53.365  0.00  0.00     0.001 A 
ATOM     13  C   UNL d   1      53.389  30.976  53.257  0.00  0.00     0.000 A 
ATOM     14  C   UNL d   1      51.984  31.141  53.454  0.00  0.00     0.000 C 
ATOM     15  C   UNL d   1      54.141  31.304  53.168  0.00  0.00     0.000 A 
ATOM     16  C   UNL d   1      54.236  32.123  53.189  0.00  0.00     0.000 A 
ATOM     17  C   UNL d   1      53.581  32.608  53.298  0.00  0.00     0.002 A 
ATOM     18  C   UNL d   1      54.988  32.454  53.101  0.00  0.00     0.000 C 
ENDBRANCH  10  11
ENDBRANCH   1  10
BRANCH   2  19
ATOM     19  C   UNL d   1      51.547  34.135  52.243  0.00  0.00     0.230 C 
ATOM     20  O   UNL d   1      51.963  34.207  51.534  0.00  0.00    -0.283 OA
ATOM     21  C   UNL d   1      50.727  34.178  52.239  0.00  0.00     0.049 C 
ENDBRANCH   2  19
TORSDOF 3
ENDMDL
MODEL 8
REMARK VINA RESULT:      -6.5      1.508      2.620
REMARK  3 active torsions:
REMARK  status: ('A' for Active; 'I' for Inactive)
REMARK    1  A    between atoms: C_5  and  N_1 
REMARK    2  A    between atoms: C_8  and  C_2 
REMARK    3  A    between atoms: C_7  and  C_5 
ROOT
ATOM      1  N   UNL d   1      52.745  33.944  53.266  0.00  0.00    -0.287 N 
ATOM      2  C   UNL d   1      52.705  34.380  53.969  0.00  0.00     0.187 A 
ATOM      3  N   UNL d   1      51.952  34.738  54.019  0.00  0.00    -0.224 NA
ATOM      4  C   UNL d   1      52.014  34.025  52.870  0.00  0.00     0.083 A 
ATOM      5  C   UNL d   1      51.531  34.513  53.336  0.00  0.00     0.099 A 
ATOM      6  C   UNL d   1      51.721  33.722  52.149  0.00  0.00     0.019 A 
ATOM      7  C   UNL d   1      50.754  34.701  53.086  0.00  0.00     0.021 A 
ATOM      8  C   UNL d   1      50.956  33.907  51.901  0.00  0.00     0.002 A 
ATOM      9  C   UNL d   1      50.474  34.395  52.368  0.00  0.00     0.002 A 
ENDROOT
BRANCH   1  10
ATOM     10  C   UNL d   1      53.462  33.558  53.141  0.00  0.00     0.082 C 
BRANCH  10  11
ATOM     11  C   UNL d   1      53.517  32.747  53.246  0.00  0.00     0.018 A 
ATOM     12  C   UNL d   1      54.248  32.394  53.351  0.00  0.00     0.001 A 
ATOM     13  C   UNL d   1      54.304  31.581  53.456  0.00  0.00     0.000 A 
ATOM     14  C   UNL d   1      54.927  32.861  53.349  0.00  0.00     0.000 C 
ATOM     15  C   UNL d   1      53.622  31.116  53.457  0.00  0.00     0.000 A 
ATOM     16  C   UNL d   1      52.885  31.471  53.352  0.00  0.00     0.000 A 
ATOM     17  C   UNL d   1      52.833  32.285  53.247  0.00  0.00     0.002 A 
ATOM     18  C   UNL d   1      52.200  31.009  53.352  0.00  0.00     0.000 C 
ENDBRANCH  10  11
ENDBRANCH   1  10
BRANCH   2  19
ATOM     19  C   UNL d   1      52.986  34.681  54.677  0.00  0.00     0.230 C 
ATOM     20  O   UNL d   1      52.934  34.232  55.368  0.00  0.00    -0.283 OA
ATOM     21  C   UNL d   1      53.322  35.430  54.704  0.00  0.00     0.049 C 
ENDBRANCH   2  19
TORSDOF 3
ENDMDL
