MODEL 1
REMARK VINA RESULT:      51.9      0.000      0.000
REMARK  4 active torsions:
REMARK  status: ('A' for Active; 'I' for Inactive)
REMARK    1  A    between atoms: N_7  and  S_1 
REMARK    2  A    between atoms: C_11  and  S_1 
REMARK    3  A    between atoms: C_14  and  N_7 
REMARK    4  A    between atoms: C_13  and  C_14 
ROOT
ATOM      1  N   UNL d   1     -51.133  24.433  33.308  0.00  0.00    -0.304 N 
ATOM      2  C   UNL d   1     -51.941  24.620  33.309  0.00  0.00     0.064 A 
ATOM      3  C   UNL d   1     -50.709  25.145  33.310  0.00  0.00     0.064 A 
ATOM      4  C   UNL d   1     -51.253  25.765  33.311  0.00  0.00     0.018 A 
ATOM      5  C   UNL d   1     -52.008  25.440  33.310  0.00  0.00     0.019 A 
ATOM      6  C   UNL d   1     -49.900  25.301  33.310  0.00  0.00     0.018 A 
ATOM      7  C   UNL d   1     -50.985  26.550  33.313  0.00  0.00     0.003 A 
ATOM      8  C   UNL d   1     -50.177  26.705  33.313  0.00  0.00     0.020 A 
ATOM      9  C   UNL d   1     -49.633  26.080  33.312  0.00  0.00     0.003 A 
ATOM     10  C   UNL d   1     -50.810  23.681  33.307  0.00  0.00     0.099 C 
ATOM     11  C   UNL d   1     -52.559  24.072  33.307  0.00  0.00     0.019 C 
ENDROOT
BRANCH   8  12
ATOM     12  C   UNL d   1     -49.915  27.491  33.315  0.00  0.00     0.112 C 
BRANCH  12  13
ATOM     13  N   UNL d   1     -49.438  27.763  33.937  0.00  0.00    -0.157 NA
BRANCH  13  14
ATOM     14  S   UNL d   1     -49.291  28.569  34.023  0.00  0.00     0.285 S 
ATOM     15  O   UNL d   1     -49.288  29.390  33.944  0.00  0.00    -0.198 OA
ATOM     16  O   UNL d   1     -49.843  28.517  33.405  0.00  0.00    -0.198 OA
BRANCH  14  17
ATOM     17  C   UNL d   1     -48.759  28.835  34.595  0.00  0.00     0.105 A 
ATOM     18  C   UNL d   1     -48.335  29.520  34.459  0.00  0.00     0.013 A 
ATOM     19  C   UNL d   1     -47.801  29.789  35.031  0.00  0.00     0.001 A 
ATOM     20  C   UNL d   1     -47.702  29.364  35.736  0.00  0.00     0.000 A 
ATOM     21  C   UNL d   1     -48.136  28.675  35.862  0.00  0.00     0.001 A 
ATOM     22  C   UNL d   1     -48.664  28.409  35.294  0.00  0.00     0.013 A 
ENDBRANCH  14  17
ENDBRANCH  13  14
ENDBRANCH  12  13
ENDBRANCH   8  12
TORSDOF 4
ENDMDL
MODEL 2
REMARK VINA RESULT:      52.0      0.968      1.522
REMARK  4 active torsions:
REMARK  status: ('A' for Active; 'I' for Inactive)
REMARK    1  A    between atoms: N_7  and  S_1 
REMARK    2  A    between atoms: C_11  and  S_1 
REMARK    3  A    between atoms: C_14  and  N_7 
REMARK    4  A    between atoms: C_13  and  C_14 
ROOT
ATOM      1  N   UNL d   1     -52.557  24.677  33.312  0.00  0.00    -0.304 N 
ATOM      2  C   UNL d   1     -52.174  23.941  33.308  0.00  0.00     0.064 A 
ATOM      3  C   UNL d   1     -51.974  25.266  33.313  0.00  0.00     0.064 A 
ATOM      4  C   UNL d   1     -51.237  24.894  33.309  0.00  0.00     0.018 A 
ATOM      5  C   UNL d   1     -51.363  24.082  33.306  0.00  0.00     0.019 A 
ATOM      6  C   UNL d   1     -52.026  26.088  33.317  0.00  0.00     0.018 A 
ATOM      7  C   UNL d   1     -50.544  25.350  33.309  0.00  0.00     0.003 A 
ATOM      8  C   UNL d   1     -50.596  26.171  33.313  0.00  0.00     0.020 A 
ATOM      9  C   UNL d   1     -51.338  26.541  33.316  0.00  0.00     0.003 A 
ATOM     10  C   UNL d   1     -53.366  24.800  33.315  0.00  0.00     0.099 C 
ATOM     11  C   UNL d   1     -52.549  23.206  33.306  0.00  0.00     0.019 C 
ENDROOT
BRANCH   8  12
ATOM     12  C   UNL d   1     -49.902  26.621  33.312  0.00  0.00     0.112 C 
BRANCH  12  13
ATOM     13  N   UNL d   1     -49.637  26.967  34.019  0.00  0.00    -0.157 NA
BRANCH  13  14
ATOM     14  S   UNL d   1     -48.867  27.255  34.075  0.00  0.00     0.285 S 
ATOM     15  O   UNL d   1     -48.058  27.384  33.984  0.00  0.00    -0.198 OA
ATOM     16  O   UNL d   1     -48.823  26.632  33.528  0.00  0.00    -0.198 OA
BRANCH  14  17
ATOM     17  C   UNL d   1     -48.695  27.888  34.576  0.00  0.00     0.105 A 
ATOM     18  C   UNL d   1     -48.864  27.823  35.373  0.00  0.00     0.013 A 
ATOM     19  C   UNL d   1     -48.693  28.457  35.878  0.00  0.00     0.001 A 
ATOM     20  C   UNL d   1     -48.353  29.148  35.572  0.00  0.00     0.000 A 
ATOM     21  C   UNL d   1     -48.187  29.201  34.767  0.00  0.00     0.001 A 
ATOM     22  C   UNL d   1     -48.357  28.573  34.268  0.00  0.00     0.013 A 
ENDBRANCH  14  17
ENDBRANCH  13  14
ENDBRANCH  12  13
ENDBRANCH   8  12
TORSDOF 4
ENDMDL
