MODEL 1
REMARK VINA RESULT:      44.2      0.000      0.000
REMARK  6 active torsions:
REMARK  status: ('A' for Active; 'I' for Inactive)
REMARK    1  A    between atoms: C_3  and  C_1 
REMARK    2  A    between atoms: C_2  and  C_3 
REMARK    3  A    between atoms: C_4  and  C_2 
REMARK    4  A    between atoms: C_7  and  C_4 
REMARK    5  A    between atoms: O_17  and  C_5 
REMARK    6  A    between atoms: O_20  and  C_13 
ROOT
ATOM      1  C   UNL d   1      58.318  49.589  49.759  0.00  0.00     0.042 C 
ENDROOT
BRANCH   1   2
ATOM      2  C   UNL d   1      57.519  49.470  49.591  0.00  0.00     0.199 C 
ATOM      3  O   UNL d   1      57.212  49.679  48.855  0.00  0.00    -0.286 OA
BRANCH   2   4
ATOM      4  C   UNL d   1      57.024  49.139  50.166  0.00  0.00     0.079 A 
ATOM      5  C   UNL d   1      56.759  48.359  50.084  0.00  0.00     0.199 A 
ATOM      6  C   UNL d   1      56.263  48.029  50.661  0.00  0.00     0.043 A 
ATOM      7  O   UNL d   1      56.986  47.904  49.431  0.00  0.00    -0.286 OA
ATOM      8  C   UNL d   1      56.034  48.476  51.313  0.00  0.00     0.015 A 
ATOM      9  C   UNL d   1      56.298  49.256  51.395  0.00  0.00     0.058 A 
ATOM     10  C   UNL d   1      56.791  49.588  50.824  0.00  0.00     0.018 A 
ATOM     11 CL   UNL d   1      56.069  49.704  52.048  0.00  0.00    -0.082 Cl
ENDBRANCH   2   4
ENDBRANCH   1   2
BRANCH   1  12
ATOM     12  C   UNL d   1      58.757  48.979  50.093  0.00  0.00     0.005 C 
BRANCH  12  13
ATOM     13  C   UNL d   1      59.371  49.152  50.613  0.00  0.00     0.022 A 
ATOM     14  C   UNL d   1      60.062  49.518  50.336  0.00  0.00     0.096 A 
ATOM     15  C   UNL d   1      60.676  49.692  50.856  0.00  0.00     0.048 A 
ATOM     16  C   UNL d   1      60.605  49.503  51.655  0.00  0.00     0.096 A 
ATOM     17  C   UNL d   1      59.913  49.137  51.933  0.00  0.00     0.024 A 
ATOM     18  C   UNL d   1      59.300  48.964  51.408  0.00  0.00     0.004 A 
BRANCH  14  19
ATOM     19  O   UNL d   1      60.132  49.706  49.543  0.00  0.00    -0.328 OA
ATOM     20  C   UNL d   1      60.768  49.418  49.107  0.00  0.00     0.181 C 
ENDBRANCH  14  19
BRANCH  16  21
ATOM     21  O   UNL d   1      61.209  49.672  52.182  0.00  0.00    -0.328 OA
ATOM     22  C   UNL d   1      61.398  49.149  52.792  0.00  0.00     0.181 C 
ENDBRANCH  16  21
ENDBRANCH  12  13
ENDBRANCH   1  12
TORSDOF 6
ENDMDL
