MODEL 1
REMARK VINA RESULT:      52.9      0.000      0.000
REMARK  3 active torsions:
REMARK  status: ('A' for Active; 'I' for Inactive)
REMARK    1  A    between atoms: C_6  and  C_1 
REMARK    2  A    between atoms: O_18  and  C_11 
REMARK    3  A    between atoms: O_19  and  C_13 
ROOT
ATOM      1  C   UNL d   1     -51.249  25.861  33.628  0.00  0.00     0.064 A 
ATOM      2  C   UNL d   1     -51.193  25.042  33.506  0.00  0.00     0.199 A 
ATOM      3  C   UNL d   1     -51.873  24.581  33.466  0.00  0.00     0.062 A 
ATOM      4  C   UNL d   1     -51.991  26.213  33.708  0.00  0.00     0.126 A 
ATOM      5  C   UNL d   1     -52.615  24.933  33.547  0.00  0.00     0.106 A 
ATOM      6  O   UNL d   1     -52.677  25.745  33.667  0.00  0.00    -0.305 OA
ATOM      7  C   UNL d   1     -51.813  23.769  33.346  0.00  0.00     0.009 A 
ATOM      8  C   UNL d   1     -53.297  24.472  33.506  0.00  0.00     0.067 A 
ATOM      9  O   UNL d   1     -50.451  24.690  33.426  0.00  0.00    -0.286 OA
ATOM     10  C   UNL d   1     -53.236  23.660  33.386  0.00  0.00     0.198 A 
ATOM     11  C   UNL d   1     -52.494  23.309  33.306  0.00  0.00     0.042 A 
ATOM     12  O   UNL d   1     -53.923  23.189  33.345  0.00  0.00    -0.286 OA
ENDROOT
BRANCH   1  13
ATOM     13  C   UNL d   1     -50.569  26.322  33.668  0.00  0.00     0.007 A 
ATOM     14  C   UNL d   1     -49.837  25.967  33.816  0.00  0.00     0.026 A 
ATOM     15  C   UNL d   1     -49.155  26.427  33.856  0.00  0.00     0.116 A 
ATOM     16  C   UNL d   1     -49.202  27.244  33.748  0.00  0.00     0.116 A 
ATOM     17  C   UNL d   1     -49.934  27.600  33.600  0.00  0.00     0.026 A 
ATOM     18  C   UNL d   1     -50.615  27.138  33.560  0.00  0.00     0.002 A 
BRANCH  15  19
ATOM     19  O   UNL d   1     -48.428  26.072  34.003  0.00  0.00    -0.326 OA
ATOM     20  C   UNL d   1     -47.762  26.537  34.148  0.00  0.00     0.181 C 
ENDBRANCH  15  19
BRANCH  16  21
ATOM     21  O   UNL d   1     -48.522  27.713  33.787  0.00  0.00    -0.326 OA
ATOM     22  C   UNL d   1     -48.580  28.501  34.044  0.00  0.00     0.181 C 
ENDBRANCH  16  21
ENDBRANCH   1  13
TORSDOF 3
ENDMDL
MODEL 2
REMARK VINA RESULT:      53.5      1.635      3.771
REMARK  3 active torsions:
REMARK  status: ('A' for Active; 'I' for Inactive)
REMARK    1  A    between atoms: C_6  and  C_1 
REMARK    2  A    between atoms: O_18  and  C_11 
REMARK    3  A    between atoms: O_19  and  C_13 
ROOT
ATOM      1  C   UNL d   1     -51.031  26.284  33.364  0.00  0.00     0.064 A 
ATOM      2  C   UNL d   1     -50.595  26.988  33.423  0.00  0.00     0.199 A 
ATOM      3  C   UNL d   1     -50.980  27.714  33.423  0.00  0.00     0.062 A 
ATOM      4  C   UNL d   1     -51.853  26.315  33.307  0.00  0.00     0.126 A 
ATOM      5  C   UNL d   1     -51.803  27.746  33.365  0.00  0.00     0.106 A 
ATOM      6  O   UNL d   1     -52.240  27.051  33.307  0.00  0.00    -0.305 OA
ATOM      7  C   UNL d   1     -50.545  28.411  33.481  0.00  0.00     0.009 A 
ATOM      8  C   UNL d   1     -52.189  28.473  33.365  0.00  0.00     0.067 A 
ATOM      9  O   UNL d   1     -49.772  26.956  33.480  0.00  0.00    -0.286 OA
ATOM     10  C   UNL d   1     -51.753  29.169  33.423  0.00  0.00     0.198 A 
ATOM     11  C   UNL d   1     -50.930  29.137  33.481  0.00  0.00     0.042 A 
ATOM     12  O   UNL d   1     -52.139  29.908  33.424  0.00  0.00    -0.286 OA
ENDROOT
BRANCH   1  13
ATOM     13  C   UNL d   1     -50.645  25.557  33.364  0.00  0.00     0.007 A 
ATOM     14  C   UNL d   1     -51.081  24.856  33.419  0.00  0.00     0.026 A 
ATOM     15  C   UNL d   1     -50.696  24.129  33.419  0.00  0.00     0.116 A 
ATOM     16  C   UNL d   1     -49.873  24.098  33.364  0.00  0.00     0.116 A 
ATOM     17  C   UNL d   1     -49.436  24.798  33.309  0.00  0.00     0.026 A 
ATOM     18  C   UNL d   1     -49.823  25.526  33.310  0.00  0.00     0.002 A 
BRANCH  15  19
ATOM     19  O   UNL d   1     -51.132  23.433  33.473  0.00  0.00    -0.326 OA
ATOM     20  C   UNL d   1     -51.956  23.461  33.471  0.00  0.00     0.181 C 
ENDBRANCH  15  19
BRANCH  16  21
ATOM     21  O   UNL d   1     -49.479  23.371  33.363  0.00  0.00    -0.326 OA
ATOM     22  C   UNL d   1     -48.908  23.212  33.946  0.00  0.00     0.181 C 
ENDBRANCH  16  21
ENDBRANCH   1  13
TORSDOF 3
ENDMDL
