MODEL 1
REMARK VINA RESULT:     103.8      0.000      0.000
REMARK  6 active torsions:
REMARK  status: ('A' for Active; 'I' for Inactive)
REMARK    1  A    between atoms: C_3  and  C_1 
REMARK    2  A    between atoms: S_2  and  C_3 
REMARK    3  A    between atoms: C_8  and  S_2 
REMARK    4  A    between atoms: C_9  and  C_3 
REMARK    5  A    between atoms: N_7  and  C_4 
REMARK    6  A    between atoms: C_25  and  N_16 
ROOT
ATOM      1  C   UNL d   1     -50.642  26.934  35.261  0.00  0.00     0.128 A 
ATOM      2  C   UNL d   1     -50.131  27.229  35.832  0.00  0.00     0.166 A 
ATOM      3  N   UNL d   1     -51.331  26.550  35.482  0.00  0.00    -0.240 NA
ATOM      4  N   UNL d   1     -50.310  27.139  36.624  0.00  0.00    -0.225 NA
ATOM      5  C   UNL d   1     -51.506  26.462  36.277  0.00  0.00     0.099 A 
ATOM      6  C   UNL d   1     -50.998  26.755  36.851  0.00  0.00     0.101 A 
ATOM      7  C   UNL d   1     -51.182  26.662  37.649  0.00  0.00     0.021 A 
ATOM      8  C   UNL d   1     -52.201  26.074  36.497  0.00  0.00     0.021 A 
ATOM      9  C   UNL d   1     -52.384  25.982  37.296  0.00  0.00     0.002 A 
ATOM     10  C   UNL d   1     -51.873  26.277  37.868  0.00  0.00     0.002 A 
ENDROOT
BRANCH   1  11
ATOM     11  C   UNL d   1     -50.466  27.022  34.465  0.00  0.00     0.129 C 
BRANCH  11  12
ATOM     12  S   UNL d   1     -50.886  26.492  33.875  0.00  0.00     0.213 S 
ATOM     13  O   UNL d   1     -51.168  27.266  33.723  0.00  0.00    -0.217 OA
ATOM     14  O   UNL d   1     -51.458  26.870  33.308  0.00  0.00    -0.217 OA
BRANCH  12  15
ATOM     15  C   UNL d   1     -50.856  25.671  33.731  0.00  0.00     0.088 A 
ATOM     16  C   UNL d   1     -51.558  25.242  33.641  0.00  0.00     0.011 A 
ATOM     17  C   UNL d   1     -51.530  24.431  33.500  0.00  0.00     0.001 A 
ATOM     18  C   UNL d   1     -52.225  24.002  33.410  0.00  0.00     0.000 C 
ATOM     19  C   UNL d   1     -50.796  24.046  33.448  0.00  0.00     0.000 A 
ATOM     20  C   UNL d   1     -50.097  24.478  33.538  0.00  0.00     0.001 A 
ATOM     21  C   UNL d   1     -50.766  23.232  33.306  0.00  0.00     0.000 C 
ATOM     22  C   UNL d   1     -50.123  25.292  33.680  0.00  0.00     0.011 A 
ENDBRANCH  12  15
ENDBRANCH  11  12
BRANCH  11  23
ATOM     23  C   UNL d   1     -49.918  27.565  34.064  0.00  0.00     0.135 C 
ATOM     24  N   UNL d   1     -50.068  28.068  33.353  0.00  0.00    -0.146 N 
ENDBRANCH  11  23
ENDBRANCH   1  11
BRANCH   2  25
ATOM     25  N   UNL d   1     -49.432  27.618  35.593  0.00  0.00    -0.285 N 
ATOM     26  C   UNL d   1     -48.918  27.262  35.055  0.00  0.00     0.101 A 
ATOM     27  C   UNL d   1     -48.225  27.659  34.824  0.00  0.00     0.100 A 
ATOM     28  N   UNL d   1     -48.052  28.413  35.135  0.00  0.00    -0.300 N 
ATOM     29  C   UNL d   1     -48.573  28.770  35.677  0.00  0.00     0.100 A 
ATOM     30  C   UNL d   1     -49.260  28.373  35.903  0.00  0.00     0.101 A 
BRANCH  28  31
ATOM     31  C   UNL d   1     -47.351  28.811  34.898  0.00  0.00     0.080 C 
ATOM     32  C   UNL d   1     -47.406  29.588  34.600  0.00  0.00     0.021 C 
ENDBRANCH  28  31
ENDBRANCH   2  25
TORSDOF 6
ENDMDL
