MODEL 1
REMARK VINA RESULT:       6.1      0.000      0.000
REMARK  2 active torsions:
REMARK  status: ('A' for Active; 'I' for Inactive)
REMARK    1  A    between atoms: C_2  and  S_1 
REMARK    2  A    between atoms: C_7  and  C_3 
ROOT
ATOM      1  C   UNL d   1      44.130 -15.452  36.907  0.00  0.00     0.117 A 
ATOM      2  C   UNL d   1      45.401 -14.786  36.919  0.00  0.00     0.076 A 
ATOM      3  C   UNL d   1      44.595 -14.799  37.103  0.00  0.00     0.021 A 
ATOM      4  C   UNL d   1      44.466 -16.099  36.525  0.00  0.00     0.071 A 
ATOM      5  C   UNL d   1      45.738 -15.434  36.536  0.00  0.00     0.065 A 
ATOM      6  C   UNL d   1      45.269 -16.093  36.339  0.00  0.00     0.024 A 
ATOM      7 CL   UNL d   1      46.540 -15.427  36.350  0.00  0.00    -0.082 Cl
ATOM      8 CL   UNL d   1      44.002 -16.751  36.330  0.00  0.00    -0.082 Cl
ENDROOT
BRANCH   1   9
ATOM      9  S   UNL d   1      43.324 -15.457  37.095  0.00  0.00     0.303 S 
ATOM     10  O   UNL d   1      43.139 -15.231  36.331  0.00  0.00    -0.197 OA
ATOM     11  O   UNL d   1      43.503 -15.687  37.878  0.00  0.00    -0.197 OA
ATOM     12  N   UNL d   1      42.521 -15.464  37.292  0.00  0.00    -0.043 N 
ENDBRANCH   1   9
BRANCH   2  13
ATOM     13  C   UNL d   1      45.862 -14.131  37.116  0.00  0.00     0.212 C 
ATOM     14  O   UNL d   1      45.602 -13.595  37.683  0.00  0.00    -0.644 OA
ATOM     15  O   UNL d   1      46.590 -14.016  36.740  0.00  0.00    -0.644 OA
ENDBRANCH   2  13
TORSDOF 2
ENDMDL
MODEL 2
REMARK VINA RESULT:       7.3      1.383      2.653
REMARK  2 active torsions:
REMARK  status: ('A' for Active; 'I' for Inactive)
REMARK    1  A    between atoms: C_2  and  S_1 
REMARK    2  A    between atoms: C_7  and  C_3 
ROOT
ATOM      1  C   UNL d   1      45.359 -14.922  36.895  0.00  0.00     0.117 A 
ATOM      2  C   UNL d   1      44.031 -15.468  36.900  0.00  0.00     0.076 A 
ATOM      3  C   UNL d   1      44.558 -14.857  37.084  0.00  0.00     0.021 A 
ATOM      4  C   UNL d   1      45.641 -15.599  36.520  0.00  0.00     0.071 A 
ATOM      5  C   UNL d   1      44.313 -16.145  36.525  0.00  0.00     0.065 A 
ATOM      6  C   UNL d   1      45.122 -16.211  36.334  0.00  0.00     0.024 A 
ATOM      7 CL   UNL d   1      43.794 -16.756  36.339  0.00  0.00    -0.082 Cl
ATOM      8 CL   UNL d   1      46.440 -15.664  36.331  0.00  0.00    -0.082 Cl
ENDROOT
BRANCH   1   9
ATOM      9  S   UNL d   1      45.879 -14.307  37.083  0.00  0.00     0.303 S 
ATOM     10  O   UNL d   1      45.278 -13.912  37.474  0.00  0.00    -0.197 OA
ATOM     11  O   UNL d   1      46.498 -14.702  36.686  0.00  0.00    -0.197 OA
ATOM     12  N   UNL d   1      46.406 -13.697  37.265  0.00  0.00    -0.043 N 
ENDBRANCH   1   9
BRANCH   2  13
ATOM     13  C   UNL d   1      43.232 -15.399  37.090  0.00  0.00     0.212 C 
ATOM     14  O   UNL d   1      42.998 -15.290  37.872  0.00  0.00    -0.644 OA
ATOM     15  O   UNL d   1      42.664 -15.439  36.490  0.00  0.00    -0.644 OA
ENDBRANCH   2  13
TORSDOF 2
ENDMDL
