MODEL 1
REMARK VINA RESULT:       7.0      0.000      0.000
REMARK  1 active torsions:
REMARK  status: ('A' for Active; 'I' for Inactive)
REMARK       I    between atoms: N_2  and  C_1 
REMARK    1  A    between atoms: C_5  and  N_2 
ROOT
ATOM      1  C   UNL d   1     -55.343-102.874 -38.387  0.00  0.00     0.100 A 
ATOM      2  C   UNL d   1     -55.633-102.869 -36.762  0.00  0.00     0.000 A 
ATOM      3  C   UNL d   1     -54.711-102.865 -37.853  0.00  0.00     0.020 A 
ATOM      4  C   UNL d   1     -56.119-102.880 -38.108  0.00  0.00     0.020 A 
ATOM      5  C   UNL d   1     -54.856-102.863 -37.041  0.00  0.00     0.002 A 
ATOM      6  C   UNL d   1     -56.264-102.877 -37.296  0.00  0.00     0.002 A 
ATOM      7  C   UNL d   1     -55.781-102.866 -35.947  0.00  0.00     0.000 C 
ENDROOT
BRANCH   1   8
ATOM      8  N   UNL d   1     -55.200-102.876 -39.201  0.00  0.00    -0.056 NA
ATOM      9  C   UNL d   1     -54.885-102.212 -39.567  0.00  0.00     0.787 C 
ATOM     10  N   UNL d   1     -54.740-102.207 -40.385  0.00  0.00     0.064 N 
ATOM     11  N   UNL d   1     -54.712-101.541 -39.115  0.00  0.00     0.064 N 
ENDBRANCH   1   8
TORSDOF 1
ENDMDL
