MODEL 1
REMARK VINA RESULT:       2.0      0.000      0.000
REMARK  8 active torsions:
REMARK  status: ('A' for Active; 'I' for Inactive)
REMARK       I    between atoms: C_2  and  N_1 
REMARK    1  A    between atoms: C_3  and  N_1 
REMARK    2  A    between atoms: C_4  and  N_1 
REMARK    3  A    between atoms: C_6  and  C_2 
REMARK    4  A    between atoms: C_5  and  C_4 
REMARK    5  A    between atoms: C_7  and  C_5 
REMARK    6  A    between atoms: O_19  and  C_7 
REMARK    7  A    between atoms: C_9  and  O_11 
REMARK    8  A    between atoms: O_11  and  C_16 
ROOT
ATOM      1  N   UNL d   1      32.551  20.578 -21.862  0.00  0.00    -0.258 N 
ATOM      2  C   UNL d   1      32.519  19.754 -21.846  0.00  0.00     0.266 C 
ATOM      3  O   UNL d   1      32.472  19.356 -21.126  0.00  0.00    -0.267 OA
ENDROOT
BRANCH   1   4
ATOM      4  C   UNL d   1      32.534  21.005 -21.150  0.00  0.00     0.150 A 
ATOM      5  N   UNL d   1      31.821  21.289 -20.853  0.00  0.00    -0.227 NA
ATOM      6  C   UNL d   1      31.809  21.711 -20.148  0.00  0.00     0.101 A 
ATOM      7  C   UNL d   1      32.515  21.851 -19.735  0.00  0.00     0.021 A 
ATOM      8  C   UNL d   1      33.228  21.567 -20.031  0.00  0.00     0.005 A 
ATOM      9  C   UNL d   1      33.241  21.144 -20.737  0.00  0.00     0.037 A 
ENDBRANCH   1   4
BRANCH   1  10
ATOM     10  C   UNL d   1      32.598  20.979 -22.573  0.00  0.00     0.090 C 
BRANCH  10  11
ATOM     11  C   UNL d   1      32.463  21.801 -22.595  0.00  0.00     0.087 C 
BRANCH  11  12
ATOM     12  C   UNL d   1      32.694  22.244 -23.250  0.00  0.00     0.297 C 
ATOM     13  O   UNL d   1      33.241  21.934 -23.786  0.00  0.00    -0.259 OA
BRANCH  12  14
ATOM     14  O   UNL d   1      32.379  22.995 -23.371  0.00  0.00    -0.296 OA
ATOM     15  C   UNL d   1      32.336  23.079 -24.196  0.00  0.00     0.185 C 
ENDBRANCH  12  14
ENDBRANCH  11  12
ENDBRANCH  10  11
ENDBRANCH   1  10
BRANCH   2  16
ATOM     16  C   UNL d   1      32.536  19.330 -22.554  0.00  0.00     0.057 A 
ATOM     17  C   UNL d   1      33.230  19.305 -22.997  0.00  0.00     0.007 A 
ATOM     18  C   UNL d   1      33.241  18.881 -23.704  0.00  0.00     0.025 A 
ATOM     19  C   UNL d   1      32.565  18.486 -23.963  0.00  0.00     0.103 A 
ATOM     20  C   UNL d   1      31.876  18.516 -23.513  0.00  0.00     0.025 A 
ATOM     21  C   UNL d   1      31.851  18.940 -22.800  0.00  0.00     0.007 A 
BRANCH  19  22
ATOM     22  O   UNL d   1      32.577  18.062 -24.669  0.00  0.00    -0.273 OA
BRANCH  22  23
ATOM     23  C   UNL d   1      32.589  17.237 -24.655  0.00  0.00     0.300 C 
ATOM     24  O   UNL d   1      32.015  16.822 -24.234  0.00  0.00    -0.259 OA
ATOM     25  C   UNL d   1      33.182  16.826 -25.067  0.00  0.00     0.074 C 
ENDBRANCH  22  23
ENDBRANCH  19  22
ENDBRANCH   2  16
TORSDOF 8
ENDMDL
MODEL 2
REMARK VINA RESULT:       2.2      2.807      5.390
REMARK  8 active torsions:
REMARK  status: ('A' for Active; 'I' for Inactive)
REMARK       I    between atoms: C_2  and  N_1 
REMARK    1  A    between atoms: C_3  and  N_1 
REMARK    2  A    between atoms: C_4  and  N_1 
REMARK    3  A    between atoms: C_6  and  C_2 
REMARK    4  A    between atoms: C_5  and  C_4 
REMARK    5  A    between atoms: C_7  and  C_5 
REMARK    6  A    between atoms: O_19  and  C_7 
REMARK    7  A    between atoms: C_9  and  O_11 
REMARK    8  A    between atoms: O_11  and  C_16 
ROOT
ATOM      1  N   UNL d   1      30.529  16.981 -24.496  0.00  0.00    -0.258 N 
ATOM      2  C   UNL d   1      30.514  17.767 -24.245  0.00  0.00     0.266 C 
ATOM      3  O   UNL d   1      29.821  18.090 -23.937  0.00  0.00    -0.267 OA
ENDROOT
BRANCH   1   4
ATOM      4  C   UNL d   1      29.844  16.517 -24.436  0.00  0.00     0.150 A 
ATOM      5  N   UNL d   1      29.585  16.074 -25.080  0.00  0.00    -0.227 NA
ATOM      6  C   UNL d   1      28.905  15.616 -25.016  0.00  0.00     0.101 A 
ATOM      7  C   UNL d   1      28.480  15.598 -24.304  0.00  0.00     0.021 A 
ATOM      8  C   UNL d   1      28.738  16.040 -23.659  0.00  0.00     0.005 A 
ATOM      9  C   UNL d   1      29.419  16.500 -23.723  0.00  0.00     0.037 A 
ENDBRANCH   1   4
BRANCH   1  10
ATOM     10  C   UNL d   1      31.214  16.655 -24.802  0.00  0.00     0.090 C 
BRANCH  10  11
ATOM     11  C   UNL d   1      31.435  15.880 -24.589  0.00  0.00     0.087 C 
BRANCH  11  12
ATOM     12  C   UNL d   1      32.178  15.734 -24.266  0.00  0.00     0.297 C 
ATOM     13  O   UNL d   1      32.858  15.856 -24.720  0.00  0.00    -0.259 OA
BRANCH  12  14
ATOM     14  O   UNL d   1      32.244  15.464 -23.491  0.00  0.00    -0.296 OA
ATOM     15  C   UNL d   1      33.057  15.496 -23.321  0.00  0.00     0.185 C 
ENDBRANCH  12  14
ENDBRANCH  11  12
ENDBRANCH  10  11
ENDBRANCH   1  10
BRANCH   2  16
ATOM     16  C   UNL d   1      31.196  18.229 -24.305  0.00  0.00     0.057 A 
ATOM     17  C   UNL d   1      31.434  18.508 -25.043  0.00  0.00     0.007 A 
ATOM     18  C   UNL d   1      32.116  18.968 -25.097  0.00  0.00     0.025 A 
ATOM     19  C   UNL d   1      32.554  19.146 -24.421  0.00  0.00     0.103 A 
ATOM     20  C   UNL d   1      32.308  18.862 -23.688  0.00  0.00     0.025 A 
ATOM     21  C   UNL d   1      31.623  18.398 -23.620  0.00  0.00     0.007 A 
BRANCH  19  22
ATOM     22  O   UNL d   1      33.235  19.606 -24.476  0.00  0.00    -0.273 OA
BRANCH  22  23
ATOM     23  C   UNL d   1      33.218  20.397 -24.243  0.00  0.00     0.300 C 
ATOM     24  O   UNL d   1      33.189  20.592 -23.443  0.00  0.00    -0.259 OA
ATOM     25  C   UNL d   1      33.232  20.997 -24.818  0.00  0.00     0.074 C 
ENDBRANCH  22  23
ENDBRANCH  19  22
ENDBRANCH   2  16
TORSDOF 8
ENDMDL
MODEL 3
REMARK VINA RESULT:       2.5      1.758      4.539
REMARK  8 active torsions:
REMARK  status: ('A' for Active; 'I' for Inactive)
REMARK       I    between atoms: C_2  and  N_1 
REMARK    1  A    between atoms: C_3  and  N_1 
REMARK    2  A    between atoms: C_4  and  N_1 
REMARK    3  A    between atoms: C_6  and  C_2 
REMARK    4  A    between atoms: C_5  and  C_4 
REMARK    5  A    between atoms: C_7  and  C_5 
REMARK    6  A    between atoms: O_19  and  C_7 
REMARK    7  A    between atoms: C_9  and  O_11 
REMARK    8  A    between atoms: O_11  and  C_16 
ROOT
ATOM      1  N   UNL d   1      32.334  17.921 -23.501  0.00  0.00    -0.258 N 
ATOM      2  C   UNL d   1      32.767  18.287 -22.901  0.00  0.00     0.266 C 
ATOM      3  O   UNL d   1      33.241  17.835 -22.400  0.00  0.00    -0.267 OA
ENDROOT
BRANCH   1   4
ATOM      4  C   UNL d   1      32.379  17.098 -23.598  0.00  0.00     0.150 A 
ATOM      5  N   UNL d   1      31.838  16.605 -23.220  0.00  0.00    -0.227 NA
ATOM      6  C   UNL d   1      31.886  15.790 -23.319  0.00  0.00     0.101 A 
ATOM      7  C   UNL d   1      32.479  15.464 -23.800  0.00  0.00     0.021 A 
ATOM      8  C   UNL d   1      33.020  15.955 -24.178  0.00  0.00     0.005 A 
ATOM      9  C   UNL d   1      32.972  16.772 -24.079  0.00  0.00     0.037 A 
ENDBRANCH   1   4
BRANCH   1  10
ATOM     10  C   UNL d   1      31.862  18.363 -24.001  0.00  0.00     0.090 C 
BRANCH  10  11
ATOM     11  C   UNL d   1      31.035  18.256 -23.992  0.00  0.00     0.087 C 
BRANCH  11  12
ATOM     12  C   UNL d   1      30.583  18.448 -24.653  0.00  0.00     0.297 C 
ATOM     13  O   UNL d   1      30.763  19.121 -25.096  0.00  0.00    -0.259 OA
BRANCH  12  14
ATOM     14  O   UNL d   1      29.952  17.967 -24.873  0.00  0.00    -0.296 OA
ATOM     15  C   UNL d   1      29.315  18.489 -24.989  0.00  0.00     0.185 C 
ENDBRANCH  12  14
ENDBRANCH  11  12
ENDBRANCH  10  11
ENDBRANCH   1  10
BRANCH   2  16
ATOM     16  C   UNL d   1      32.722  19.105 -22.804  0.00  0.00     0.057 A 
ATOM     17  C   UNL d   1      33.241  19.592 -23.219  0.00  0.00     0.007 A 
ATOM     18  C   UNL d   1      33.192  20.409 -23.119  0.00  0.00     0.025 A 
ATOM     19  C   UNL d   1      32.629  20.734 -22.610  0.00  0.00     0.103 A 
ATOM     20  C   UNL d   1      32.115  20.238 -22.200  0.00  0.00     0.025 A 
ATOM     21  C   UNL d   1      32.153  19.414 -22.292  0.00  0.00     0.007 A 
BRANCH  19  22
ATOM     22  O   UNL d   1      32.581  21.550 -22.511  0.00  0.00    -0.273 OA
BRANCH  22  23
ATOM     23  C   UNL d   1      32.768  21.889 -21.783  0.00  0.00     0.300 C 
ATOM     24  O   UNL d   1      32.853  22.706 -21.717  0.00  0.00    -0.259 OA
ATOM     25  C   UNL d   1      32.871  21.404 -21.116  0.00  0.00     0.074 C 
ENDBRANCH  22  23
ENDBRANCH  19  22
ENDBRANCH   2  16
TORSDOF 8
ENDMDL
