MODEL 1
REMARK VINA RESULT:      -9.9      0.000      0.000
REMARK  2 active torsions:
REMARK  status: ('A' for Active; 'I' for Inactive)
REMARK    1  A    between atoms: C_6  and  C_1 
REMARK    2  A    between atoms: C_10  and  C_6 
ROOT
ATOM      1  C   UNL d   1      52.908  32.672  53.075  0.00  0.00     0.139 A 
ATOM      2  C   UNL d   1      53.431  31.513  53.489  0.00  0.00     0.064 A 
ATOM      3  C   UNL d   1      53.530  32.333  53.497  0.00  0.00     0.220 A 
ATOM      4  C   UNL d   1      52.747  31.344  53.062  0.00  0.00     0.106 A 
ATOM      5  O   UNL d   1      52.428  32.061  52.808  0.00  0.00    -0.304 OA
ATOM      6  C   UNL d   1      52.498  30.570  52.955  0.00  0.00     0.067 A 
ATOM      7  C   UNL d   1      53.875  30.902  53.815  0.00  0.00     0.009 A 
ATOM      8  O   UNL d   1      54.145  32.750  53.863  0.00  0.00    -0.284 OA
ATOM      9  C   UNL d   1      52.939  29.958  53.279  0.00  0.00     0.198 A 
ATOM     10  C   UNL d   1      53.627  30.120  53.710  0.00  0.00     0.042 A 
ATOM     11  O   UNL d   1      52.689  29.167  53.173  0.00  0.00    -0.286 OA
ENDROOT
BRANCH   1  12
ATOM     12  C   UNL d   1      52.790  33.477  52.945  0.00  0.00     0.028 C 
BRANCH  12  13
ATOM     13  C   UNL d   1      52.017  33.770  52.844  0.00  0.00     0.002 A 
ATOM     14  C   UNL d   1      51.748  33.957  52.088  0.00  0.00     0.001 A 
ATOM     15  C   UNL d   1      50.985  34.246  51.982  0.00  0.00     0.007 A 
ATOM     16  C   UNL d   1      50.484  34.350  52.635  0.00  0.00     0.035 A 
ATOM     17  C   UNL d   1      50.755  34.162  53.395  0.00  0.00     0.007 A 
ATOM     18 BR   UNL d   1      49.722  34.638  52.542  0.00  0.00    -0.049 Br
ATOM     19  C   UNL d   1      51.525  33.871  53.497  0.00  0.00     0.001 A 
ENDBRANCH  12  13
ENDBRANCH   1  12
TORSDOF 2
ENDMDL
MODEL 2
REMARK VINA RESULT:      -9.7      2.065      4.041
REMARK  2 active torsions:
REMARK  status: ('A' for Active; 'I' for Inactive)
REMARK    1  A    between atoms: C_6  and  C_1 
REMARK    2  A    between atoms: C_10  and  C_6 
ROOT
ATOM      1  C   UNL d   1      52.877  32.539  53.065  0.00  0.00     0.139 A 
ATOM      2  C   UNL d   1      52.650  33.812  53.410  0.00  0.00     0.064 A 
ATOM      3  C   UNL d   1      52.485  33.231  52.846  0.00  0.00     0.220 A 
ATOM      4  C   UNL d   1      53.144  33.478  53.979  0.00  0.00     0.106 A 
ATOM      5  O   UNL d   1      53.281  32.694  53.763  0.00  0.00    -0.304 OA
ATOM      6  C   UNL d   1      53.408  33.920  54.618  0.00  0.00     0.067 A 
ATOM      7  C   UNL d   1      52.415  34.597  53.478  0.00  0.00     0.009 A 
ATOM      8  O   UNL d   1      52.010  33.321  52.173  0.00  0.00    -0.284 OA
ATOM      9  C   UNL d   1      53.175  34.703  54.689  0.00  0.00     0.198 A 
ATOM     10  C   UNL d   1      52.679  35.045  54.121  0.00  0.00     0.042 A 
ATOM     11  O   UNL d   1      53.441  35.158  55.338  0.00  0.00    -0.286 OA
ENDROOT
BRANCH   1  12
ATOM     12  C   UNL d   1      52.863  31.823  52.657  0.00  0.00     0.028 C 
BRANCH  12  13
ATOM     13  C   UNL d   1      52.970  31.109  53.074  0.00  0.00     0.002 A 
ATOM     14  C   UNL d   1      52.312  30.667  53.299  0.00  0.00     0.001 A 
ATOM     15  C   UNL d   1      52.412  29.961  53.711  0.00  0.00     0.007 A 
ATOM     16  C   UNL d   1      53.174  29.694  53.901  0.00  0.00     0.035 A 
ATOM     17  C   UNL d   1      53.834  30.138  53.675  0.00  0.00     0.007 A 
ATOM     18 BR   UNL d   1      53.285  28.992  54.311  0.00  0.00    -0.049 Br
ATOM     19  C   UNL d   1      53.730  30.849  53.260  0.00  0.00     0.001 A 
ENDBRANCH  12  13
ENDBRANCH   1  12
TORSDOF 2
ENDMDL
MODEL 3
REMARK VINA RESULT:      -9.6      2.289      2.888
REMARK  2 active torsions:
REMARK  status: ('A' for Active; 'I' for Inactive)
REMARK    1  A    between atoms: C_6  and  C_1 
REMARK    2  A    between atoms: C_10  and  C_6 
ROOT
ATOM      1  C   UNL d   1      53.369  31.679  53.417  0.00  0.00     0.139 A 
ATOM      2  C   UNL d   1      52.910  30.430  53.275  0.00  0.00     0.064 A 
ATOM      3  C   UNL d   1      52.896  31.190  52.950  0.00  0.00     0.220 A 
ATOM      4  C   UNL d   1      53.392  30.449  53.943  0.00  0.00     0.106 A 
ATOM      5  O   UNL d   1      53.673  31.220  54.027  0.00  0.00    -0.304 OA
ATOM      6  C   UNL d   1      53.518  29.774  54.391  0.00  0.00     0.067 A 
ATOM      7  C   UNL d   1      52.547  29.728  53.049  0.00  0.00     0.009 A 
ATOM      8  O   UNL d   1      52.481  31.426  52.274  0.00  0.00    -0.284 OA
ATOM      9  C   UNL d   1      53.157  29.071  54.168  0.00  0.00     0.198 A 
ATOM     10  C   UNL d   1      52.671  29.044  53.498  0.00  0.00     0.042 A 
ATOM     11  O   UNL d   1      53.282  28.380  54.621  0.00  0.00    -0.286 OA
ENDROOT
BRANCH   1  12
ATOM     12  C   UNL d   1      53.510  32.481  53.292  0.00  0.00     0.028 C 
BRANCH  12  13
ATOM     13  C   UNL d   1      53.942  32.916  53.856  0.00  0.00     0.002 A 
ATOM     14  C   UNL d   1      54.760  32.986  53.777  0.00  0.00     0.001 A 
ATOM     15  C   UNL d   1      55.192  33.414  54.331  0.00  0.00     0.007 A 
ATOM     16  C   UNL d   1      54.807  33.777  54.970  0.00  0.00     0.035 A 
ATOM     17  C   UNL d   1      53.986  33.707  55.049  0.00  0.00     0.007 A 
ATOM     18 BR   UNL d   1      55.227  34.206  55.528  0.00  0.00    -0.049 Br
ATOM     19  C   UNL d   1      53.553  33.274  54.489  0.00  0.00     0.001 A 
ENDBRANCH  12  13
ENDBRANCH   1  12
TORSDOF 2
ENDMDL
MODEL 4
REMARK VINA RESULT:      -9.2      1.329      2.407
REMARK  2 active torsions:
REMARK  status: ('A' for Active; 'I' for Inactive)
REMARK    1  A    between atoms: C_6  and  C_1 
REMARK    2  A    between atoms: C_10  and  C_6 
ROOT
ATOM      1  C   UNL d   1      52.785  32.990  53.278  0.00  0.00     0.139 A 
ATOM      2  C   UNL d   1      53.750  32.769  54.178  0.00  0.00     0.064 A 
ATOM      3  C   UNL d   1      53.219  32.403  53.662  0.00  0.00     0.220 A 
ATOM      4  C   UNL d   1      53.644  33.584  54.115  0.00  0.00     0.106 A 
ATOM      5  O   UNL d   1      53.049  33.716  53.559  0.00  0.00    -0.304 OA
ATOM      6  C   UNL d   1      54.094  34.103  54.562  0.00  0.00     0.067 A 
ATOM      7  C   UNL d   1      54.313  32.466  54.696  0.00  0.00     0.009 A 
ATOM      8  O   UNL d   1      53.132  31.588  53.544  0.00  0.00    -0.284 OA
ATOM      9  C   UNL d   1      54.657  33.804  55.079  0.00  0.00     0.198 A 
ATOM     10  C   UNL d   1      54.769  32.986  55.149  0.00  0.00     0.042 A 
ATOM     11  O   UNL d   1      55.118  34.328  55.538  0.00  0.00    -0.286 OA
ENDROOT
BRANCH   1  12
ATOM     12  C   UNL d   1      52.194  32.870  52.716  0.00  0.00     0.028 C 
BRANCH  12  13
ATOM     13  C   UNL d   1      51.531  33.373  52.701  0.00  0.00     0.002 A 
ATOM     14  C   UNL d   1      51.492  33.980  52.145  0.00  0.00     0.001 A 
ATOM     15  C   UNL d   1      50.839  34.480  52.125  0.00  0.00     0.007 A 
ATOM     16  C   UNL d   1      50.218  34.376  52.665  0.00  0.00     0.035 A 
ATOM     17  C   UNL d   1      50.257  33.766  53.224  0.00  0.00     0.007 A 
ATOM     18 BR   UNL d   1      49.562  34.868  52.655  0.00  0.00    -0.049 Br
ATOM     19  C   UNL d   1      50.917  33.264  53.241  0.00  0.00     0.001 A 
ENDBRANCH  12  13
ENDBRANCH   1  12
TORSDOF 2
ENDMDL
MODEL 5
REMARK VINA RESULT:      -9.1      1.846      3.862
REMARK  2 active torsions:
REMARK  status: ('A' for Active; 'I' for Inactive)
REMARK    1  A    between atoms: C_6  and  C_1 
REMARK    2  A    between atoms: C_10  and  C_6 
ROOT
ATOM      1  C   UNL d   1      53.084  32.641  53.125  0.00  0.00     0.139 A 
ATOM      2  C   UNL d   1      52.426  33.800  53.240  0.00  0.00     0.064 A 
ATOM      3  C   UNL d   1      53.164  33.437  53.324  0.00  0.00     0.220 A 
ATOM      4  C   UNL d   1      51.889  33.228  52.989  0.00  0.00     0.106 A 
ATOM      5  O   UNL d   1      52.298  32.515  52.919  0.00  0.00    -0.304 OA
ATOM      6  C   UNL d   1      51.103  33.419  52.855  0.00  0.00     0.067 A 
ATOM      7  C   UNL d   1      52.177  34.575  53.359  0.00  0.00     0.009 A 
ATOM      8  O   UNL d   1      53.867  33.803  53.565  0.00  0.00    -0.284 OA
ATOM      9  C   UNL d   1      50.851  34.191  52.973  0.00  0.00     0.198 A 
ATOM     10  C   UNL d   1      51.385  34.772  53.225  0.00  0.00     0.042 A 
ATOM     11  O   UNL d   1      50.051  34.391  52.838  0.00  0.00    -0.286 OA
ENDROOT
BRANCH   1  12
ATOM     12  C   UNL d   1      53.683  32.075  53.132  0.00  0.00     0.028 C 
BRANCH  12  13
ATOM     13  C   UNL d   1      53.521  31.306  53.409  0.00  0.00     0.002 A 
ATOM     14  C   UNL d   1      53.270  30.727  52.879  0.00  0.00     0.001 A 
ATOM     15  C   UNL d   1      53.109  29.966  53.147  0.00  0.00     0.007 A 
ATOM     16  C   UNL d   1      53.197  29.779  53.950  0.00  0.00     0.035 A 
ATOM     17  C   UNL d   1      53.448  30.362  54.483  0.00  0.00     0.007 A 
ATOM     18 BR   UNL d   1      53.039  29.024  54.229  0.00  0.00    -0.049 Br
ATOM     19  C   UNL d   1      53.610  31.128  54.209  0.00  0.00     0.001 A 
ENDBRANCH  12  13
ENDBRANCH   1  12
TORSDOF 2
ENDMDL
MODEL 6
REMARK VINA RESULT:      -8.4      2.139      4.002
REMARK  2 active torsions:
REMARK  status: ('A' for Active; 'I' for Inactive)
REMARK    1  A    between atoms: C_6  and  C_1 
REMARK    2  A    between atoms: C_10  and  C_6 
ROOT
ATOM      1  C   UNL d   1      52.603  32.839  53.515  0.00  0.00     0.139 A 
ATOM      2  C   UNL d   1      51.613  33.283  52.732  0.00  0.00     0.064 A 
ATOM      3  C   UNL d   1      52.224  32.730  52.790  0.00  0.00     0.220 A 
ATOM      4  C   UNL d   1      51.613  33.735  53.420  0.00  0.00     0.106 A 
ATOM      5  O   UNL d   1      52.224  33.459  53.901  0.00  0.00    -0.304 OA
ATOM      6  C   UNL d   1      51.066  34.336  53.530  0.00  0.00     0.067 A 
ATOM      7  C   UNL d   1      51.059  33.431  52.142  0.00  0.00     0.009 A 
ATOM      8  O   UNL d   1      52.427  32.161  52.224  0.00  0.00    -0.284 OA
ATOM      9  C   UNL d   1      50.512  34.487  52.943  0.00  0.00     0.198 A 
ATOM     10  C   UNL d   1      50.505  34.037  52.248  0.00  0.00     0.042 A 
ATOM     11  O   UNL d   1      49.952  35.098  53.049  0.00  0.00    -0.286 OA
ENDROOT
BRANCH   1  12
ATOM     12  C   UNL d   1      53.243  32.406  53.799  0.00  0.00     0.028 C 
BRANCH  12  13
ATOM     13  C   UNL d   1      53.856  32.796  54.206  0.00  0.00     0.002 A 
ATOM     14  C   UNL d   1      53.837  32.839  55.029  0.00  0.00     0.001 A 
ATOM     15  C   UNL d   1      54.440  33.223  55.436  0.00  0.00     0.007 A 
ATOM     16  C   UNL d   1      55.069  33.569  55.020  0.00  0.00     0.035 A 
ATOM     17  C   UNL d   1      55.089  33.526  54.194  0.00  0.00     0.007 A 
ATOM     18 BR   UNL d   1      55.676  33.954  55.415  0.00  0.00    -0.049 Br
ATOM     19  C   UNL d   1      54.479  33.138  53.787  0.00  0.00     0.001 A 
ENDBRANCH  12  13
ENDBRANCH   1  12
TORSDOF 2
ENDMDL
MODEL 7
REMARK VINA RESULT:      -7.7      1.707      2.340
REMARK  2 active torsions:
REMARK  status: ('A' for Active; 'I' for Inactive)
REMARK    1  A    between atoms: C_6  and  C_1 
REMARK    2  A    between atoms: C_10  and  C_6 
ROOT
ATOM      1  C   UNL d   1      52.907  31.311  53.313  0.00  0.00     0.139 A 
ATOM      2  C   UNL d   1      53.059  29.985  53.417  0.00  0.00     0.064 A 
ATOM      3  C   UNL d   1      52.971  30.609  52.883  0.00  0.00     0.220 A 
ATOM      4  C   UNL d   1      53.049  30.300  54.179  0.00  0.00     0.106 A 
ATOM      5  O   UNL d   1      52.955  31.117  54.110  0.00  0.00    -0.304 OA
ATOM      6  C   UNL d   1      53.125  29.815  54.836  0.00  0.00     0.067 A 
ATOM      7  C   UNL d   1      53.146  29.175  53.307  0.00  0.00     0.009 A 
ATOM      8  O   UNL d   1      52.950  30.550  52.057  0.00  0.00    -0.284 OA
ATOM      9  C   UNL d   1      53.212  29.006  54.730  0.00  0.00     0.198 A 
ATOM     10  C   UNL d   1      53.223  28.682  53.968  0.00  0.00     0.042 A 
ATOM     11  O   UNL d   1      53.290  28.507  55.396  0.00  0.00    -0.286 OA
ENDROOT
BRANCH   1  12
ATOM     12  C   UNL d   1      52.812  32.067  52.999  0.00  0.00     0.028 C 
BRANCH  12  13
ATOM     13  C   UNL d   1      52.980  32.733  53.471  0.00  0.00     0.002 A 
ATOM     14  C   UNL d   1      53.761  32.908  53.665  0.00  0.00     0.001 A 
ATOM     15  C   UNL d   1      53.933  33.564  54.130  0.00  0.00     0.007 A 
ATOM     16  C   UNL d   1      53.321  34.052  54.405  0.00  0.00     0.035 A 
ATOM     17  C   UNL d   1      52.536  33.876  54.210  0.00  0.00     0.007 A 
ATOM     18 BR   UNL d   1      53.480  34.709  54.870  0.00  0.00    -0.049 Br
ATOM     19  C   UNL d   1      52.366  33.213  53.741  0.00  0.00     0.001 A 
ENDBRANCH  12  13
ENDBRANCH   1  12
TORSDOF 2
ENDMDL
MODEL 8
REMARK VINA RESULT:      -7.2      3.034      5.342
REMARK  2 active torsions:
REMARK  status: ('A' for Active; 'I' for Inactive)
REMARK    1  A    between atoms: C_6  and  C_1 
REMARK    2  A    between atoms: C_10  and  C_6 
ROOT
ATOM      1  C   UNL d   1      49.657  34.559  52.252  0.00  0.00     0.139 A 
ATOM      2  C   UNL d   1      48.532  35.274  52.141  0.00  0.00     0.064 A 
ATOM      3  C   UNL d   1      49.049  34.772  51.737  0.00  0.00     0.220 A 
ATOM      4  C   UNL d   1      48.822  35.373  52.906  0.00  0.00     0.106 A 
ATOM      5  O   UNL d   1      49.515  34.931  52.970  0.00  0.00    -0.304 OA
ATOM      6  C   UNL d   1      48.427  35.847  53.448  0.00  0.00     0.067 A 
ATOM      7  C   UNL d   1      47.839  35.653  51.911  0.00  0.00     0.009 A 
ATOM      8  O   UNL d   1      48.974  34.520  50.951  0.00  0.00    -0.284 OA
ATOM      9  C   UNL d   1      47.736  36.226  53.221  0.00  0.00     0.198 A 
ATOM     10  C   UNL d   1      47.439  36.131  52.454  0.00  0.00     0.042 A 
ATOM     11  O   UNL d   1      47.330  36.709  53.769  0.00  0.00    -0.286 OA
ENDROOT
BRANCH   1  12
ATOM     12  C   UNL d   1      50.292  34.063  52.075  0.00  0.00     0.028 C 
BRANCH  12  13
ATOM     13  C   UNL d   1      50.957  34.051  52.577  0.00  0.00     0.002 A 
ATOM     14  C   UNL d   1      50.994  33.503  53.191  0.00  0.00     0.001 A 
ATOM     15  C   UNL d   1      51.649  33.487  53.690  0.00  0.00     0.007 A 
ATOM     16  C   UNL d   1      52.272  34.022  53.576  0.00  0.00     0.035 A 
ATOM     17  C   UNL d   1      52.235  34.573  52.959  0.00  0.00     0.007 A 
ATOM     18 BR   UNL d   1      52.930  34.015  54.067  0.00  0.00    -0.049 Br
ATOM     19  C   UNL d   1      51.574  34.586  52.459  0.00  0.00     0.001 A 
ENDBRANCH  12  13
ENDBRANCH   1  12
TORSDOF 2
ENDMDL
