MODEL 1
REMARK VINA RESULT:      -3.0      0.000      0.000
REMARK  6 active torsions:
REMARK  status: ('A' for Active; 'I' for Inactive)
REMARK    1  A    between atoms: C_11  and  C_3 
REMARK    2  A    between atoms: C_12  and  C_4 
REMARK    3  A    between atoms: C_13  and  C_7 
REMARK    4  A    between atoms: N_15  and  C_11 
REMARK    5  A    between atoms: N_14  and  C_12 
REMARK    6  A    between atoms: O_24  and  C_21 
ROOT
ATOM      1  C   UNL d   1      57.568  -0.810  30.670  0.00  0.00     0.101 A 
ATOM      2  C   UNL d   1      57.906  -0.129  30.345  0.00  0.00     0.111 A 
ATOM      3  C   UNL d   1      58.332  -0.174  29.640  0.00  0.00     0.080 A 
ATOM      4  C   UNL d   1      58.079  -1.577  29.591  0.00  0.00     0.096 A 
ATOM      5  C   UNL d   1      57.141  -0.757  31.381  0.00  0.00     0.203 A 
ATOM      6  C   UNL d   1      57.658  -1.534  30.288  0.00  0.00     0.205 A 
ATOM      7  C   UNL d   1      57.053  -0.029  31.761  0.00  0.00     0.064 A 
ATOM      8  C   UNL d   1      58.416  -0.896  29.266  0.00  0.00     0.203 A 
ATOM      9  O   UNL d   1      57.823   0.608  30.721  0.00  0.00    -0.305 OA
ATOM     10  C   UNL d   1      57.394   0.659  31.433  0.00  0.00     0.126 A 
ATOM     11  O   UNL d   1      56.807  -1.431  31.702  0.00  0.00    -0.286 OA
ATOM     12  O   UNL d   1      57.321  -2.214  30.612  0.00  0.00    -0.286 OA
ATOM     13  O   UNL d   1      58.845  -0.946  28.554  0.00  0.00    -0.286 OA
ENDROOT
BRANCH   7  14
ATOM     14  C   UNL d   1      56.627   0.016  32.467  0.00  0.00     0.005 A 
ATOM     15  C   UNL d   1      56.988   0.343  33.137  0.00  0.00     0.002 A 
ATOM     16  C   UNL d   1      56.563   0.388  33.843  0.00  0.00     0.024 A 
ATOM     17  C   UNL d   1      55.785   0.110  33.881  0.00  0.00     0.094 A 
ATOM     18  C   UNL d   1      55.433  -0.214  33.209  0.00  0.00     0.024 A 
ATOM     19  C   UNL d   1      55.851  -0.263  32.500  0.00  0.00     0.002 A 
BRANCH  17  20
ATOM     20  O   UNL d   1      55.360   0.155  34.587  0.00  0.00    -0.328 OA
ATOM     21  C   UNL d   1      54.694   0.643  34.633  0.00  0.00     0.181 C 
ENDBRANCH  17  20
ENDBRANCH   7  14
BRANCH   3  22
ATOM     22  C   UNL d   1      58.666   0.511  29.322  0.00  0.00     0.085 C 
BRANCH  22  23
ATOM     23  N   UNL d   1      59.494   0.569  29.261  0.00  0.00    -0.302 N 
ATOM     24  C   UNL d   1      59.955   0.612  29.947  0.00  0.00     0.080 A 
ATOM     25  C   UNL d   1      60.771   0.668  29.884  0.00  0.00     0.019 A 
ATOM     26  C   UNL d   1      61.133   0.682  29.136  0.00  0.00     0.003 A 
ATOM     27  C   UNL d   1      60.672   0.639  28.457  0.00  0.00     0.019 A 
ATOM     28  C   UNL d   1      59.851   0.582  28.512  0.00  0.00     0.080 A 
ENDBRANCH  22  23
ENDBRANCH   3  22
BRANCH   4  29
ATOM     29  C   UNL d   1      58.167  -2.304  29.211  0.00  0.00     0.087 C 
BRANCH  29  30
ATOM     30  N   UNL d   1      58.899  -2.687  29.212  0.00  0.00    -0.302 N 
ATOM     31  C   UNL d   1      59.302  -2.806  29.922  0.00  0.00     0.080 A 
ATOM     32  C   UNL d   1      60.034  -3.189  29.923  0.00  0.00     0.019 A 
ATOM     33  C   UNL d   1      60.365  -3.453  29.210  0.00  0.00     0.003 A 
ATOM     34  C   UNL d   1      59.961  -3.333  28.500  0.00  0.00     0.019 A 
ATOM     35  C   UNL d   1      59.229  -2.951  28.499  0.00  0.00     0.080 A 
ENDBRANCH  29  30
ENDBRANCH   4  29
TORSDOF 6
ENDMDL
