MODEL 1
REMARK VINA RESULT:      -2.4      0.000      0.000
REMARK  2 active torsions:
REMARK  status: ('A' for Active; 'I' for Inactive)
REMARK    1  A    between atoms: N_7  and  C_3 
REMARK       I    between atoms: C_8  and  N_7 
REMARK    2  A    between atoms: C_10  and  C_8 
ROOT
ATOM      1  C   UNL d   1      33.075  22.843 -21.587  0.00  0.00     0.343 A 
ATOM      2  N   UNL d   1      33.134  22.212 -22.105  0.00  0.00    -0.241 N 
ATOM      3  C   UNL d   1      33.181  21.444 -21.817  0.00  0.00     0.159 A 
ATOM      4  N   UNL d   1      33.061  22.708 -20.772  0.00  0.00    -0.224 N 
ATOM      5  C   UNL d   1      33.167  21.309 -21.002  0.00  0.00     0.099 A 
ATOM      6  C   UNL d   1      33.107  21.941 -20.468  0.00  0.00     0.271 A 
ATOM      7  O   UNL d   1      33.028  23.616 -21.878  0.00  0.00    -0.245 OA
ATOM      8  O   UNL d   1      33.093  21.807 -19.661  0.00  0.00    -0.266 OA
ATOM      9  C   UNL d   1      33.148  22.347 -22.920  0.00  0.00     0.105 C 
ATOM     10  C   UNL d   1      33.001  23.346 -20.249  0.00  0.00     0.107 C 
ENDROOT
BRANCH   3  11
ATOM     11  N   UNL d   1      33.241  20.805 -22.341  0.00  0.00    -0.190 NA
ATOM     12  C   UNL d   1      32.924  20.073 -22.135  0.00  0.00     0.280 C 
ATOM     13  O   UNL d   1      32.545  19.975 -21.408  0.00  0.00    -0.265 OA
BRANCH  12  14
ATOM     14  C   UNL d   1      32.985  19.438 -22.658  0.00  0.00     0.058 A 
ATOM     15  C   UNL d   1      32.853  19.562 -23.447  0.00  0.00     0.006 A 
ATOM     16  C   UNL d   1      32.912  18.940 -23.967  0.00  0.00     0.012 A 
ATOM     17  C   UNL d   1      33.104  18.183 -23.709  0.00  0.00     0.058 A 
ATOM     18  C   UNL d   1      33.239  18.065 -22.881  0.00  0.00     0.012 A 
ATOM     19 CL   UNL d   1      33.165  17.548 -24.235  0.00  0.00    -0.082 Cl
ATOM     20  C   UNL d   1      33.180  18.687 -22.360  0.00  0.00     0.006 A 
ENDBRANCH  12  14
ENDBRANCH   3  11
TORSDOF 2
ENDMDL
MODEL 2
REMARK VINA RESULT:      -2.2      1.371      2.041
REMARK  2 active torsions:
REMARK  status: ('A' for Active; 'I' for Inactive)
REMARK    1  A    between atoms: N_7  and  C_3 
REMARK       I    between atoms: C_8  and  N_7 
REMARK    2  A    between atoms: C_10  and  C_8 
ROOT
ATOM      1  C   UNL d   1      33.230  21.208 -22.971  0.00  0.00     0.343 A 
ATOM      2  N   UNL d   1      33.234  20.503 -23.387  0.00  0.00    -0.241 N 
ATOM      3  C   UNL d   1      33.236  19.786 -22.985  0.00  0.00     0.159 A 
ATOM      4  N   UNL d   1      33.228  21.200 -22.145  0.00  0.00    -0.224 N 
ATOM      5  C   UNL d   1      33.234  19.778 -22.160  0.00  0.00     0.099 A 
ATOM      6  C   UNL d   1      33.230  20.486 -21.727  0.00  0.00     0.271 A 
ATOM      7  O   UNL d   1      33.228  21.929 -23.376  0.00  0.00    -0.245 OA
ATOM      8  O   UNL d   1      33.229  20.478 -20.909  0.00  0.00    -0.266 OA
ATOM      9  C   UNL d   1      33.236  20.512 -24.213  0.00  0.00     0.105 C 
ATOM     10  C   UNL d   1      33.224  21.912 -21.725  0.00  0.00     0.107 C 
ENDROOT
BRANCH   3  11
ATOM     11  N   UNL d   1      33.240  19.073 -23.406  0.00  0.00    -0.190 NA
ATOM     12  C   UNL d   1      32.611  18.546 -23.330  0.00  0.00     0.280 C 
ATOM     13  O   UNL d   1      31.976  18.729 -22.834  0.00  0.00    -0.265 OA
BRANCH  12  14
ATOM     14  C   UNL d   1      32.617  17.837 -23.749  0.00  0.00     0.058 A 
ATOM     15  C   UNL d   1      32.132  17.753 -24.391  0.00  0.00     0.006 A 
ATOM     16  C   UNL d   1      32.134  17.055 -24.808  0.00  0.00     0.012 A 
ATOM     17  C   UNL d   1      32.620  16.428 -24.592  0.00  0.00     0.058 A 
ATOM     18  C   UNL d   1      33.124  16.527 -23.918  0.00  0.00     0.012 A 
ATOM     19 CL   UNL d   1      32.624  15.717 -25.014  0.00  0.00    -0.082 Cl
ATOM     20  C   UNL d   1      33.122  17.225 -23.501  0.00  0.00     0.006 A 
ENDBRANCH  12  14
ENDBRANCH   3  11
TORSDOF 2
ENDMDL
MODEL 3
REMARK VINA RESULT:      -2.0      2.787      4.974
REMARK  2 active torsions:
REMARK  status: ('A' for Active; 'I' for Inactive)
REMARK    1  A    between atoms: N_7  and  C_3 
REMARK       I    between atoms: C_8  and  N_7 
REMARK    2  A    between atoms: C_10  and  C_8 
ROOT
ATOM      1  C   UNL d   1      31.361  16.835 -24.454  0.00  0.00     0.343 A 
ATOM      2  N   UNL d   1      31.505  17.619 -24.269  0.00  0.00    -0.241 N 
ATOM      3  C   UNL d   1      32.160  17.824 -23.817  0.00  0.00     0.159 A 
ATOM      4  N   UNL d   1      31.876  16.247 -24.187  0.00  0.00    -0.224 N 
ATOM      5  C   UNL d   1      32.675  17.236 -23.550  0.00  0.00     0.099 A 
ATOM      6  C   UNL d   1      32.539  16.437 -23.731  0.00  0.00     0.271 A 
ATOM      7  O   UNL d   1      30.701  16.630 -24.909  0.00  0.00    -0.245 OA
ATOM      8  O   UNL d   1      33.049  15.855 -23.467  0.00  0.00    -0.266 OA
ATOM      9  C   UNL d   1      30.990  18.207 -24.537  0.00  0.00     0.105 C 
ATOM     10  C   UNL d   1      31.731  15.454 -24.374  0.00  0.00     0.107 C 
ENDROOT
BRANCH   3  11
ATOM     11  N   UNL d   1      32.306  18.617 -23.629  0.00  0.00    -0.190 NA
ATOM     12  C   UNL d   1      32.662  18.812 -22.912  0.00  0.00     0.280 C 
ATOM     13  O   UNL d   1      32.873  18.217 -22.379  0.00  0.00    -0.265 OA
BRANCH  12  14
ATOM     14  C   UNL d   1      32.806  19.602 -22.727  0.00  0.00     0.058 A 
ATOM     15  C   UNL d   1      33.004  20.116 -23.319  0.00  0.00     0.006 A 
ATOM     16  C   UNL d   1      33.148  20.897 -23.142  0.00  0.00     0.012 A 
ATOM     17  C   UNL d   1      33.096  21.178 -22.371  0.00  0.00     0.058 A 
ATOM     18  C   UNL d   1      32.887  20.630 -21.760  0.00  0.00     0.012 A 
ATOM     19 CL   UNL d   1      33.241  21.971 -22.188  0.00  0.00    -0.082 Cl
ATOM     20  C   UNL d   1      32.744  19.850 -21.936  0.00  0.00     0.006 A 
ENDBRANCH  12  14
ENDBRANCH   3  11
TORSDOF 2
ENDMDL
MODEL 4
REMARK VINA RESULT:      -1.8      2.244      4.368
REMARK  2 active torsions:
REMARK  status: ('A' for Active; 'I' for Inactive)
REMARK    1  A    between atoms: N_7  and  C_3 
REMARK       I    between atoms: C_8  and  N_7 
REMARK    2  A    between atoms: C_10  and  C_8 
ROOT
ATOM      1  C   UNL d   1      33.138  19.946 -23.426  0.00  0.00     0.343 A 
ATOM      2  N   UNL d   1      33.163  20.309 -22.692  0.00  0.00    -0.241 N 
ATOM      3  C   UNL d   1      33.215  21.127 -22.637  0.00  0.00     0.159 A 
ATOM      4  N   UNL d   1      33.164  20.404 -24.113  0.00  0.00    -0.224 N 
ATOM      5  C   UNL d   1      33.241  21.585 -23.324  0.00  0.00     0.099 A 
ATOM      6  C   UNL d   1      33.215  21.228 -24.073  0.00  0.00     0.271 A 
ATOM      7  O   UNL d   1      33.086  19.122 -23.480  0.00  0.00    -0.245 OA
ATOM      8  O   UNL d   1      33.241  21.681 -24.754  0.00  0.00    -0.266 OA
ATOM      9  C   UNL d   1      33.137  19.851 -22.005  0.00  0.00     0.105 C 
ATOM     10  C   UNL d   1      33.138  20.037 -24.854  0.00  0.00     0.107 C 
ENDROOT
BRANCH   3  11
ATOM     11  N   UNL d   1      33.241  21.494 -21.895  0.00  0.00    -0.190 NA
ATOM     12  C   UNL d   1      32.732  22.121 -21.727  0.00  0.00     0.280 C 
ATOM     13  O   UNL d   1      32.196  22.383 -22.298  0.00  0.00    -0.265 OA
BRANCH  12  14
ATOM     14  C   UNL d   1      32.760  22.485 -20.988  0.00  0.00     0.058 A 
ATOM     15  C   UNL d   1      32.542  22.064 -20.332  0.00  0.00     0.006 A 
ATOM     16  C   UNL d   1      32.568  22.418 -19.600  0.00  0.00     0.012 A 
ATOM     17  C   UNL d   1      32.810  23.199 -19.511  0.00  0.00     0.058 A 
ATOM     18  C   UNL d   1      33.036  23.629 -20.205  0.00  0.00     0.012 A 
ATOM     19 CL   UNL d   1      32.837  23.561 -18.768  0.00  0.00    -0.082 Cl
ATOM     20  C   UNL d   1      33.011  23.276 -20.936  0.00  0.00     0.006 A 
ENDBRANCH  12  14
ENDBRANCH   3  11
TORSDOF 2
ENDMDL
MODEL 5
REMARK VINA RESULT:      -1.2      2.723      4.741
REMARK  2 active torsions:
REMARK  status: ('A' for Active; 'I' for Inactive)
REMARK    1  A    between atoms: N_7  and  C_3 
REMARK       I    between atoms: C_8  and  N_7 
REMARK    2  A    between atoms: C_10  and  C_8 
ROOT
ATOM      1  C   UNL d   1      33.095  21.973 -22.040  0.00  0.00     0.343 A 
ATOM      2  N   UNL d   1      33.153  22.374 -21.329  0.00  0.00    -0.241 N 
ATOM      3  C   UNL d   1      33.181  21.958 -20.621  0.00  0.00     0.159 A 
ATOM      4  N   UNL d   1      33.064  21.147 -22.047  0.00  0.00    -0.224 N 
ATOM      5  C   UNL d   1      33.150  21.133 -20.627  0.00  0.00     0.099 A 
ATOM      6  C   UNL d   1      33.091  20.716 -21.342  0.00  0.00     0.271 A 
ATOM      7  O   UNL d   1      33.067  22.393 -22.752  0.00  0.00    -0.245 OA
ATOM      8  O   UNL d   1      33.061  19.898 -21.349  0.00  0.00    -0.266 OA
ATOM      9  C   UNL d   1      33.184  23.200 -21.323  0.00  0.00     0.105 C 
ATOM     10  C   UNL d   1      33.005  20.742 -22.765  0.00  0.00     0.107 C 
ENDROOT
BRANCH   3  11
ATOM     11  N   UNL d   1      33.241  22.364 -19.901  0.00  0.00    -0.190 NA
ATOM     12  C   UNL d   1      32.824  22.097 -19.242  0.00  0.00     0.280 C 
ATOM     13  O   UNL d   1      32.347  21.425 -19.298  0.00  0.00    -0.265 OA
BRANCH  12  14
ATOM     14  C   UNL d   1      32.884  22.502 -18.527  0.00  0.00     0.058 A 
ATOM     15  C   UNL d   1      33.159  22.112 -17.874  0.00  0.00     0.006 A 
ATOM     16  C   UNL d   1      33.221  22.506 -17.165  0.00  0.00     0.012 A 
ATOM     17  C   UNL d   1      33.009  23.298 -17.097  0.00  0.00     0.058 A 
ATOM     18  C   UNL d   1      32.722  23.696 -17.787  0.00  0.00     0.012 A 
ATOM     19 CL   UNL d   1      33.070  23.702 -16.378  0.00  0.00    -0.082 Cl
ATOM     20  C   UNL d   1      32.660  23.302 -18.495  0.00  0.00     0.006 A 
ENDBRANCH  12  14
ENDBRANCH   3  11
TORSDOF 2
ENDMDL
