MODEL 1
REMARK VINA RESULT:     -10.2      0.000      0.000
REMARK  3 active torsions:
REMARK  status: ('A' for Active; 'I' for Inactive)
REMARK    1  A    between atoms: C_7  and  N_1 
REMARK    2  A    between atoms: C_10  and  C_3 
REMARK    3  A    between atoms: C_8  and  C_7 
ROOT
ATOM      1  N   UNL d   1      52.931  33.453  53.364  0.00  0.00    -0.289 N 
ATOM      2  N   UNL d   1      52.469  34.611  54.066  0.00  0.00    -0.217 NA
ATOM      3  C   UNL d   1      52.370  34.049  53.474  0.00  0.00     0.149 A 
ATOM      4  C   UNL d   1      53.705  33.985  54.454  0.00  0.00     0.044 A 
ATOM      5  C   UNL d   1      53.130  34.586  54.558  0.00  0.00     0.139 A 
ATOM      6  C   UNL d   1      53.606  33.423  53.863  0.00  0.00     0.068 A 
ATOM      7  S   UNL d   1      53.242  35.148  55.160  0.00  0.00    -0.057 SA
ATOM      8  C   UNL d   1      54.374  33.956  54.949  0.00  0.00     0.004 A 
ATOM      9  C   UNL d   1      54.167  32.823  53.749  0.00  0.00     0.018 A 
ATOM     10  C   UNL d   1      54.935  33.352  54.832  0.00  0.00     0.000 A 
ATOM     11  C   UNL d   1      54.836  32.790  54.240  0.00  0.00     0.002 A 
ENDROOT
BRANCH   1  12
ATOM     12  C   UNL d   1      52.833  32.891  52.772  0.00  0.00     0.106 C 
BRANCH  12  13
ATOM     13  C   UNL d   1      52.711  32.098  52.967  0.00  0.00     0.118 A 
ATOM     14  O   UNL d   1      52.261  31.825  53.585  0.00  0.00    -0.304 OA
ATOM     15  C   UNL d   1      52.290  31.007  53.578  0.00  0.00     0.123 A 
ATOM     16  C   UNL d   1      52.766  30.774  52.944  0.00  0.00     0.029 A 
ATOM     17  C   UNL d   1      53.030  31.456  52.561  0.00  0.00     0.028 A 
ENDBRANCH  12  13
ENDBRANCH   1  12
BRANCH   3  18
ATOM     18  C   UNL d   1      51.708  34.073  52.979  0.00  0.00     0.035 A 
ATOM     19  C   UNL d   1      51.789  34.248  52.180  0.00  0.00     0.003 A 
ATOM     20  C   UNL d   1      51.121  34.267  51.702  0.00  0.00     0.000 A 
ATOM     21  C   UNL d   1      50.377  34.115  52.006  0.00  0.00     0.000 A 
ATOM     22  C   UNL d   1      50.294  33.937  52.819  0.00  0.00     0.000 A 
ATOM     23  C   UNL d   1      50.962  33.917  53.300  0.00  0.00     0.003 A 
ENDBRANCH   3  18
TORSDOF 3
ENDMDL
MODEL 2
REMARK VINA RESULT:      -9.9      1.367      3.242
REMARK  3 active torsions:
REMARK  status: ('A' for Active; 'I' for Inactive)
REMARK    1  A    between atoms: C_7  and  N_1 
REMARK    2  A    between atoms: C_10  and  C_3 
REMARK    3  A    between atoms: C_8  and  C_7 
ROOT
ATOM      1  N   UNL d   1      53.114  32.765  53.406  0.00  0.00    -0.289 N 
ATOM      2  N   UNL d   1      51.819  32.212  53.145  0.00  0.00    -0.217 NA
ATOM      3  C   UNL d   1      52.621  32.111  53.298  0.00  0.00     0.149 A 
ATOM      4  C   UNL d   1      51.989  33.640  53.204  0.00  0.00     0.044 A 
ATOM      5  C   UNL d   1      51.498  32.970  53.097  0.00  0.00     0.139 A 
ATOM      6  C   UNL d   1      52.790  33.539  53.357  0.00  0.00     0.068 A 
ATOM      7  S   UNL d   1      50.689  33.087  52.943  0.00  0.00    -0.057 SA
ATOM      8  C   UNL d   1      51.669  34.407  53.157  0.00  0.00     0.004 A 
ATOM      9  C   UNL d   1      53.288  34.192  53.466  0.00  0.00     0.018 A 
ATOM     10  C   UNL d   1      52.171  35.061  53.266  0.00  0.00     0.000 A 
ATOM     11  C   UNL d   1      52.972  34.960  53.419  0.00  0.00     0.002 A 
ENDROOT
BRANCH   1  12
ATOM     12  C   UNL d   1      53.915  32.664  53.559  0.00  0.00     0.106 C 
BRANCH  12  13
ATOM     13  C   UNL d   1      54.236  32.911  54.278  0.00  0.00     0.118 A 
ATOM     14  O   UNL d   1      53.893  32.818  55.008  0.00  0.00    -0.304 OA
ATOM     15  C   UNL d   1      54.395  33.140  55.568  0.00  0.00     0.123 A 
ATOM     16  C   UNL d   1      55.059  33.436  55.174  0.00  0.00     0.029 A 
ATOM     17  C   UNL d   1      54.960  33.293  54.368  0.00  0.00     0.028 A 
ENDBRANCH  12  13
ENDBRANCH   1  12
BRANCH   3  18
ATOM     18  C   UNL d   1      52.946  31.351  53.347  0.00  0.00     0.035 A 
ATOM     19  C   UNL d   1      53.450  31.075  52.759  0.00  0.00     0.003 A 
ATOM     20  C   UNL d   1      53.764  30.318  52.823  0.00  0.00     0.000 A 
ATOM     21  C   UNL d   1      53.586  29.836  53.459  0.00  0.00     0.000 A 
ATOM     22  C   UNL d   1      53.073  30.117  54.056  0.00  0.00     0.000 A 
ATOM     23  C   UNL d   1      52.756  30.876  53.996  0.00  0.00     0.003 A 
ENDBRANCH   3  18
TORSDOF 3
ENDMDL
MODEL 3
REMARK VINA RESULT:      -9.6      1.380      2.454
REMARK  3 active torsions:
REMARK  status: ('A' for Active; 'I' for Inactive)
REMARK    1  A    between atoms: C_7  and  N_1 
REMARK    2  A    between atoms: C_10  and  C_3 
REMARK    3  A    between atoms: C_8  and  C_7 
ROOT
ATOM      1  N   UNL d   1      52.753  33.499  53.133  0.00  0.00    -0.289 N 
ATOM      2  N   UNL d   1      52.006  32.298  52.910  0.00  0.00    -0.217 NA
ATOM      3  C   UNL d   1      52.051  33.119  52.917  0.00  0.00     0.149 A 
ATOM      4  C   UNL d   1      53.377  32.219  53.339  0.00  0.00     0.044 A 
ATOM      5  C   UNL d   1      52.661  31.843  53.118  0.00  0.00     0.139 A 
ATOM      6  C   UNL d   1      53.422  33.039  53.346  0.00  0.00     0.068 A 
ATOM      7  S   UNL d   1      52.629  31.013  53.115  0.00  0.00    -0.057 SA
ATOM      8  C   UNL d   1      54.041  31.763  53.550  0.00  0.00     0.004 A 
ATOM      9  C   UNL d   1      54.124  33.424  53.562  0.00  0.00     0.018 A 
ATOM     10  C   UNL d   1      54.744  32.152  53.766  0.00  0.00     0.000 A 
ATOM     11  C   UNL d   1      54.789  32.973  53.773  0.00  0.00     0.002 A 
ENDROOT
BRANCH   1  12
ATOM     12  C   UNL d   1      52.798  34.320  53.140  0.00  0.00     0.106 C 
BRANCH  12  13
ATOM     13  C   UNL d   1      52.894  34.725  53.853  0.00  0.00     0.118 A 
ATOM     14  O   UNL d   1      52.667  34.457  54.585  0.00  0.00    -0.304 OA
ATOM     15  C   UNL d   1      52.864  35.029  55.136  0.00  0.00     0.123 A 
ATOM     16  C   UNL d   1      53.219  35.659  54.735  0.00  0.00     0.029 A 
ATOM     17  C   UNL d   1      53.238  35.469  53.932  0.00  0.00     0.028 A 
ENDBRANCH  12  13
ENDBRANCH   1  12
BRANCH   3  18
ATOM     18  C   UNL d   1      51.395  33.578  52.708  0.00  0.00     0.035 A 
ATOM     19  C   UNL d   1      51.386  33.996  52.000  0.00  0.00     0.003 A 
ATOM     20  C   UNL d   1      50.726  34.447  51.808  0.00  0.00     0.000 A 
ATOM     21  C   UNL d   1      50.080  34.487  52.306  0.00  0.00     0.000 A 
ATOM     22  C   UNL d   1      50.088  34.062  53.026  0.00  0.00     0.000 A 
ATOM     23  C   UNL d   1      50.748  33.609  53.222  0.00  0.00     0.003 A 
ENDBRANCH   3  18
TORSDOF 3
ENDMDL
MODEL 4
REMARK VINA RESULT:      -9.5      0.959      2.693
REMARK  3 active torsions:
REMARK  status: ('A' for Active; 'I' for Inactive)
REMARK    1  A    between atoms: C_7  and  N_1 
REMARK    2  A    between atoms: C_10  and  C_3 
REMARK    3  A    between atoms: C_8  and  C_7 
ROOT
ATOM      1  N   UNL d   1      53.100  33.107  53.595  0.00  0.00    -0.289 N 
ATOM      2  N   UNL d   1      53.925  32.512  54.602  0.00  0.00    -0.217 NA
ATOM      3  C   UNL d   1      53.444  32.439  53.939  0.00  0.00     0.149 A 
ATOM      4  C   UNL d   1      53.727  33.937  54.589  0.00  0.00     0.044 A 
ATOM      5  C   UNL d   1      54.070  33.254  54.931  0.00  0.00     0.139 A 
ATOM      6  C   UNL d   1      53.245  33.864  53.927  0.00  0.00     0.068 A 
ATOM      7  S   UNL d   1      54.555  33.341  55.601  0.00  0.00    -0.057 SA
ATOM      8  C   UNL d   1      53.871  34.688  54.918  0.00  0.00     0.004 A 
ATOM      9  C   UNL d   1      52.898  34.532  53.578  0.00  0.00     0.018 A 
ATOM     10  C   UNL d   1      53.521  35.356  54.566  0.00  0.00     0.000 A 
ATOM     11  C   UNL d   1      53.040  35.283  53.904  0.00  0.00     0.002 A 
ENDROOT
BRANCH   1  12
ATOM     12  C   UNL d   1      52.619  33.034  52.932  0.00  0.00     0.106 C 
BRANCH  12  13
ATOM     13  C   UNL d   1      51.824  33.253  52.969  0.00  0.00     0.118 A 
ATOM     14  O   UNL d   1      51.316  33.096  53.583  0.00  0.00    -0.304 OA
ATOM     15  C   UNL d   1      50.584  33.410  53.394  0.00  0.00     0.123 A 
ATOM     16  C   UNL d   1      50.644  33.767  52.651  0.00  0.00     0.029 A 
ATOM     17  C   UNL d   1      51.419  33.669  52.384  0.00  0.00     0.028 A 
ENDBRANCH  12  13
ENDBRANCH   1  12
BRANCH   3  18
ATOM     18  C   UNL d   1      53.297  31.696  53.607  0.00  0.00     0.035 A 
ATOM     19  C   UNL d   1      53.580  31.510  52.858  0.00  0.00     0.003 A 
ATOM     20  C   UNL d   1      53.425  30.767  52.543  0.00  0.00     0.000 A 
ATOM     21  C   UNL d   1      52.994  30.210  52.959  0.00  0.00     0.000 A 
ATOM     22  C   UNL d   1      52.706  30.399  53.721  0.00  0.00     0.000 A 
ATOM     23  C   UNL d   1      52.860  31.143  54.040  0.00  0.00     0.003 A 
ENDBRANCH   3  18
TORSDOF 3
ENDMDL
MODEL 5
REMARK VINA RESULT:      -8.2      1.607      2.748
REMARK  3 active torsions:
REMARK  status: ('A' for Active; 'I' for Inactive)
REMARK    1  A    between atoms: C_7  and  N_1 
REMARK    2  A    between atoms: C_10  and  C_3 
REMARK    3  A    between atoms: C_8  and  C_7 
ROOT
ATOM      1  N   UNL d   1      53.056  32.176  53.283  0.00  0.00    -0.289 N 
ATOM      2  N   UNL d   1      51.697  31.743  53.157  0.00  0.00    -0.217 NA
ATOM      3  C   UNL d   1      52.255  32.346  53.171  0.00  0.00     0.149 A 
ATOM      4  C   UNL d   1      52.740  30.775  53.371  0.00  0.00     0.044 A 
ATOM      5  C   UNL d   1      51.931  30.958  53.256  0.00  0.00     0.139 A 
ATOM      6  C   UNL d   1      53.298  31.378  53.384  0.00  0.00     0.068 A 
ATOM      7  S   UNL d   1      51.377  30.338  53.245  0.00  0.00    -0.057 SA
ATOM      8  C   UNL d   1      52.981  29.984  53.471  0.00  0.00     0.004 A 
ATOM      9  C   UNL d   1      54.102  31.212  53.497  0.00  0.00     0.018 A 
ATOM     10  C   UNL d   1      53.788  29.820  53.584  0.00  0.00     0.000 A 
ATOM     11  C   UNL d   1      54.346  30.423  53.597  0.00  0.00     0.002 A 
ENDROOT
BRANCH   1  12
ATOM     12  C   UNL d   1      53.613  32.780  53.296  0.00  0.00     0.106 C 
BRANCH  12  13
ATOM     13  C   UNL d   1      54.009  32.965  53.997  0.00  0.00     0.118 A 
ATOM     14  O   UNL d   1      53.713  32.876  54.747  0.00  0.00    -0.304 OA
ATOM     15  C   UNL d   1      54.284  33.126  55.277  0.00  0.00     0.123 A 
ATOM     16  C   UNL d   1      54.944  33.372  54.844  0.00  0.00     0.029 A 
ATOM     17  C   UNL d   1      54.772  33.272  54.043  0.00  0.00     0.028 A 
ENDBRANCH  12  13
ENDBRANCH   1  12
BRANCH   3  18
ATOM     18  C   UNL d   1      52.023  33.135  53.072  0.00  0.00     0.035 A 
ATOM     19  C   UNL d   1      52.241  33.552  52.398  0.00  0.00     0.003 A 
ATOM     20  C   UNL d   1      52.002  34.334  52.315  0.00  0.00     0.000 A 
ATOM     21  C   UNL d   1      51.553  34.704  52.889  0.00  0.00     0.000 A 
ATOM     22  C   UNL d   1      51.331  34.279  53.574  0.00  0.00     0.000 A 
ATOM     23  C   UNL d   1      51.568  33.495  53.661  0.00  0.00     0.003 A 
ENDBRANCH   3  18
TORSDOF 3
ENDMDL
MODEL 6
REMARK VINA RESULT:      -8.0      1.205      2.894
REMARK  3 active torsions:
REMARK  status: ('A' for Active; 'I' for Inactive)
REMARK    1  A    between atoms: C_7  and  N_1 
REMARK    2  A    between atoms: C_10  and  C_3 
REMARK    3  A    between atoms: C_8  and  C_7 
ROOT
ATOM      1  N   UNL d   1      52.645  33.274  53.704  0.00  0.00    -0.289 N 
ATOM      2  N   UNL d   1      54.070  33.363  53.808  0.00  0.00    -0.217 NA
ATOM      3  C   UNL d   1      53.327  33.702  53.894  0.00  0.00     0.149 A 
ATOM      4  C   UNL d   1      53.462  32.148  53.335  0.00  0.00     0.044 A 
ATOM      5  C   UNL d   1      54.146  32.590  53.531  0.00  0.00     0.139 A 
ATOM      6  C   UNL d   1      52.718  32.487  53.421  0.00  0.00     0.068 A 
ATOM      7  S   UNL d   1      54.892  32.236  53.439  0.00  0.00    -0.057 SA
ATOM      8  C   UNL d   1      53.534  31.367  53.055  0.00  0.00     0.004 A 
ATOM      9  C   UNL d   1      52.033  32.061  53.232  0.00  0.00     0.018 A 
ATOM     10  C   UNL d   1      52.845  30.942  52.866  0.00  0.00     0.000 A 
ATOM     11  C   UNL d   1      52.101  31.281  52.951  0.00  0.00     0.002 A 
ENDROOT
BRANCH   1  12
ATOM     12  C   UNL d   1      51.901  33.613  53.790  0.00  0.00     0.106 C 
BRANCH  12  13
ATOM     13  C   UNL d   1      51.450  33.800  53.125  0.00  0.00     0.118 A 
ATOM     14  O   UNL d   1      51.742  33.984  52.390  0.00  0.00    -0.304 OA
ATOM     15  C   UNL d   1      51.107  34.132  51.894  0.00  0.00     0.123 A 
ATOM     16  C   UNL d   1      50.413  34.035  52.333  0.00  0.00     0.029 A 
ATOM     17  C   UNL d   1      50.627  33.827  53.103  0.00  0.00     0.028 A 
ENDBRANCH  12  13
ENDBRANCH   1  12
BRANCH   3  18
ATOM     18  C   UNL d   1      53.248  34.478  54.172  0.00  0.00     0.035 A 
ATOM     19  C   UNL d   1      53.417  35.116  53.683  0.00  0.00     0.003 A 
ATOM     20  C   UNL d   1      53.334  35.880  53.975  0.00  0.00     0.000 A 
ATOM     21  C   UNL d   1      53.086  36.016  54.742  0.00  0.00     0.000 A 
ATOM     22  C   UNL d   1      52.913  35.367  55.240  0.00  0.00     0.000 A 
ATOM     23  C   UNL d   1      52.996  34.600  54.950  0.00  0.00     0.003 A 
ENDBRANCH   3  18
TORSDOF 3
ENDMDL
MODEL 7
REMARK VINA RESULT:      -7.8      1.625      3.716
REMARK  3 active torsions:
REMARK  status: ('A' for Active; 'I' for Inactive)
REMARK    1  A    between atoms: C_7  and  N_1 
REMARK    2  A    between atoms: C_10  and  C_3 
REMARK    3  A    between atoms: C_8  and  C_7 
ROOT
ATOM      1  N   UNL d   1      53.197  32.631  53.978  0.00  0.00    -0.289 N 
ATOM      2  N   UNL d   1      54.268  31.682  53.925  0.00  0.00    -0.217 NA
ATOM      3  C   UNL d   1      53.980  32.421  54.141  0.00  0.00     0.149 A 
ATOM      4  C   UNL d   1      52.983  31.343  53.372  0.00  0.00     0.044 A 
ATOM      5  C   UNL d   1      53.778  31.140  53.542  0.00  0.00     0.139 A 
ATOM      6  C   UNL d   1      52.695  32.082  53.588  0.00  0.00     0.068 A 
ATOM      7  S   UNL d   1      54.057  30.390  53.317  0.00  0.00    -0.057 SA
ATOM      8  C   UNL d   1      52.485  30.799  52.985  0.00  0.00     0.004 A 
ATOM      9  C   UNL d   1      51.911  32.296  53.426  0.00  0.00     0.018 A 
ATOM     10  C   UNL d   1      51.699  31.017  52.824  0.00  0.00     0.000 A 
ATOM     11  C   UNL d   1      51.410  31.756  53.040  0.00  0.00     0.002 A 
ENDROOT
BRANCH   1  12
ATOM     12  C   UNL d   1      52.909  33.369  54.194  0.00  0.00     0.106 C 
BRANCH  12  13
ATOM     13  C   UNL d   1      52.684  33.914  53.616  0.00  0.00     0.118 A 
ATOM     14  O   UNL d   1      53.032  34.005  52.888  0.00  0.00    -0.304 OA
ATOM     15  C   UNL d   1      52.639  34.603  52.491  0.00  0.00     0.123 A 
ATOM     16  C   UNL d   1      52.038  34.884  52.984  0.00  0.00     0.029 A 
ATOM     17  C   UNL d   1      52.065  34.453  53.688  0.00  0.00     0.028 A 
ENDBRANCH  12  13
ENDBRANCH   1  12
BRANCH   3  18
ATOM     18  C   UNL d   1      54.469  32.966  54.525  0.00  0.00     0.035 A 
ATOM     19  C   UNL d   1      55.075  33.343  54.117  0.00  0.00     0.003 A 
ATOM     20  C   UNL d   1      55.552  33.882  54.514  0.00  0.00     0.000 A 
ATOM     21  C   UNL d   1      55.435  34.050  55.306  0.00  0.00     0.000 A 
ATOM     22  C   UNL d   1      54.819  33.667  55.720  0.00  0.00     0.000 A 
ATOM     23  C   UNL d   1      54.339  33.126  55.326  0.00  0.00     0.003 A 
ENDBRANCH   3  18
TORSDOF 3
ENDMDL
MODEL 8
REMARK VINA RESULT:      -7.6      1.034      3.070
REMARK  3 active torsions:
REMARK  status: ('A' for Active; 'I' for Inactive)
REMARK    1  A    between atoms: C_7  and  N_1 
REMARK    2  A    between atoms: C_10  and  C_3 
REMARK    3  A    between atoms: C_8  and  C_7 
ROOT
ATOM      1  N   UNL d   1      52.909  33.053  53.970  0.00  0.00    -0.289 N 
ATOM      2  N   UNL d   1      53.143  34.434  53.673  0.00  0.00    -0.217 NA
ATOM      3  C   UNL d   1      53.385  33.727  54.018  0.00  0.00     0.149 A 
ATOM      4  C   UNL d   1      51.932  33.799  53.223  0.00  0.00     0.044 A 
ATOM      5  C   UNL d   1      52.421  34.477  53.276  0.00  0.00     0.139 A 
ATOM      6  C   UNL d   1      52.174  33.093  53.567  0.00  0.00     0.068 A 
ATOM      7  S   UNL d   1      52.165  35.185  52.924  0.00  0.00    -0.057 SA
ATOM      8  C   UNL d   1      51.203  33.838  52.823  0.00  0.00     0.004 A 
ATOM      9  C   UNL d   1      51.701  32.414  53.522  0.00  0.00     0.018 A 
ATOM     10  C   UNL d   1      50.730  33.155  52.779  0.00  0.00     0.000 A 
ATOM     11  C   UNL d   1      50.972  32.449  53.123  0.00  0.00     0.002 A 
ENDROOT
BRANCH   1  12
ATOM     12  C   UNL d   1      53.151  32.347  54.315  0.00  0.00     0.106 C 
BRANCH  12  13
ATOM     13  C   UNL d   1      53.325  31.692  53.843  0.00  0.00     0.118 A 
ATOM     14  O   UNL d   1      53.631  31.716  53.091  0.00  0.00    -0.304 OA
ATOM     15  C   UNL d   1      53.718  30.947  52.827  0.00  0.00     0.123 A 
ATOM     16  C   UNL d   1      53.461  30.440  53.428  0.00  0.00     0.029 A 
ATOM     17  C   UNL d   1      53.215  30.906  54.063  0.00  0.00     0.028 A 
ENDBRANCH  12  13
ENDBRANCH   1  12
BRANCH   3  18
ATOM     18  C   UNL d   1      54.108  33.681  54.417  0.00  0.00     0.035 A 
ATOM     19  C   UNL d   1      54.816  33.687  53.999  0.00  0.00     0.003 A 
ATOM     20  C   UNL d   1      55.526  33.640  54.411  0.00  0.00     0.000 A 
ATOM     21  C   UNL d   1      55.541  33.588  55.227  0.00  0.00     0.000 A 
ATOM     22  C   UNL d   1      54.821  33.582  55.652  0.00  0.00     0.000 A 
ATOM     23  C   UNL d   1      54.107  33.629  55.242  0.00  0.00     0.003 A 
ENDBRANCH   3  18
TORSDOF 3
ENDMDL
