MODEL 1
REMARK VINA RESULT:      -2.6      0.000      0.000
REMARK  5 active torsions:
REMARK  status: ('A' for Active; 'I' for Inactive)
REMARK    1  A    between atoms: C_8  and  C_1 
REMARK    2  A    between atoms: C_7  and  O_11 
REMARK    3  A    between atoms: C_9  and  C_7 
REMARK    4  A    between atoms: O_11  and  C_15 
REMARK    5  A    between atoms: O_23  and  C_18 
ROOT
ATOM      1  C   UNL d   1      32.766  17.768 -23.664  0.00  0.00     0.064 A 
ATOM      2  C   UNL d   1      32.662  18.527 -23.977  0.00  0.00     0.199 A 
ATOM      3  C   UNL d   1      33.014  17.676 -22.882  0.00  0.00     0.103 A 
ATOM      4  C   UNL d   1      32.806  19.188 -23.509  0.00  0.00     0.062 A 
ATOM      5  C   UNL d   1      33.054  19.096 -22.727  0.00  0.00     0.105 A 
ATOM      6  O   UNL d   1      33.158  18.342 -22.414  0.00  0.00    -0.307 OA
ATOM      7  C   UNL d   1      33.197  19.758 -22.259  0.00  0.00     0.050 A 
ATOM      8  C   UNL d   1      32.701  19.943 -23.822  0.00  0.00     0.007 A 
ATOM      9  O   UNL d   1      32.414  18.619 -24.759  0.00  0.00    -0.286 OA
ATOM     10  C   UNL d   1      33.091  20.521 -22.579  0.00  0.00     0.105 A 
ATOM     11  C   UNL d   1      32.845  20.612 -23.353  0.00  0.00     0.025 A 
ATOM     12  C   UNL d   1      33.118  16.921 -22.570  0.00  0.00     0.027 C 
ENDROOT
BRANCH   1  13
ATOM     13  C   UNL d   1      32.620  17.107 -24.140  0.00  0.00     0.027 A 
ATOM     14  C   UNL d   1      31.872  16.761 -24.159  0.00  0.00     0.094 A 
ATOM     15  C   UNL d   1      31.733  16.104 -24.635  0.00  0.00     0.024 A 
ATOM     16  C   UNL d   1      32.346  15.786 -25.097  0.00  0.00     0.002 A 
ATOM     17  C   UNL d   1      33.102  16.136 -25.078  0.00  0.00     0.000 A 
ATOM     18  C   UNL d   1      33.241  16.793 -24.602  0.00  0.00     0.002 A 
BRANCH  14  19
ATOM     19  O   UNL d   1      31.269  17.076 -23.702  0.00  0.00    -0.328 OA
ATOM     20  C   UNL d   1      30.519  16.732 -23.724  0.00  0.00     0.181 C 
ENDBRANCH  14  19
ENDBRANCH   1  13
BRANCH  10  21
ATOM     21  O   UNL d   1      33.237  21.186 -22.103  0.00  0.00    -0.271 OA
BRANCH  21  22
ATOM     22  C   UNL d   1      32.739  21.338 -21.460  0.00  0.00     0.323 C 
ATOM     23  O   UNL d   1      32.415  20.716 -21.024  0.00  0.00    -0.257 OA
BRANCH  22  24
ATOM     24  C   UNL d   1      32.564  22.122 -21.252  0.00  0.00     0.163 A 
ATOM     25  O   UNL d   1      31.910  22.369 -20.814  0.00  0.00    -0.300 OA
ATOM     26  C   UNL d   1      31.957  23.191 -20.739  0.00  0.00     0.123 A 
ATOM     27  C   UNL d   1      32.633  23.450 -21.127  0.00  0.00     0.029 A 
ATOM     28  C   UNL d   1      33.013  22.787 -21.448  0.00  0.00     0.032 A 
ENDBRANCH  22  24
ENDBRANCH  21  22
ENDBRANCH  10  21
TORSDOF 5
ENDMDL
MODEL 2
REMARK VINA RESULT:      -0.3      0.943      5.428
REMARK  5 active torsions:
REMARK  status: ('A' for Active; 'I' for Inactive)
REMARK    1  A    between atoms: C_8  and  C_1 
REMARK    2  A    between atoms: C_7  and  O_11 
REMARK    3  A    between atoms: C_9  and  C_7 
REMARK    4  A    between atoms: O_11  and  C_15 
REMARK    5  A    between atoms: O_23  and  C_18 
ROOT
ATOM      1  C   UNL d   1      32.695  21.604 -21.394  0.00  0.00     0.064 A 
ATOM      2  C   UNL d   1      32.967  21.609 -22.176  0.00  0.00     0.199 A 
ATOM      3  C   UNL d   1      32.422  20.901 -21.059  0.00  0.00     0.103 A 
ATOM      4  C   UNL d   1      32.965  20.914 -22.617  0.00  0.00     0.062 A 
ATOM      5  C   UNL d   1      32.692  20.212 -22.281  0.00  0.00     0.105 A 
ATOM      6  O   UNL d   1      32.421  20.205 -21.504  0.00  0.00    -0.307 OA
ATOM      7  C   UNL d   1      32.691  19.517 -22.723  0.00  0.00     0.050 A 
ATOM      8  C   UNL d   1      33.237  20.922 -23.395  0.00  0.00     0.007 A 
ATOM      9  O   UNL d   1      33.240  22.312 -22.511  0.00  0.00    -0.286 OA
ATOM     10  C   UNL d   1      32.966  19.528 -23.510  0.00  0.00     0.105 A 
ATOM     11  C   UNL d   1      33.236  20.223 -23.842  0.00  0.00     0.025 A 
ATOM     12  C   UNL d   1      32.151  20.894 -20.281  0.00  0.00     0.027 C 
ENDROOT
BRANCH   1  13
ATOM     13  C   UNL d   1      32.700  22.306 -20.956  0.00  0.00     0.027 A 
ATOM     14  C   UNL d   1      32.190  22.925 -21.150  0.00  0.00     0.094 A 
ATOM     15  C   UNL d   1      32.200  23.620 -20.710  0.00  0.00     0.024 A 
ATOM     16  C   UNL d   1      32.722  23.702 -20.069  0.00  0.00     0.002 A 
ATOM     17  C   UNL d   1      33.236  23.076 -19.873  0.00  0.00     0.000 A 
ATOM     18  C   UNL d   1      33.227  22.381 -20.313  0.00  0.00     0.002 A 
BRANCH  14  19
ATOM     19  O   UNL d   1      31.677  22.842 -21.783  0.00  0.00    -0.328 OA
ATOM     20  C   UNL d   1      31.169  23.462 -21.979  0.00  0.00     0.181 C 
ENDBRANCH  14  19
ENDBRANCH   1  13
BRANCH  10  21
ATOM     21  O   UNL d   1      32.962  18.824 -23.952  0.00  0.00    -0.271 OA
BRANCH  21  22
ATOM     22  C   UNL d   1      32.264  18.589 -24.329  0.00  0.00     0.323 C 
ATOM     23  O   UNL d   1      31.731  19.152 -24.613  0.00  0.00    -0.257 OA
BRANCH  22  24
ATOM     24  C   UNL d   1      32.099  17.781 -24.422  0.00  0.00     0.163 A 
ATOM     25  O   UNL d   1      31.527  17.356 -24.008  0.00  0.00    -0.300 OA
ATOM     26  C   UNL d   1      31.554  16.575 -24.275  0.00  0.00     0.123 A 
ATOM     27  C   UNL d   1      32.138  16.516 -24.850  0.00  0.00     0.029 A 
ATOM     28  C   UNL d   1      32.480  17.266 -24.943  0.00  0.00     0.032 A 
ENDBRANCH  22  24
ENDBRANCH  21  22
ENDBRANCH  10  21
TORSDOF 5
ENDMDL
