MODEL 1
REMARK VINA RESULT:      39.9      0.000      0.000
REMARK  3 active torsions:
REMARK  status: ('A' for Active; 'I' for Inactive)
REMARK    1  A    between atoms: C_8  and  C_1 
REMARK       I    between atoms: C_5  and  N_7 
REMARK    2  A    between atoms: C_10  and  C_5 
REMARK    3  A    between atoms: N_7  and  C_15 
ROOT
ATOM      1  C   UNL d   1      46.003 -18.284  40.880  0.00  0.00     0.024 A 
ATOM      2  C   UNL d   1      46.644 -18.102  40.408  0.00  0.00     0.004 A 
ATOM      3  C   UNL d   1      45.240 -18.082  40.645  0.00  0.00     0.004 A 
ATOM      4  C   UNL d   1      45.764 -17.508  39.449  0.00  0.00     0.085 A 
ATOM      5  C   UNL d   1      45.116 -17.693  39.928  0.00  0.00     0.019 A 
ATOM      6  C   UNL d   1      46.528 -17.713  39.690  0.00  0.00     0.019 A 
ENDROOT
BRANCH   1   7
ATOM      7  C   UNL d   1      46.123 -18.675  41.601  0.00  0.00     0.112 A 
ATOM      8  S   UNL d   1      46.383 -18.317  42.312  0.00  0.00    -0.047 SA
ATOM      9  C   UNL d   1      46.427 -18.912  42.893  0.00  0.00     0.130 A 
ATOM     10  N   UNL d   1      46.646 -18.891  43.688  0.00  0.00    -0.236 NA
ATOM     11  C   UNL d   1      46.196 -19.633  42.545  0.00  0.00     0.106 A 
ATOM     12  C   UNL d   1      46.636 -19.585  44.140  0.00  0.00     0.100 A 
ATOM     13  C   UNL d   1      46.403 -20.307  43.787  0.00  0.00     0.022 A 
ATOM     14  C   UNL d   1      46.185 -20.324  42.993  0.00  0.00     0.023 A 
ATOM     15  N   UNL d   1      46.009 -19.474  41.739  0.00  0.00    -0.237 NA
ENDBRANCH   1   7
BRANCH   4  16
ATOM     16  N   UNL d   1      45.648 -17.117  38.727  0.00  0.00    -0.206 NA
ATOM     17  C   UNL d   1      44.921 -16.764  38.568  0.00  0.00     0.302 C 
ATOM     18  O   UNL d   1      44.309 -16.794  39.118  0.00  0.00    -0.263 OA
BRANCH  17  19
ATOM     19  C   UNL d   1      44.806 -16.377  37.853  0.00  0.00     0.158 A 
ATOM     20  O   UNL d   1      45.390 -16.023  37.388  0.00  0.00    -0.300 OA
ATOM     21  C   UNL d   1      45.022 -15.704  36.726  0.00  0.00     0.123 A 
ATOM     22  C   UNL d   1      44.209 -15.857  36.774  0.00  0.00     0.029 A 
ATOM     23  C   UNL d   1      44.072 -16.273  37.471  0.00  0.00     0.032 A 
ENDBRANCH  17  19
ENDBRANCH   4  16
TORSDOF 3
ENDMDL
