MODEL 1
REMARK VINA RESULT:      -7.6      0.000      0.000
REMARK  2 active torsions:
REMARK  status: ('A' for Active; 'I' for Inactive)
REMARK    1  A    between atoms: N_2  and  S_1 
REMARK    2  A    between atoms: C_3  and  S_1 
ROOT
ATOM      1  S   UNL d   1     -48.463  13.865  22.770  0.00  0.00     0.272 S 
ATOM      2  O   UNL d   1     -48.378  13.756  21.956  0.00  0.00    -0.200 OA
ATOM      3  O   UNL d   1     -48.552  13.976  23.581  0.00  0.00    -0.200 OA
ENDROOT
BRANCH   1   4
ATOM      4  N   UNL d   1     -49.151  14.301  22.639  0.00  0.00    -0.225 N 
ATOM      5  C   UNL d   1     -49.272  15.092  23.061  0.00  0.00     0.118 A 
ATOM      6  C   UNL d   1     -50.029  15.572  22.917  0.00  0.00     0.142 A 
ATOM      7  O   UNL d   1     -50.664  15.260  22.353  0.00  0.00    -0.300 OA
ATOM      8  C   UNL d   1     -50.542  14.468  21.931  0.00  0.00     0.142 A 
ATOM      9  C   UNL d   1     -49.785  13.988  22.074  0.00  0.00     0.118 A 
ENDBRANCH   1   4
BRANCH   1  10
ATOM     10  C   UNL d   1     -47.776  13.430  22.904  0.00  0.00     0.104 A 
ATOM     11  C   UNL d   1     -47.824  12.676  23.232  0.00  0.00     0.015 A 
ATOM     12  C   UNL d   1     -47.136  12.235  23.369  0.00  0.00     0.028 A 
ATOM     13  C   UNL d   1     -47.180  11.479  23.698  0.00  0.00     0.002 C 
ATOM     14  C   UNL d   1     -46.402  12.558  23.173  0.00  0.00     0.140 A 
ATOM     15  C   UNL d   1     -46.358  13.313  22.844  0.00  0.00     0.030 A 
ATOM     16  F   UNL d   1     -45.712  12.126  23.306  0.00  0.00    -0.204 F 
ATOM     17  C   UNL d   1     -47.042  13.752  22.708  0.00  0.00     0.015 A 
ENDBRANCH   1  10
TORSDOF 2
ENDMDL
MODEL 2
REMARK VINA RESULT:      -7.2      1.905      3.735
REMARK  2 active torsions:
REMARK  status: ('A' for Active; 'I' for Inactive)
REMARK    1  A    between atoms: N_2  and  S_1 
REMARK    2  A    between atoms: C_3  and  S_1 
ROOT
ATOM      1  S   UNL d   1     -48.153  13.053  22.537  0.00  0.00     0.272 S 
ATOM      2  O   UNL d   1     -47.796  13.205  21.809  0.00  0.00    -0.200 OA
ATOM      3  O   UNL d   1     -48.506  12.899  23.266  0.00  0.00    -0.200 OA
ENDROOT
BRANCH   1   4
ATOM      4  N   UNL d   1     -47.428  12.803  22.841  0.00  0.00    -0.225 N 
ATOM      5  C   UNL d   1     -47.386  12.064  23.361  0.00  0.00     0.118 A 
ATOM      6  C   UNL d   1     -46.589  11.789  23.695  0.00  0.00     0.142 A 
ATOM      7  O   UNL d   1     -45.834  12.253  23.508  0.00  0.00    -0.300 OA
ATOM      8  C   UNL d   1     -45.877  12.992  22.987  0.00  0.00     0.142 A 
ATOM      9  C   UNL d   1     -46.674  13.267  22.653  0.00  0.00     0.118 A 
ENDBRANCH   1   4
BRANCH   1  10
ATOM     10  C   UNL d   1     -48.879  13.302  22.237  0.00  0.00     0.104 A 
ATOM     11  C   UNL d   1     -49.217  14.002  22.507  0.00  0.00     0.015 A 
ATOM     12  C   UNL d   1     -49.948  14.257  22.208  0.00  0.00     0.028 A 
ATOM     13  C   UNL d   1     -50.289  14.959  22.476  0.00  0.00     0.002 C 
ATOM     14  C   UNL d   1     -50.332  13.801  21.638  0.00  0.00     0.140 A 
ATOM     15  C   UNL d   1     -49.991  13.100  21.370  0.00  0.00     0.030 A 
ATOM     16  F   UNL d   1     -51.059  14.047  21.335  0.00  0.00    -0.204 F 
ATOM     17  C   UNL d   1     -49.265  12.847  21.667  0.00  0.00     0.015 A 
ENDBRANCH   1  10
TORSDOF 2
ENDMDL
MODEL 3
REMARK VINA RESULT:      -7.2      2.072      3.410
REMARK  2 active torsions:
REMARK  status: ('A' for Active; 'I' for Inactive)
REMARK    1  A    between atoms: N_2  and  S_1 
REMARK    2  A    between atoms: C_3  and  S_1 
ROOT
ATOM      1  S   UNL d   1     -48.016  12.906  22.900  0.00  0.00     0.272 S 
ATOM      2  O   UNL d   1     -48.222  13.553  23.369  0.00  0.00    -0.200 OA
ATOM      3  O   UNL d   1     -47.805  12.263  22.430  0.00  0.00    -0.200 OA
ENDROOT
BRANCH   1   4
ATOM      4  N   UNL d   1     -47.252  13.208  22.820  0.00  0.00    -0.225 N 
ATOM      5  C   UNL d   1     -47.111  14.100  22.864  0.00  0.00     0.118 A 
ATOM      6  C   UNL d   1     -46.271  14.432  22.776  0.00  0.00     0.142 A 
ATOM      7  O   UNL d   1     -45.573  13.871  22.645  0.00  0.00    -0.300 OA
ATOM      8  C   UNL d   1     -45.715  12.978  22.601  0.00  0.00     0.142 A 
ATOM      9  C   UNL d   1     -46.555  12.646  22.688  0.00  0.00     0.118 A 
ENDBRANCH   1   4
BRANCH   1  10
ATOM     10  C   UNL d   1     -48.778  12.602  22.977  0.00  0.00     0.104 A 
ATOM     11  C   UNL d   1     -49.351  12.779  22.413  0.00  0.00     0.015 A 
ATOM     12  C   UNL d   1     -50.119  12.475  22.486  0.00  0.00     0.028 A 
ATOM     13  C   UNL d   1     -50.695  12.650  21.922  0.00  0.00     0.002 C 
ATOM     14  C   UNL d   1     -50.303  11.993  23.131  0.00  0.00     0.140 A 
ATOM     15  C   UNL d   1     -49.726  11.819  23.694  0.00  0.00     0.030 A 
ATOM     16  F   UNL d   1     -51.064  11.687  23.212  0.00  0.00    -0.204 F 
ATOM     17  C   UNL d   1     -48.963  12.121  23.621  0.00  0.00     0.015 A 
ENDBRANCH   1  10
TORSDOF 2
ENDMDL
