MODEL 1
REMARK VINA RESULT:      -5.6      0.000      0.000
REMARK  3 active torsions:
REMARK  status: ('A' for Active; 'I' for Inactive)
REMARK       I    between atoms: N_2  and  C_1 
REMARK    1  A    between atoms: C_8  and  C_1 
REMARK    2  A    between atoms: C_6  and  N_2 
REMARK    3  A    between atoms: N_4  and  C_8 
ROOT
ATOM      1  N   UNL d   1     -42.596-120.900 -54.208  0.00  0.00    -0.191 NA
ATOM      2  C   UNL d   1     -42.237-121.612 -54.198  0.00  0.00     0.102 C 
ATOM      3  C   UNL d   1     -41.533-122.625 -53.483  0.00  0.00     0.094 A 
ATOM      4  C   UNL d   1     -41.870-122.343 -54.191  0.00  0.00     0.086 A 
ATOM      5  C   UNL d   1     -41.826-122.809 -54.876  0.00  0.00     0.012 A 
ATOM      6  C   UNL d   1     -41.166-123.355 -53.471  0.00  0.00     0.020 A 
ATOM      7  C   UNL d   1     -41.451-123.548 -54.858  0.00  0.00     0.001 A 
ATOM      8  C   UNL d   1     -41.124-123.817 -54.157  0.00  0.00     0.002 A 
ENDROOT
BRANCH   3   9
ATOM      9  N   UNL d   1     -41.575-122.166 -52.801  0.00  0.00    -0.206 NA
ATOM     10  C   UNL d   1     -41.389-122.520 -52.093  0.00  0.00     0.297 C 
ATOM     11  O   UNL d   1     -41.165-123.319 -52.068  0.00  0.00    -0.264 OA
BRANCH  10  12
ATOM     12  C   UNL d   1     -41.416-122.096 -51.374  0.00  0.00     0.144 C 
BRANCH  12  13
ATOM     13  N   UNL d   1     -41.691-122.432 -50.687  0.00  0.00    -0.299 N 
ATOM     14  C   UNL d   1     -41.214-122.913 -50.238  0.00  0.00     0.080 A 
ATOM     15  C   UNL d   1     -41.498-123.250 -49.541  0.00  0.00     0.019 A 
ATOM     16  C   UNL d   1     -42.261-123.099 -49.302  0.00  0.00     0.003 A 
ATOM     17  C   UNL d   1     -42.735-122.614 -49.758  0.00  0.00     0.019 A 
ATOM     18  C   UNL d   1     -42.585-123.441 -48.574  0.00  0.00     0.000 C 
ATOM     19  C   UNL d   1     -42.448-122.277 -50.456  0.00  0.00     0.080 A 
ENDBRANCH  12  13
ENDBRANCH  10  12
ENDBRANCH   3   9
TORSDOF 3
ENDMDL
MODEL 2
REMARK VINA RESULT:      -4.1      0.741      4.031
REMARK  3 active torsions:
REMARK  status: ('A' for Active; 'I' for Inactive)
REMARK       I    between atoms: N_2  and  C_1 
REMARK    1  A    between atoms: C_8  and  C_1 
REMARK    2  A    between atoms: C_6  and  N_2 
REMARK    3  A    between atoms: N_4  and  C_8 
ROOT
ATOM      1  N   UNL d   1     -43.846-121.850 -50.422  0.00  0.00    -0.191 NA
ATOM      2  C   UNL d   1     -43.229-122.312 -50.218  0.00  0.00     0.102 C 
ATOM      3  C   UNL d   1     -41.877-122.718 -50.416  0.00  0.00     0.094 A 
ATOM      4  C   UNL d   1     -42.599-122.787 -50.005  0.00  0.00     0.086 A 
ATOM      5  C   UNL d   1     -42.664-123.338 -49.388  0.00  0.00     0.012 A 
ATOM      6  C   UNL d   1     -41.244-123.191 -50.207  0.00  0.00     0.020 A 
ATOM      7  C   UNL d   1     -42.018-123.815 -49.181  0.00  0.00     0.001 A 
ATOM      8  C   UNL d   1     -41.313-123.740 -49.590  0.00  0.00     0.002 A 
ENDROOT
BRANCH   3   9
ATOM      9  N   UNL d   1     -41.808-122.173 -51.029  0.00  0.00    -0.206 NA
ATOM     10  C   UNL d   1     -41.429-122.411 -51.708  0.00  0.00     0.297 C 
ATOM     11  O   UNL d   1     -41.124-123.180 -51.772  0.00  0.00    -0.264 OA
BRANCH  10  12
ATOM     12  C   UNL d   1     -41.334-121.895 -52.357  0.00  0.00     0.144 C 
BRANCH  12  13
ATOM     13  N   UNL d   1     -41.512-122.121 -53.117  0.00  0.00    -0.299 N 
ATOM     14  C   UNL d   1     -41.141-122.757 -53.460  0.00  0.00     0.080 A 
ATOM     15  C   UNL d   1     -41.326-122.983 -54.231  0.00  0.00     0.019 A 
ATOM     16  C   UNL d   1     -41.884-122.564 -54.651  0.00  0.00     0.003 A 
ATOM     17  C   UNL d   1     -42.253-121.925 -54.300  0.00  0.00     0.019 A 
ATOM     18  C   UNL d   1     -42.097-122.779 -55.463  0.00  0.00     0.000 C 
ATOM     19  C   UNL d   1     -42.067-121.701 -53.526  0.00  0.00     0.080 A 
ENDBRANCH  12  13
ENDBRANCH  10  12
ENDBRANCH   3   9
TORSDOF 3
ENDMDL
