MODEL 1
REMARK VINA RESULT:      75.7      0.000      0.000
REMARK  2 active torsions:
REMARK  status: ('A' for Active; 'I' for Inactive)
REMARK    1  A    between atoms: C_5  and  C_1 
REMARK       I    between atoms: N_7  and  C_5 
REMARK    2  A    between atoms: C_9  and  N_7 
ROOT
ATOM      1  C   UNL d   1      61.196  48.338  51.390  0.00  0.00     0.161 A 
ATOM      2  C   UNL d   1      60.626  47.809  51.582  0.00  0.00     0.072 A 
ATOM      3  O   UNL d   1      61.724  48.188  50.727  0.00  0.00    -0.302 OA
ATOM      4  C   UNL d   1      60.528  47.118  51.157  0.00  0.00     0.200 A 
ATOM      5  C   UNL d   1      61.026  46.950  50.511  0.00  0.00     0.062 A 
ATOM      6  C   UNL d   1      61.606  47.479  50.310  0.00  0.00     0.103 A 
ATOM      7  O   UNL d   1      59.922  46.588  51.385  0.00  0.00    -0.286 OA
ATOM      8  C   UNL d   1      60.937  46.246  50.068  0.00  0.00     0.005 A 
ATOM      9  C   UNL d   1      62.112  47.308  49.653  0.00  0.00     0.025 A 
ATOM     10  C   UNL d   1      61.442  46.096  49.428  0.00  0.00     0.000 A 
ATOM     11  C   UNL d   1      62.014  46.617  49.229  0.00  0.00     0.002 A 
ENDROOT
BRANCH   1  12
ATOM     12  C   UNL d   1      61.261  49.050  51.865  0.00  0.00     0.302 C 
ATOM     13  N   UNL d   1      60.791  49.708  51.702  0.00  0.00    -0.206 NA
ATOM     14  O   UNL d   1      61.810  49.062  52.495  0.00  0.00    -0.263 OA
BRANCH  13  15
ATOM     15  C   UNL d   1      60.259  49.675  51.079  0.00  0.00     0.085 A 
ATOM     16  C   UNL d   1      59.448  49.674  51.232  0.00  0.00     0.018 A 
ATOM     17  C   UNL d   1      58.905  49.641  50.626  0.00  0.00     0.002 A 
ATOM     18  C   UNL d   1      59.176  49.707  52.038  0.00  0.00     0.002 C 
ATOM     19  C   UNL d   1      59.170  49.609  49.850  0.00  0.00     0.000 A 
ATOM     20  C   UNL d   1      59.979  49.610  49.689  0.00  0.00     0.002 A 
ATOM     21  C   UNL d   1      58.619  49.575  49.210  0.00  0.00     0.000 C 
ATOM     22  C   UNL d   1      60.512  49.643  50.311  0.00  0.00     0.019 A 
ENDBRANCH  13  15
ENDBRANCH   1  12
TORSDOF 2
ENDMDL
