MODEL 1
REMARK VINA RESULT:       9.0      0.000      0.000
REMARK  7 active torsions:
REMARK  status: ('A' for Active; 'I' for Inactive)
REMARK    1  A    between atoms: N_2  and  C_1 
REMARK       I    between atoms: C_6  and  N_2 
REMARK    2  A    between atoms: S_3  and  C_12 
REMARK    3  A    between atoms: C_28  and  N_4 
REMARK    4  A    between atoms: C_8  and  C_6 
REMARK    5  A    between atoms: C_15  and  C_11 
REMARK    6  A    between atoms: C_32  and  C_28 
REMARK    7  A    between atoms: O_31  and  C_32 
ROOT
ATOM      1  N   UNL d   1      56.180  -0.199  32.751  0.00  0.00    -0.184 NA
ATOM      2  C   UNL d   1      56.401   0.296  33.370  0.00  0.00     0.281 C 
ATOM      3  O   UNL d   1      57.129   0.681  33.346  0.00  0.00    -0.265 OA
ENDROOT
BRANCH   1   4
ATOM      4  C   UNL d   1      56.690  -0.304  32.111  0.00  0.00     0.182 A 
ATOM      5  N   UNL d   1      56.760  -0.988  31.664  0.00  0.00    -0.283 N 
ATOM      6  C   UNL d   1      57.331  -0.862  31.081  0.00  0.00     0.072 A 
ATOM      7  C   UNL d   1      57.628  -1.344  30.483  0.00  0.00     0.019 A 
ATOM      8  C   UNL d   1      57.614  -0.092  31.170  0.00  0.00     0.049 A 
ATOM      9  C   UNL d   1      58.208  -1.056  29.975  0.00  0.00     0.015 A 
ATOM     10  C   UNL d   1      58.492  -0.287  30.065  0.00  0.00     0.107 A 
ATOM     11  C   UNL d   1      58.195   0.195  30.662  0.00  0.00     0.021 A 
ATOM     12  S   UNL d   1      57.217   0.252  31.809  0.00  0.00    -0.048 SA
BRANCH   5  13
ATOM     13  C   UNL d   1      56.336  -1.689  31.773  0.00  0.00     0.108 C 
BRANCH  13  14
ATOM     14  C   UNL d   1      56.275  -2.028  32.520  0.00  0.00     0.135 C 
BRANCH  14  15
ATOM     15  O   UNL d   1      55.943  -2.774  32.610  0.00  0.00    -0.325 OA
ATOM     16  C   UNL d   1      55.368  -2.913  33.190  0.00  0.00     0.182 C 
ENDBRANCH  14  15
ENDBRANCH  13  14
ENDBRANCH   5  13
BRANCH  10  17
ATOM     17  S   UNL d   1      59.081   0.002  29.547  0.00  0.00     0.302 S 
ATOM     18  O   UNL d   1      59.614  -0.492  29.930  0.00  0.00    -0.197 OA
ATOM     19  O   UNL d   1      58.541   0.500  29.163  0.00  0.00    -0.197 OA
ATOM     20  N   UNL d   1      59.680   0.271  29.050  0.00  0.00    -0.043 N 
ENDBRANCH  10  17
ENDBRANCH   1   4
BRANCH   2  21
ATOM     21  C   UNL d   1      55.896   0.406  34.013  0.00  0.00     0.061 A 
ATOM     22  C   UNL d   1      55.067   0.435  33.901  0.00  0.00     0.025 A 
ATOM     23  C   UNL d   1      54.561   0.545  34.544  0.00  0.00     0.087 A 
ATOM     24  N   UNL d   1      54.881   0.628  35.310  0.00  0.00    -0.245 NA
ATOM     25  C   UNL d   1      55.699   0.599  35.420  0.00  0.00     0.082 A 
ATOM     26  C   UNL d   1      56.205   0.489  34.777  0.00  0.00     0.022 A 
ATOM     27  C   UNL d   1      56.016   0.682  36.183  0.00  0.00     0.019 A 
ATOM     28  C   UNL d   1      57.028   0.460  34.883  0.00  0.00     0.002 A 
ATOM     29  C   UNL d   1      57.339   0.545  35.659  0.00  0.00     0.000 A 
ATOM     30  C   UNL d   1      56.834   0.655  36.302  0.00  0.00     0.002 A 
BRANCH  23  31
ATOM     31  C   UNL d   1      53.747   0.573  34.434  0.00  0.00     0.047 A 
ATOM     32  S   UNL d   1      53.244   0.673  35.080  0.00  0.00    -0.085 SA
ATOM     33  C   UNL d   1      52.464   0.681  34.813  0.00  0.00     0.035 A 
ATOM     34  C   UNL d   1      52.494   0.585  33.993  0.00  0.00     0.007 A 
ATOM     35  C   UNL d   1      53.279   0.518  33.755  0.00  0.00     0.009 A 
ENDBRANCH  23  31
ENDBRANCH   2  21
TORSDOF 7
ENDMDL
MODEL 2
REMARK VINA RESULT:      10.8      1.474      2.347
REMARK  7 active torsions:
REMARK  status: ('A' for Active; 'I' for Inactive)
REMARK    1  A    between atoms: N_2  and  C_1 
REMARK       I    between atoms: C_6  and  N_2 
REMARK    2  A    between atoms: S_3  and  C_12 
REMARK    3  A    between atoms: C_28  and  N_4 
REMARK    4  A    between atoms: C_8  and  C_6 
REMARK    5  A    between atoms: C_15  and  C_11 
REMARK    6  A    between atoms: C_32  and  C_28 
REMARK    7  A    between atoms: O_31  and  C_32 
ROOT
ATOM      1  N   UNL d   1      56.843  -0.243  32.076  0.00  0.00    -0.184 NA
ATOM      2  C   UNL d   1      56.418  -0.663  32.643  0.00  0.00     0.281 C 
ATOM      3  O   UNL d   1      56.337  -1.480  32.572  0.00  0.00    -0.265 OA
ENDROOT
BRANCH   1   4
ATOM      4  C   UNL d   1      57.182  -0.646  31.441  0.00  0.00     0.182 A 
ATOM      5  N   UNL d   1      57.665  -0.313  30.868  0.00  0.00    -0.283 N 
ATOM      6  C   UNL d   1      57.886  -0.904  30.336  0.00  0.00     0.072 A 
ATOM      7  C   UNL d   1      58.358  -0.894  29.661  0.00  0.00     0.019 A 
ATOM      8  C   UNL d   1      57.535  -1.608  30.585  0.00  0.00     0.049 A 
ATOM      9  C   UNL d   1      58.478  -1.588  29.235  0.00  0.00     0.015 A 
ATOM     10  C   UNL d   1      58.128  -2.292  29.484  0.00  0.00     0.107 A 
ATOM     11  C   UNL d   1      57.657  -2.302  30.158  0.00  0.00     0.021 A 
ATOM     12  S   UNL d   1      57.100  -1.447  31.269  0.00  0.00    -0.048 SA
BRANCH   5  13
ATOM     13  C   UNL d   1      57.895   0.480  30.824  0.00  0.00     0.108 C 
BRANCH  13  14
ATOM     14  C   UNL d   1      58.655   0.680  30.579  0.00  0.00     0.135 C 
BRANCH  14  15
ATOM     15  O   UNL d   1      59.282   0.648  31.109  0.00  0.00    -0.325 OA
ATOM     16  C   UNL d   1      60.065   0.681  30.840  0.00  0.00     0.182 C 
ENDBRANCH  14  15
ENDBRANCH  13  14
ENDBRANCH   5  13
BRANCH  10  17
ATOM     17  S   UNL d   1      58.253  -2.995  29.049  0.00  0.00     0.302 S 
ATOM     18  O   UNL d   1      57.578  -2.809  28.618  0.00  0.00    -0.197 OA
ATOM     19  O   UNL d   1      58.933  -3.180  29.486  0.00  0.00    -0.197 OA
ATOM     20  N   UNL d   1      58.353  -3.682  28.606  0.00  0.00    -0.043 N 
ENDBRANCH  10  17
ENDBRANCH   1   4
BRANCH   2  21
ATOM     21  C   UNL d   1      56.076  -0.267  33.280  0.00  0.00     0.061 A 
ATOM     22  C   UNL d   1      55.249  -0.140  33.307  0.00  0.00     0.025 A 
ATOM     23  C   UNL d   1      54.906   0.256  33.945  0.00  0.00     0.087 A 
ATOM     24  N   UNL d   1      55.389   0.531  34.567  0.00  0.00    -0.245 NA
ATOM     25  C   UNL d   1      56.206   0.405  34.540  0.00  0.00     0.082 A 
ATOM     26  C   UNL d   1      56.549   0.010  33.902  0.00  0.00     0.022 A 
ATOM     27  C   UNL d   1      56.685   0.680  35.160  0.00  0.00     0.019 A 
ATOM     28  C   UNL d   1      57.368  -0.118  33.872  0.00  0.00     0.002 A 
ATOM     29  C   UNL d   1      57.846   0.163  34.504  0.00  0.00     0.000 A 
ATOM     30  C   UNL d   1      57.503   0.559  35.141  0.00  0.00     0.002 A 
BRANCH  23  31
ATOM     31  C   UNL d   1      54.094   0.380  33.971  0.00  0.00     0.047 A 
ATOM     32  S   UNL d   1      53.684   0.585  33.285  0.00  0.00    -0.085 SA
ATOM     33  C   UNL d   1      52.884   0.675  33.468  0.00  0.00     0.035 A 
ATOM     34  C   UNL d   1      52.810   0.522  34.277  0.00  0.00     0.007 A 
ATOM     35  C   UNL d   1      53.549   0.341  34.590  0.00  0.00     0.009 A 
ENDBRANCH  23  31
ENDBRANCH   2  21
TORSDOF 7
ENDMDL
