MODEL 1
REMARK VINA RESULT:      -5.4      0.000      0.000
REMARK  1 active torsions:
REMARK  status: ('A' for Active; 'I' for Inactive)
REMARK    1  A    between atoms: C_9  and  C_4 
ROOT
ATOM      1  S   UNL d   1     -41.535-123.256 -51.578  0.00  0.00    -0.085 SA
ATOM      2  N   UNL d   1     -41.166-121.704 -52.440  0.00  0.00    -0.207 NA
ATOM      3  C   UNL d   1     -41.236-121.428 -51.682  0.00  0.00     0.280 A 
ATOM      4  C   UNL d   1     -41.548-122.737 -50.954  0.00  0.00     0.034 A 
ATOM      5  C   UNL d   1     -41.413-121.903 -50.992  0.00  0.00     0.069 A 
ATOM      6  C   UNL d   1     -41.411-123.091 -52.239  0.00  0.00     0.047 A 
ATOM      7  C   UNL d   1     -41.242-122.390 -52.641  0.00  0.00     0.091 A 
ATOM      8  O   UNL d   1     -41.129-120.621 -51.565  0.00  0.00    -0.265 OA
ATOM      9  C   UNL d   1     -41.459-123.802 -52.650  0.00  0.00     0.008 A 
ATOM     10  C   UNL d   1     -41.123-122.401 -53.455  0.00  0.00     0.020 A 
ATOM     11  C   UNL d   1     -41.171-123.116 -53.875  0.00  0.00     0.002 A 
ATOM     12  C   UNL d   1     -41.339-123.816 -53.472  0.00  0.00     0.001 A 
ENDROOT
BRANCH   4  13
ATOM     13  C   UNL d   1     -41.709-123.060 -50.208  0.00  0.00     0.006 A 
ATOM     14  C   UNL d   1     -41.140-123.498 -49.815  0.00  0.00     0.001 A 
ATOM     15  C   UNL d   1     -41.298-123.817 -49.078  0.00  0.00     0.000 A 
ATOM     16  C   UNL d   1     -42.036-123.696 -48.729  0.00  0.00     0.000 A 
ATOM     17  C   UNL d   1     -42.617-123.251 -49.127  0.00  0.00     0.000 A 
ATOM     18  C   UNL d   1     -42.452-122.932 -49.868  0.00  0.00     0.001 A 
ENDBRANCH   4  13
TORSDOF 1
ENDMDL
MODEL 2
REMARK VINA RESULT:      -4.7      1.882      3.970
REMARK  1 active torsions:
REMARK  status: ('A' for Active; 'I' for Inactive)
REMARK    1  A    between atoms: C_9  and  C_4 
ROOT
ATOM      1  S   UNL d   1     -41.632-123.176 -49.393  0.00  0.00    -0.085 SA
ATOM      2  N   UNL d   1     -43.176-123.752 -48.635  0.00  0.00    -0.207 NA
ATOM      3  C   UNL d   1     -43.426-123.646 -49.398  0.00  0.00     0.280 A 
ATOM      4  C   UNL d   1     -42.125-123.161 -50.037  0.00  0.00     0.034 A 
ATOM      5  C   UNL d   1     -42.943-123.373 -50.049  0.00  0.00     0.069 A 
ATOM      6  C   UNL d   1     -41.811-123.368 -48.751  0.00  0.00     0.047 A 
ATOM      7  C   UNL d   1     -42.508-123.630 -48.397  0.00  0.00     0.091 A 
ATOM      8  O   UNL d   1     -44.214-123.816 -49.561  0.00  0.00    -0.265 OA
ATOM      9  C   UNL d   1     -41.125-123.288 -48.304  0.00  0.00     0.008 A 
ATOM     10  C   UNL d   1     -42.519-123.814 -47.595  0.00  0.00     0.020 A 
ATOM     11  C   UNL d   1     -41.829-123.735 -47.139  0.00  0.00     0.002 A 
ATOM     12  C   UNL d   1     -41.132-123.472 -47.494  0.00  0.00     0.001 A 
ENDROOT
BRANCH   4  13
ATOM     13  C   UNL d   1     -41.789-122.911 -50.753  0.00  0.00     0.006 A 
ATOM     14  C   UNL d   1     -41.466-123.458 -51.271  0.00  0.00     0.001 A 
ATOM     15  C   UNL d   1     -41.134-123.212 -51.978  0.00  0.00     0.000 A 
ATOM     16  C   UNL d   1     -41.125-122.410 -52.169  0.00  0.00     0.000 A 
ATOM     17  C   UNL d   1     -41.452-121.852 -51.645  0.00  0.00     0.000 A 
ATOM     18  C   UNL d   1     -41.785-122.105 -50.935  0.00  0.00     0.001 A 
ENDBRANCH   4  13
TORSDOF 1
ENDMDL
MODEL 3
REMARK VINA RESULT:      -4.4      0.972      3.402
REMARK  1 active torsions:
REMARK  status: ('A' for Active; 'I' for Inactive)
REMARK    1  A    between atoms: C_9  and  C_4 
ROOT
ATOM      1  S   UNL d   1     -41.472-122.815 -52.387  0.00  0.00    -0.085 SA
ATOM      2  N   UNL d   1     -41.158-121.515 -51.163  0.00  0.00    -0.207 NA
ATOM      3  C   UNL d   1     -41.215-121.064 -51.833  0.00  0.00     0.280 A 
ATOM      4  C   UNL d   1     -41.480-122.160 -52.866  0.00  0.00     0.034 A 
ATOM      5  C   UNL d   1     -41.364-121.358 -52.622  0.00  0.00     0.069 A 
ATOM      6  C   UNL d   1     -41.368-122.814 -51.702  0.00  0.00     0.047 A 
ATOM      7  C   UNL d   1     -41.225-122.230 -51.137  0.00  0.00     0.091 A 
ATOM      8  O   UNL d   1     -41.123-120.251 -51.747  0.00  0.00    -0.265 OA
ATOM      9  C   UNL d   1     -41.411-123.605 -51.478  0.00  0.00     0.008 A 
ATOM     10  C   UNL d   1     -41.125-122.438 -50.347  0.00  0.00     0.020 A 
ATOM     11  C   UNL d   1     -41.168-123.234 -50.115  0.00  0.00     0.002 A 
ATOM     12  C   UNL d   1     -41.311-123.817 -50.681  0.00  0.00     0.001 A 
ENDROOT
BRANCH   4  13
ATOM     13  C   UNL d   1     -41.615-122.294 -53.673  0.00  0.00     0.006 A 
ATOM     14  C   UNL d   1     -41.123-122.790 -54.098  0.00  0.00     0.001 A 
ATOM     15  C   UNL d   1     -41.256-122.923 -54.895  0.00  0.00     0.000 A 
ATOM     16  C   UNL d   1     -41.890-122.554 -55.271  0.00  0.00     0.000 A 
ATOM     17  C   UNL d   1     -42.394-122.048 -54.841  0.00  0.00     0.000 A 
ATOM     18  C   UNL d   1     -42.255-121.919 -54.040  0.00  0.00     0.001 A 
ENDBRANCH   4  13
TORSDOF 1
ENDMDL
