MODEL 1
REMARK VINA RESULT:     117.9      0.000      0.000
REMARK  7 active torsions:
REMARK  status: ('A' for Active; 'I' for Inactive)
REMARK    1  A    between atoms: C_2  and  S_1 
REMARK    2  A    between atoms: N_3  and  S_1 
REMARK    3  A    between atoms: C_5  and  C_7 
REMARK       I    between atoms: N_9  and  C_5 
REMARK    4  A    between atoms: C_8  and  N_6 
REMARK    5  A    between atoms: C_21  and  N_9 
REMARK    6  A    between atoms: O_28  and  C_23 
REMARK    7  A    between atoms: C_31  and  O_28 
ROOT
ATOM      1  C   UNL d   1     -54.980-100.024 -41.063  0.00  0.00     0.132 A 
ATOM      2  C   UNL d   1     -54.998-100.439 -41.770  0.00  0.00     0.020 A 
ATOM      3  C   UNL d   1     -54.924-100.031 -42.483  0.00  0.00     0.059 A 
ATOM      4  C   UNL d   1     -54.887 -99.198 -41.064  0.00  0.00     0.152 A 
ATOM      5  C   UNL d   1     -54.831 -99.206 -42.484  0.00  0.00     0.007 A 
ATOM      6  C   UNL d   1     -54.813 -98.791 -41.771  0.00  0.00     0.030 A 
ATOM      7  F   UNL d   1     -54.869 -98.783 -40.352  0.00  0.00    -0.203 F 
ENDROOT
BRANCH   1   8
ATOM      8  S   UNL d   1     -55.054-100.438 -40.351  0.00  0.00     0.274 S 
ATOM      9  O   UNL d   1     -55.375-101.084 -40.752  0.00  0.00    -0.200 OA
ATOM     10  O   UNL d   1     -54.734 -99.793 -39.949  0.00  0.00    -0.200 OA
BRANCH   8  11
ATOM     11  N   UNL d   1     -55.127-100.846 -39.637  0.00  0.00    -0.226 N 
ATOM     12  C   UNL d   1     -54.813-101.601 -39.564  0.00  0.00     0.111 A 
ATOM     13  C   UNL d   1     -54.888-102.006 -38.848  0.00  0.00     0.101 A 
ATOM     14  N   UNL d   1     -55.275-101.653 -38.211  0.00  0.00    -0.286 N 
ATOM     15  C   UNL d   1     -55.583-100.900 -38.297  0.00  0.00     0.101 A 
ATOM     16  C   UNL d   1     -55.514-100.493 -39.000  0.00  0.00     0.111 A 
BRANCH  14  17
ATOM     17  C   UNL d   1     -55.346-102.061 -37.501  0.00  0.00     0.148 A 
ATOM     18  N   UNL d   1     -56.043-102.456 -37.319  0.00  0.00    -0.227 NA
ATOM     19  C   UNL d   1     -56.112-102.865 -36.605  0.00  0.00     0.101 A 
ATOM     20  C   UNL d   1     -55.476-102.874 -36.078  0.00  0.00     0.021 A 
ATOM     21  C   UNL d   1     -54.775-102.476 -36.261  0.00  0.00     0.005 A 
ATOM     22  C   UNL d   1     -54.713-102.072 -36.971  0.00  0.00     0.037 A 
ENDBRANCH  14  17
ENDBRANCH   8  11
ENDBRANCH   1   8
BRANCH   3  23
ATOM     23  C   UNL d   1     -54.941-100.435 -43.203  0.00  0.00     0.279 C 
ATOM     24  N   UNL d   1     -55.187-101.226 -43.217  0.00  0.00    -0.208 NA
ATOM     25  O   UNL d   1     -54.719-100.066 -43.895  0.00  0.00    -0.265 OA
BRANCH  24  26
ATOM     26  C   UNL d   1     -55.206-101.637 -43.934  0.00  0.00     0.085 A 
ATOM     27  C   UNL d   1     -55.691-101.380 -44.547  0.00  0.00     0.021 A 
ATOM     28  C   UNL d   1     -55.709-101.790 -45.260  0.00  0.00     0.026 A 
ATOM     29  C   UNL d   1     -55.236-102.473 -45.372  0.00  0.00     0.100 A 
ATOM     30  C   UNL d   1     -54.749-102.726 -44.748  0.00  0.00     0.026 A 
ATOM     31  C   UNL d   1     -54.730-102.318 -44.036  0.00  0.00     0.021 A 
BRANCH  29  32
ATOM     32  O   UNL d   1     -55.257-102.877 -46.081  0.00  0.00    -0.305 OA
BRANCH  32  33
ATOM     33  C   UNL d   1     -55.917-102.822 -46.574  0.00  0.00     0.123 C 
ATOM     34  C   UNL d   1     -55.852-102.456 -47.313  0.00  0.00     0.029 C 
ENDBRANCH  32  33
ENDBRANCH  29  32
ENDBRANCH  24  26
ENDBRANCH   3  23
TORSDOF 7
ENDMDL
