MODEL 1
REMARK VINA RESULT:      -2.5      0.000      0.000
REMARK  2 active torsions:
REMARK  status: ('A' for Active; 'I' for Inactive)
REMARK    1  A    between atoms: C_6  and  C_1 
REMARK    2  A    between atoms: C_7  and  C_3 
ROOT
ATOM      1  C   UNL d   1      31.528  17.939 -24.383  0.00  0.00     0.081 A 
ATOM      2  N   UNL d   1      30.803  18.281 -24.556  0.00  0.00    -0.246 NA
ATOM      3  C   UNL d   1      31.435  17.123 -24.399  0.00  0.00     0.019 A 
ATOM      4  C   UNL d   1      30.653  16.962 -24.582  0.00  0.00     0.019 A 
ATOM      5  C   UNL d   1      30.257  17.672 -24.680  0.00  0.00     0.081 A 
ATOM      6  C   UNL d   1      30.253  16.240 -24.671  0.00  0.00     0.002 A 
ATOM      7  C   UNL d   1      29.454  17.675 -24.869  0.00  0.00     0.019 A 
ATOM      8  C   UNL d   1      29.446  16.251 -24.861  0.00  0.00     0.000 A 
ATOM      9  C   UNL d   1      29.047  16.968 -24.960  0.00  0.00     0.002 A 
ENDROOT
BRANCH   1  10
ATOM     10  C   UNL d   1      32.103  18.522 -24.252  0.00  0.00     0.018 A 
ATOM     11  C   UNL d   1      32.493  18.854 -24.890  0.00  0.00     0.002 A 
ATOM     12  C   UNL d   1      33.063  19.432 -24.758  0.00  0.00     0.000 A 
ATOM     13  C   UNL d   1      33.241  19.677 -23.996  0.00  0.00     0.000 A 
ATOM     14  C   UNL d   1      32.842  19.336 -23.357  0.00  0.00     0.000 A 
ATOM     15  C   UNL d   1      32.276  18.762 -23.486  0.00  0.00     0.002 A 
ENDBRANCH   1  10
BRANCH   3  16
ATOM     16  C   UNL d   1      32.034  16.567 -24.254  0.00  0.00     0.002 A 
ATOM     17  C   UNL d   1      32.165  16.284 -23.491  0.00  0.00     0.000 A 
ATOM     18  C   UNL d   1      32.757  15.735 -23.352  0.00  0.00     0.000 A 
ATOM     19  C   UNL d   1      33.233  15.457 -23.975  0.00  0.00     0.000 A 
ATOM     20  C   UNL d   1      33.101  15.742 -24.746  0.00  0.00     0.000 A 
ATOM     21  C   UNL d   1      32.502  16.296 -24.884  0.00  0.00     0.000 A 
ENDBRANCH   3  16
TORSDOF 2
ENDMDL
MODEL 2
REMARK VINA RESULT:      -1.6      0.818      2.972
REMARK  2 active torsions:
REMARK  status: ('A' for Active; 'I' for Inactive)
REMARK    1  A    between atoms: C_6  and  C_1 
REMARK    2  A    between atoms: C_7  and  C_3 
ROOT
ATOM      1  C   UNL d   1      31.239  17.216 -24.449  0.00  0.00     0.081 A 
ATOM      2  N   UNL d   1      31.063  17.920 -24.831  0.00  0.00    -0.246 NA
ATOM      3  C   UNL d   1      32.017  17.253 -24.191  0.00  0.00     0.019 A 
ATOM      4  C   UNL d   1      32.323  17.979 -24.413  0.00  0.00     0.019 A 
ATOM      5  C   UNL d   1      31.740  18.396 -24.808  0.00  0.00     0.081 A 
ATOM      6  C   UNL d   1      33.075  18.311 -24.298  0.00  0.00     0.002 A 
ATOM      7  C   UNL d   1      31.897  19.153 -25.097  0.00  0.00     0.019 A 
ATOM      8  C   UNL d   1      33.225  19.072 -24.591  0.00  0.00     0.000 A 
ATOM      9  C   UNL d   1      32.636  19.493 -24.991  0.00  0.00     0.002 A 
ENDROOT
BRANCH   1  10
ATOM     10  C   UNL d   1      30.580  16.710 -24.451  0.00  0.00     0.018 A 
ATOM     11  C   UNL d   1      30.067  16.715 -23.814  0.00  0.00     0.002 A 
ATOM     12  C   UNL d   1      29.415  16.214 -23.819  0.00  0.00     0.000 A 
ATOM     13  C   UNL d   1      29.277  15.712 -24.454  0.00  0.00     0.000 A 
ATOM     14  C   UNL d   1      29.802  15.715 -25.093  0.00  0.00     0.000 A 
ATOM     15  C   UNL d   1      30.449  16.212 -25.090  0.00  0.00     0.002 A 
ENDBRANCH   1  10
BRANCH   3  16
ATOM     16  C   UNL d   1      32.416  16.654 -23.778  0.00  0.00     0.002 A 
ATOM     17  C   UNL d   1      32.415  16.642 -22.953  0.00  0.00     0.000 A 
ATOM     18  C   UNL d   1      32.810  16.049 -22.548  0.00  0.00     0.000 A 
ATOM     19  C   UNL d   1      33.216  15.453 -22.961  0.00  0.00     0.000 A 
ATOM     20  C   UNL d   1      33.219  15.462 -23.794  0.00  0.00     0.000 A 
ATOM     21  C   UNL d   1      32.819  16.063 -24.200  0.00  0.00     0.000 A 
ENDBRANCH   3  16
TORSDOF 2
ENDMDL
MODEL 3
REMARK VINA RESULT:      -1.5      0.664      2.610
REMARK  2 active torsions:
REMARK  status: ('A' for Active; 'I' for Inactive)
REMARK    1  A    between atoms: C_6  and  C_1 
REMARK    2  A    between atoms: C_7  and  C_3 
ROOT
ATOM      1  C   UNL d   1      31.482  16.893 -23.984  0.00  0.00     0.081 A 
ATOM      2  N   UNL d   1      30.771  16.486 -24.034  0.00  0.00    -0.246 NA
ATOM      3  C   UNL d   1      31.363  17.650 -24.276  0.00  0.00     0.019 A 
ATOM      4  C   UNL d   1      30.580  17.713 -24.507  0.00  0.00     0.019 A 
ATOM      5  C   UNL d   1      30.209  16.998 -24.361  0.00  0.00     0.081 A 
ATOM      6  C   UNL d   1      30.159  18.347 -24.838  0.00  0.00     0.002 A 
ATOM      7  C   UNL d   1      29.410  16.903 -24.542  0.00  0.00     0.019 A 
ATOM      8  C   UNL d   1      29.356  18.244 -25.017  0.00  0.00     0.000 A 
ATOM      9  C   UNL d   1      28.981  17.522 -24.869  0.00  0.00     0.002 A 
ENDROOT
BRANCH   1  10
ATOM     10  C   UNL d   1      32.073  16.409 -23.659  0.00  0.00     0.018 A 
ATOM     11  C   UNL d   1      32.200  16.415 -22.851  0.00  0.00     0.002 A 
ATOM     12  C   UNL d   1      32.786  15.935 -22.531  0.00  0.00     0.000 A 
ATOM     13  C   UNL d   1      33.241  15.453 -23.014  0.00  0.00     0.000 A 
ATOM     14  C   UNL d   1      33.105  15.453 -23.830  0.00  0.00     0.000 A 
ATOM     15  C   UNL d   1      32.524  15.929 -24.149  0.00  0.00     0.002 A 
ENDBRANCH   1  10
BRANCH   3  16
ATOM     16  C   UNL d   1      31.942  18.243 -24.326  0.00  0.00     0.002 A 
ATOM     17  C   UNL d   1      32.107  18.721 -23.673  0.00  0.00     0.000 A 
ATOM     18  C   UNL d   1      32.679  19.305 -23.726  0.00  0.00     0.000 A 
ATOM     19  C   UNL d   1      33.100  19.426 -24.433  0.00  0.00     0.000 A 
ATOM     20  C   UNL d   1      32.934  18.944 -25.092  0.00  0.00     0.000 A 
ATOM     21  C   UNL d   1      32.355  18.355 -25.037  0.00  0.00     0.000 A 
ENDBRANCH   3  16
TORSDOF 2
ENDMDL
