MODEL 1
REMARK VINA RESULT:      -4.8      0.000      0.000
REMARK  3 active torsions:
REMARK  status: ('A' for Active; 'I' for Inactive)
REMARK    1  A    between atoms: N_2  and  S_1 
REMARK    2  A    between atoms: C_4  and  S_1 
REMARK    3  A    between atoms: C_3  and  N_2 
ROOT
ATOM      1  S   UNL d   1     -41.443-122.949 -52.333  0.00  0.00     0.285 S 
ATOM      2  O   UNL d   1     -41.123-122.192 -52.228  0.00  0.00    -0.198 OA
ATOM      3  O   UNL d   1     -41.765-123.710 -52.438  0.00  0.00    -0.198 OA
ENDROOT
BRANCH   1   4
ATOM      4  N   UNL d   1     -41.123-122.978 -53.102  0.00  0.00    -0.158 NA
BRANCH   4   5
ATOM      5  C   UNL d   1     -41.572-122.710 -53.744  0.00  0.00     0.094 A 
ATOM      6  C   UNL d   1     -42.027-122.019 -53.693  0.00  0.00     0.023 A 
ATOM      7  C   UNL d   1     -42.467-121.759 -54.326  0.00  0.00     0.041 A 
ATOM      8  C   UNL d   1     -42.904-121.070 -54.239  0.00  0.00     0.003 C 
ATOM      9  C   UNL d   1     -42.463-122.199 -55.051  0.00  0.00     0.196 A 
ATOM     10  C   UNL d   1     -42.009-122.889 -55.100  0.00  0.00     0.044 A 
ATOM     11  O   UNL d   1     -42.912-121.930 -55.693  0.00  0.00    -0.287 OA
ATOM     12  C   UNL d   1     -41.573-123.134 -54.451  0.00  0.00     0.022 A 
ATOM     13  C   UNL d   1     -41.129-123.817 -54.515  0.00  0.00     0.002 C 
ENDBRANCH   4   5
ENDBRANCH   1   4
BRANCH   1  14
ATOM     14  C   UNL d   1     -41.764-122.924 -51.564  0.00  0.00     0.105 A 
ATOM     15  C   UNL d   1     -41.987-123.622 -51.205  0.00  0.00     0.013 A 
ATOM     16  C   UNL d   1     -42.299-123.607 -50.461  0.00  0.00     0.001 A 
ATOM     17  C   UNL d   1     -42.397-122.875 -50.049  0.00  0.00     0.000 A 
ATOM     18  C   UNL d   1     -42.171-122.173 -50.416  0.00  0.00     0.001 A 
ATOM     19  C   UNL d   1     -42.723-122.833 -49.266  0.00  0.00     0.000 C 
ATOM     20  C   UNL d   1     -41.852-122.199 -51.181  0.00  0.00     0.013 A 
ENDBRANCH   1  14
TORSDOF 3
ENDMDL
MODEL 2
REMARK VINA RESULT:      -3.0      1.064      4.010
REMARK  3 active torsions:
REMARK  status: ('A' for Active; 'I' for Inactive)
REMARK    1  A    between atoms: N_2  and  S_1 
REMARK    2  A    between atoms: C_4  and  S_1 
REMARK    3  A    between atoms: C_3  and  N_2 
ROOT
ATOM      1  S   UNL d   1     -41.407-122.459 -52.515  0.00  0.00     0.285 S 
ATOM      2  O   UNL d   1     -41.375-123.283 -52.584  0.00  0.00    -0.198 OA
ATOM      3  O   UNL d   1     -41.440-121.629 -52.447  0.00  0.00    -0.198 OA
ENDROOT
BRANCH   1   4
ATOM      4  N   UNL d   1     -41.123-122.512 -51.734  0.00  0.00    -0.158 NA
BRANCH   4   5
ATOM      5  C   UNL d   1     -41.658-122.541 -51.103  0.00  0.00     0.094 A 
ATOM      6  C   UNL d   1     -42.201-123.162 -51.027  0.00  0.00     0.023 A 
ATOM      7  C   UNL d   1     -42.725-123.186 -50.405  0.00  0.00     0.041 A 
ATOM      8  C   UNL d   1     -43.248-123.817 -50.363  0.00  0.00     0.003 C 
ATOM      9  C   UNL d   1     -42.719-122.570 -49.824  0.00  0.00     0.196 A 
ATOM     10  C   UNL d   1     -42.176-121.950 -49.901  0.00  0.00     0.044 A 
ATOM     11  O   UNL d   1     -43.254-122.599 -49.193  0.00  0.00    -0.287 OA
ATOM     12  C   UNL d   1     -41.656-121.943 -50.535  0.00  0.00     0.022 A 
ATOM     13  C   UNL d   1     -41.126-121.325 -50.597  0.00  0.00     0.002 C 
ENDBRANCH   4   5
ENDBRANCH   1   4
BRANCH   1  14
ATOM     14  C   UNL d   1     -41.692-122.402 -53.297  0.00  0.00     0.105 A 
ATOM     15  C   UNL d   1     -41.974-121.683 -53.564  0.00  0.00     0.013 A 
ATOM     16  C   UNL d   1     -42.251-121.619 -54.318  0.00  0.00     0.001 A 
ATOM     17  C   UNL d   1     -42.254-122.288 -54.836  0.00  0.00     0.000 A 
ATOM     18  C   UNL d   1     -41.969-123.010 -54.562  0.00  0.00     0.001 A 
ATOM     19  C   UNL d   1     -42.542-122.245 -55.634  0.00  0.00     0.000 C 
ATOM     20  C   UNL d   1     -41.686-123.066 -53.784  0.00  0.00     0.013 A 
ENDBRANCH   1  14
TORSDOF 3
ENDMDL
MODEL 3
REMARK VINA RESULT:      -2.7      0.819      1.493
REMARK  3 active torsions:
REMARK  status: ('A' for Active; 'I' for Inactive)
REMARK    1  A    between atoms: N_2  and  S_1 
REMARK    2  A    between atoms: C_4  and  S_1 
REMARK    3  A    between atoms: C_3  and  N_2 
ROOT
ATOM      1  S   UNL d   1     -41.562-122.180 -51.654  0.00  0.00     0.285 S 
ATOM      2  O   UNL d   1     -41.999-121.500 -51.477  0.00  0.00    -0.198 OA
ATOM      3  O   UNL d   1     -41.123-122.865 -51.832  0.00  0.00    -0.198 OA
ENDROOT
BRANCH   1   4
ATOM      4  N   UNL d   1     -41.243-121.802 -52.324  0.00  0.00    -0.158 NA
BRANCH   4   5
ATOM      5  C   UNL d   1     -41.463-122.053 -53.082  0.00  0.00     0.094 A 
ATOM      6  C   UNL d   1     -41.281-122.814 -53.354  0.00  0.00     0.023 A 
ATOM      7  C   UNL d   1     -41.500-123.056 -54.099  0.00  0.00     0.041 A 
ATOM      8  C   UNL d   1     -41.302-123.817 -54.334  0.00  0.00     0.003 C 
ATOM      9  C   UNL d   1     -41.922-122.526 -54.608  0.00  0.00     0.196 A 
ATOM     10  C   UNL d   1     -42.103-121.766 -54.335  0.00  0.00     0.044 A 
ATOM     11  O   UNL d   1     -42.143-122.777 -55.366  0.00  0.00    -0.287 OA
ATOM     12  C   UNL d   1     -41.874-121.541 -53.581  0.00  0.00     0.022 A 
ATOM     13  C   UNL d   1     -42.061-120.788 -53.326  0.00  0.00     0.002 C 
ENDBRANCH   4   5
ENDBRANCH   1   4
BRANCH   1  14
ATOM     14  C   UNL d   1     -41.879-122.562 -50.984  0.00  0.00     0.105 A 
ATOM     15  C   UNL d   1     -41.498-123.220 -50.686  0.00  0.00     0.013 A 
ATOM     16  C   UNL d   1     -41.799-123.595 -50.038  0.00  0.00     0.001 A 
ATOM     17  C   UNL d   1     -42.504-123.315 -49.665  0.00  0.00     0.000 A 
ATOM     18  C   UNL d   1     -42.885-122.651 -49.970  0.00  0.00     0.001 A 
ATOM     19  C   UNL d   1     -42.839-123.693 -48.982  0.00  0.00     0.000 C 
ATOM     20  C   UNL d   1     -42.568-122.272 -50.636  0.00  0.00     0.013 A 
ENDBRANCH   1  14
TORSDOF 3
ENDMDL
