MODEL 1
REMARK VINA RESULT:      -3.3      0.000      0.000
REMARK  2 active torsions:
REMARK  status: ('A' for Active; 'I' for Inactive)
REMARK    1  A    between atoms: C_6  and  N_1 
REMARK    2  A    between atoms: C_7  and  C_6 
ROOT
ATOM      1  N   UNL d   1      31.178  17.001 -24.260  0.00  0.00    -0.268 N 
ATOM      2  C   UNL d   1      31.163  16.159 -23.608  0.00  0.00     0.265 A 
ATOM      3  C   UNL d   1      30.396  17.139 -24.385  0.00  0.00     0.067 A 
ATOM      4  C   UNL d   1      30.376  16.022 -23.520  0.00  0.00     0.058 A 
ATOM      5  C   UNL d   1      29.972  16.573 -23.956  0.00  0.00     0.021 A 
ATOM      6  O   UNL d   1      31.721  15.677 -23.221  0.00  0.00    -0.267 OA
ATOM      7  C   UNL d   1      29.147  16.574 -23.975  0.00  0.00     0.002 A 
ATOM      8  C   UNL d   1      29.992  17.702 -24.831  0.00  0.00     0.018 A 
ATOM      9  C   UNL d   1      29.952  15.452 -23.088  0.00  0.00     0.005 A 
ATOM     10  C   UNL d   1      29.167  17.702 -24.850  0.00  0.00     0.002 A 
ATOM     11  C   UNL d   1      29.127  15.453 -23.107  0.00  0.00     0.000 A 
ATOM     12  C   UNL d   1      28.719  16.022 -23.558  0.00  0.00     0.000 A 
ATOM     13  C   UNL d   1      28.739  17.139 -24.423  0.00  0.00     0.000 A 
ENDROOT
BRANCH   1  14
ATOM     14  C   UNL d   1      31.753  17.484 -24.621  0.00  0.00     0.154 C 
BRANCH  14  15
ATOM     15  C   UNL d   1      32.464  17.620 -24.214  0.00  0.00     0.230 C 
ATOM     16  O   UNL d   1      33.123  17.210 -24.453  0.00  0.00    -0.643 OA
ATOM     17  O   UNL d   1      32.503  18.139 -23.601  0.00  0.00    -0.643 OA
ENDBRANCH  14  15
ENDBRANCH   1  14
TORSDOF 2
ENDMDL
MODEL 2
REMARK VINA RESULT:      -3.2      0.873      1.971
REMARK  2 active torsions:
REMARK  status: ('A' for Active; 'I' for Inactive)
REMARK    1  A    between atoms: C_6  and  N_1 
REMARK    2  A    between atoms: C_7  and  C_6 
ROOT
ATOM      1  N   UNL d   1      31.213  16.121 -23.850  0.00  0.00    -0.268 N 
ATOM      2  C   UNL d   1      31.080  16.921 -24.540  0.00  0.00     0.265 A 
ATOM      3  C   UNL d   1      30.463  15.990 -23.590  0.00  0.00     0.067 A 
ATOM      4  C   UNL d   1      30.288  17.052 -24.505  0.00  0.00     0.058 A 
ATOM      5  C   UNL d   1      29.968  16.528 -23.975  0.00  0.00     0.021 A 
ATOM      6  O   UNL d   1      31.562  17.380 -25.042  0.00  0.00    -0.267 OA
ATOM      7  C   UNL d   1      29.158  16.528 -23.820  0.00  0.00     0.002 A 
ATOM      8  C   UNL d   1      30.145  15.455 -23.050  0.00  0.00     0.018 A 
ATOM      9  C   UNL d   1      29.792  17.593 -24.894  0.00  0.00     0.005 A 
ATOM     10  C   UNL d   1      29.335  15.455 -22.895  0.00  0.00     0.002 A 
ATOM     11  C   UNL d   1      28.982  17.593 -24.739  0.00  0.00     0.000 A 
ATOM     12  C   UNL d   1      28.660  17.052 -24.194  0.00  0.00     0.000 A 
ATOM     13  C   UNL d   1      28.836  15.990 -23.278  0.00  0.00     0.000 A 
ENDROOT
BRANCH   1  14
ATOM     14  C   UNL d   1      31.845  15.662 -23.561  0.00  0.00     0.154 C 
BRANCH  14  15
ATOM     15  C   UNL d   1      32.618  15.891 -23.757  0.00  0.00     0.230 C 
ATOM     16  O   UNL d   1      33.008  16.390 -23.249  0.00  0.00    -0.643 OA
ATOM     17  O   UNL d   1      32.975  15.629 -24.429  0.00  0.00    -0.643 OA
ENDBRANCH  14  15
ENDBRANCH   1  14
TORSDOF 2
ENDMDL
MODEL 3
REMARK VINA RESULT:      -2.9      1.492      2.870
REMARK  2 active torsions:
REMARK  status: ('A' for Active; 'I' for Inactive)
REMARK    1  A    between atoms: C_6  and  N_1 
REMARK    2  A    between atoms: C_7  and  C_6 
ROOT
ATOM      1  N   UNL d   1      30.295  16.917 -24.164  0.00  0.00    -0.268 N 
ATOM      2  C   UNL d   1      30.572  16.067 -23.586  0.00  0.00     0.265 A 
ATOM      3  C   UNL d   1      31.008  17.232 -24.363  0.00  0.00     0.067 A 
ATOM      4  C   UNL d   1      31.375  16.103 -23.597  0.00  0.00     0.058 A 
ATOM      5  C   UNL d   1      31.593  16.753 -24.030  0.00  0.00     0.021 A 
ATOM      6  O   UNL d   1      30.183  15.452 -23.180  0.00  0.00    -0.267 OA
ATOM      7  C   UNL d   1      32.390  16.938 -24.140  0.00  0.00     0.002 A 
ATOM      8  C   UNL d   1      31.222  17.894 -24.805  0.00  0.00     0.018 A 
ATOM      9  C   UNL d   1      31.962  15.620 -23.261  0.00  0.00     0.005 A 
ATOM     10  C   UNL d   1      32.019  18.079 -24.915  0.00  0.00     0.002 A 
ATOM     11  C   UNL d   1      32.759  15.805 -23.371  0.00  0.00     0.000 A 
ATOM     12  C   UNL d   1      32.975  16.473 -23.818  0.00  0.00     0.000 A 
ATOM     13  C   UNL d   1      32.608  17.602 -24.584  0.00  0.00     0.000 A 
ENDROOT
BRANCH   1  14
ATOM     14  C   UNL d   1      29.589  17.279 -24.420  0.00  0.00     0.154 C 
BRANCH  14  15
ATOM     15  C   UNL d   1      28.895  16.824 -24.425  0.00  0.00     0.230 C 
ATOM     16  O   UNL d   1      28.373  16.921 -23.810  0.00  0.00    -0.643 OA
ATOM     17  O   UNL d   1      28.739  16.303 -25.017  0.00  0.00    -0.643 OA
ENDBRANCH  14  15
ENDBRANCH   1  14
TORSDOF 2
ENDMDL
MODEL 4
REMARK VINA RESULT:      -2.5      1.398      2.424
REMARK  2 active torsions:
REMARK  status: ('A' for Active; 'I' for Inactive)
REMARK    1  A    between atoms: C_6  and  N_1 
REMARK    2  A    between atoms: C_7  and  C_6 
ROOT
ATOM      1  N   UNL d   1      32.361  17.619 -24.316  0.00  0.00    -0.268 N 
ATOM      2  C   UNL d   1      31.321  17.659 -24.539  0.00  0.00     0.265 A 
ATOM      3  C   UNL d   1      32.428  16.922 -23.919  0.00  0.00     0.067 A 
ATOM      4  C   UNL d   1      31.047  16.975 -24.216  0.00  0.00     0.058 A 
ATOM      5  C   UNL d   1      31.675  16.585 -23.880  0.00  0.00     0.021 A 
ATOM      6  O   UNL d   1      30.799  18.180 -24.927  0.00  0.00    -0.267 OA
ATOM      7  C   UNL d   1      31.566  15.860 -23.502  0.00  0.00     0.002 A 
ATOM      8  C   UNL d   1      33.070  16.532 -23.580  0.00  0.00     0.018 A 
ATOM      9  C   UNL d   1      30.289  16.638 -24.177  0.00  0.00     0.005 A 
ATOM     10  C   UNL d   1      32.961  15.807 -23.202  0.00  0.00     0.002 A 
ATOM     11  C   UNL d   1      30.180  15.913 -23.799  0.00  0.00     0.000 A 
ATOM     12  C   UNL d   1      30.829  15.518 -23.456  0.00  0.00     0.000 A 
ATOM     13  C   UNL d   1      32.209  15.466 -23.160  0.00  0.00     0.000 A 
ENDROOT
BRANCH   1  14
ATOM     14  C   UNL d   1      33.033  18.095 -24.447  0.00  0.00     0.154 C 
BRANCH  14  15
ATOM     15  C   UNL d   1      32.947  18.918 -24.395  0.00  0.00     0.230 C 
ATOM     16  O   UNL d   1      32.911  19.341 -25.088  0.00  0.00    -0.643 OA
ATOM     17  O   UNL d   1      32.900  19.291 -23.684  0.00  0.00    -0.643 OA
ENDBRANCH  14  15
ENDBRANCH   1  14
TORSDOF 2
ENDMDL
MODEL 5
REMARK VINA RESULT:      -2.4      4.144      5.172
REMARK  2 active torsions:
REMARK  status: ('A' for Active; 'I' for Inactive)
REMARK    1  A    between atoms: C_6  and  N_1 
REMARK    2  A    between atoms: C_7  and  C_6 
ROOT
ATOM      1  N   UNL d   1      33.218  20.409 -22.142  0.00  0.00    -0.268 N 
ATOM      2  C   UNL d   1      33.218  21.081 -22.968  0.00  0.00     0.265 A 
ATOM      3  C   UNL d   1      33.225  19.690 -22.502  0.00  0.00     0.067 A 
ATOM      4  C   UNL d   1      33.225  20.582 -23.598  0.00  0.00     0.058 A 
ATOM      5  C   UNL d   1      33.229  19.820 -23.318  0.00  0.00     0.021 A 
ATOM      6  O   UNL d   1      33.212  21.906 -23.084  0.00  0.00    -0.267 OA
ATOM      7  C   UNL d   1      33.237  19.180 -23.839  0.00  0.00     0.002 A 
ATOM      8  C   UNL d   1      33.229  18.919 -22.210  0.00  0.00     0.018 A 
ATOM      9  C   UNL d   1      33.229  20.715 -24.418  0.00  0.00     0.005 A 
ATOM     10  C   UNL d   1      33.237  18.279 -22.731  0.00  0.00     0.002 A 
ATOM     11  C   UNL d   1      33.237  20.075 -24.939  0.00  0.00     0.000 A 
ATOM     12  C   UNL d   1      33.241  19.296 -24.644  0.00  0.00     0.000 A 
ATOM     13  C   UNL d   1      33.241  18.405 -23.548  0.00  0.00     0.000 A 
ENDROOT
BRANCH   1  14
ATOM     14  C   UNL d   1      33.212  20.463 -21.310  0.00  0.00     0.154 C 
BRANCH  14  15
ATOM     15  C   UNL d   1      32.819  21.106 -20.961  0.00  0.00     0.230 C 
ATOM     16  O   UNL d   1      32.007  21.092 -20.947  0.00  0.00    -0.643 OA
ATOM     17  O   UNL d   1      33.225  21.724 -20.647  0.00  0.00    -0.643 OA
ENDBRANCH  14  15
ENDBRANCH   1  14
TORSDOF 2
ENDMDL
MODEL 6
REMARK VINA RESULT:      -2.2      5.105      6.353
REMARK  2 active torsions:
REMARK  status: ('A' for Active; 'I' for Inactive)
REMARK    1  A    between atoms: C_6  and  N_1 
REMARK    2  A    between atoms: C_7  and  C_6 
ROOT
ATOM      1  N   UNL d   1      33.220  22.140 -20.998  0.00  0.00    -0.268 N 
ATOM      2  C   UNL d   1      33.219  21.134 -20.648  0.00  0.00     0.265 A 
ATOM      3  C   UNL d   1      33.227  22.046 -21.797  0.00  0.00     0.067 A 
ATOM      4  C   UNL d   1      33.225  20.712 -21.332  0.00  0.00     0.058 A 
ATOM      5  C   UNL d   1      33.229  21.235 -21.952  0.00  0.00     0.021 A 
ATOM      6  O   UNL d   1      33.213  20.745 -19.911  0.00  0.00    -0.267 OA
ATOM      7  C   UNL d   1      33.237  20.963 -22.731  0.00  0.00     0.002 A 
ATOM      8  C   UNL d   1      33.231  22.583 -22.422  0.00  0.00     0.018 A 
ATOM      9  C   UNL d   1      33.228  19.896 -21.486  0.00  0.00     0.005 A 
ATOM     10  C   UNL d   1      33.238  22.311 -23.201  0.00  0.00     0.002 A 
ATOM     11  C   UNL d   1      33.235  19.624 -22.265  0.00  0.00     0.000 A 
ATOM     12  C   UNL d   1      33.240  20.166 -22.896  0.00  0.00     0.000 A 
ATOM     13  C   UNL d   1      33.241  21.501 -23.361  0.00  0.00     0.000 A 
ENDROOT
BRANCH   1  14
ATOM     14  C   UNL d   1      33.215  22.904 -20.664  0.00  0.00     0.154 C 
BRANCH  14  15
ATOM     15  C   UNL d   1      32.766  23.029 -19.977  0.00  0.00     0.230 C 
ATOM     16  O   UNL d   1      33.161  23.079 -19.269  0.00  0.00    -0.643 OA
ATOM     17  O   UNL d   1      31.966  23.099 -20.007  0.00  0.00    -0.643 OA
ENDBRANCH  14  15
ENDBRANCH   1  14
TORSDOF 2
ENDMDL
MODEL 7
REMARK VINA RESULT:      -1.9      2.910      4.374
REMARK  2 active torsions:
REMARK  status: ('A' for Active; 'I' for Inactive)
REMARK    1  A    between atoms: C_6  and  N_1 
REMARK    2  A    between atoms: C_7  and  C_6 
ROOT
ATOM      1  N   UNL d   1      33.227  18.084 -23.252  0.00  0.00    -0.268 N 
ATOM      2  C   UNL d   1      33.229  18.379 -24.275  0.00  0.00     0.265 A 
ATOM      3  C   UNL d   1      33.230  18.790 -22.867  0.00  0.00     0.067 A 
ATOM      4  C   UNL d   1      33.233  19.181 -24.225  0.00  0.00     0.058 A 
ATOM      5  C   UNL d   1      33.233  19.386 -23.440  0.00  0.00     0.021 A 
ATOM      6  O   UNL d   1      33.228  18.003 -25.018  0.00  0.00    -0.267 OA
ATOM      7  C   UNL d   1      33.237  20.179 -23.212  0.00  0.00     0.002 A 
ATOM      8  C   UNL d   1      33.230  18.991 -22.068  0.00  0.00     0.018 A 
ATOM      9  C   UNL d   1      33.237  19.778 -24.803  0.00  0.00     0.005 A 
ATOM     10  C   UNL d   1      33.234  19.784 -21.839  0.00  0.00     0.002 A 
ATOM     11  C   UNL d   1      33.240  20.571 -24.574  0.00  0.00     0.000 A 
ATOM     12  C   UNL d   1      33.241  20.774 -23.767  0.00  0.00     0.000 A 
ATOM     13  C   UNL d   1      33.238  20.383 -22.409  0.00  0.00     0.000 A 
ENDROOT
BRANCH   1  14
ATOM     14  C   UNL d   1      33.223  17.370 -22.822  0.00  0.00     0.154 C 
BRANCH  14  15
ATOM     15  C   UNL d   1      32.795  16.729 -23.129  0.00  0.00     0.230 C 
ATOM     16  O   UNL d   1      33.212  16.130 -23.485  0.00  0.00    -0.643 OA
ATOM     17  O   UNL d   1      31.993  16.698 -23.078  0.00  0.00    -0.643 OA
ENDBRANCH  14  15
ENDBRANCH   1  14
TORSDOF 2
ENDMDL
MODEL 8
REMARK VINA RESULT:      -1.9      4.396      5.685
REMARK  2 active torsions:
REMARK  status: ('A' for Active; 'I' for Inactive)
REMARK    1  A    between atoms: C_6  and  N_1 
REMARK    2  A    between atoms: C_7  and  C_6 
ROOT
ATOM      1  N   UNL d   1      33.229  21.672 -22.325  0.00  0.00    -0.268 N 
ATOM      2  C   UNL d   1      33.224  21.183 -23.271  0.00  0.00     0.265 A 
ATOM      3  C   UNL d   1      33.225  21.054 -21.810  0.00  0.00     0.067 A 
ATOM      4  C   UNL d   1      33.218  20.406 -23.066  0.00  0.00     0.058 A 
ATOM      5  C   UNL d   1      33.219  20.358 -22.256  0.00  0.00     0.021 A 
ATOM      6  O   UNL d   1      33.224  21.407 -24.073  0.00  0.00    -0.267 OA
ATOM      7  C   UNL d   1      33.214  19.625 -21.877  0.00  0.00     0.002 A 
ATOM      8  C   UNL d   1      33.227  21.013 -20.987  0.00  0.00     0.018 A 
ATOM      9  C   UNL d   1      33.212  19.707 -23.515  0.00  0.00     0.005 A 
ATOM     10  C   UNL d   1      33.222  20.280 -20.608  0.00  0.00     0.002 A 
ATOM     11  C   UNL d   1      33.206  18.974 -23.137  0.00  0.00     0.000 A 
ATOM     12  C   UNL d   1      33.208  18.933 -22.305  0.00  0.00     0.000 A 
ATOM     13  C   UNL d   1      33.215  19.582 -21.050  0.00  0.00     0.000 A 
ENDROOT
BRANCH   1  14
ATOM     14  C   UNL d   1      33.236  22.456 -22.042  0.00  0.00     0.154 C 
BRANCH  14  15
ATOM     15  C   UNL d   1      32.824  23.032 -22.474  0.00  0.00     0.230 C 
ATOM     16  O   UNL d   1      32.022  23.091 -22.361  0.00  0.00    -0.643 OA
ATOM     17  O   UNL d   1      33.202  23.519 -22.990  0.00  0.00    -0.643 OA
ENDBRANCH  14  15
ENDBRANCH   1  14
TORSDOF 2
ENDMDL
MODEL 9
REMARK VINA RESULT:      -1.6      5.421      6.672
REMARK  2 active torsions:
REMARK  status: ('A' for Active; 'I' for Inactive)
REMARK    1  A    between atoms: C_6  and  N_1 
REMARK    2  A    between atoms: C_7  and  C_6 
ROOT
ATOM      1  N   UNL d   1      33.108  21.953 -21.488  0.00  0.00    -0.268 N 
ATOM      2  C   UNL d   1      33.102  22.902 -21.971  0.00  0.00     0.265 A 
ATOM      3  C   UNL d   1      33.150  21.442 -22.108  0.00  0.00     0.067 A 
ATOM      4  C   UNL d   1      33.142  22.702 -22.749  0.00  0.00     0.058 A 
ATOM      5  C   UNL d   1      33.168  21.892 -22.801  0.00  0.00     0.021 A 
ATOM      6  O   UNL d   1      33.068  23.702 -21.743  0.00  0.00    -0.267 OA
ATOM      7  C   UNL d   1      33.211  21.519 -23.535  0.00  0.00     0.002 A 
ATOM      8  C   UNL d   1      33.176  20.619 -22.153  0.00  0.00     0.018 A 
ATOM      9  C   UNL d   1      33.159  23.156 -23.444  0.00  0.00     0.005 A 
ATOM     10  C   UNL d   1      33.219  20.246 -22.887  0.00  0.00     0.002 A 
ATOM     11  C   UNL d   1      33.202  22.782 -24.178  0.00  0.00     0.000 A 
ATOM     12  C   UNL d   1      33.228  21.951 -24.224  0.00  0.00     0.000 A 
ATOM     13  C   UNL d   1      33.237  20.692 -23.583  0.00  0.00     0.000 A 
ENDROOT
BRANCH   1  14
ATOM     14  C   UNL d   1      33.082  21.665 -20.706  0.00  0.00     0.154 C 
BRANCH  14  15
ATOM     15  C   UNL d   1      32.690  22.119 -20.133  0.00  0.00     0.230 C 
ATOM     16  O   UNL d   1      33.140  22.477 -19.559  0.00  0.00    -0.643 OA
ATOM     17  O   UNL d   1      31.891  22.206 -20.142  0.00  0.00    -0.643 OA
ENDBRANCH  14  15
ENDBRANCH   1  14
TORSDOF 2
ENDMDL
