MODEL 1
REMARK VINA RESULT:      -7.8      0.000      0.000
REMARK  4 active torsions:
REMARK  status: ('A' for Active; 'I' for Inactive)
REMARK    1  A    between atoms: N_4  and  C_1 
REMARK       I    between atoms: C_10  and  N_4 
REMARK    2  A    between atoms: C_7  and  C_8 
REMARK    3  A    between atoms: O_15  and  C_7 
REMARK    4  A    between atoms: C_17  and  O_15 
ROOT
ATOM      1  C   UNL d   1      53.127  34.089  53.711  0.00  0.00     0.197 A 
ATOM      2  N   UNL d   1      53.906  33.809  53.601  0.00  0.00    -0.221 NA
ATOM      3  S   UNL d   1      52.624  33.436  53.715  0.00  0.00    -0.047 SA
ATOM      4  C   UNL d   1      53.076  32.750  53.610  0.00  0.00     0.050 A 
ATOM      5  C   UNL d   1      53.874  32.983  53.538  0.00  0.00     0.090 A 
ATOM      6  C   UNL d   1      53.457  31.392  53.458  0.00  0.00     0.064 A 
ATOM      7  C   UNL d   1      52.872  31.952  53.568  0.00  0.00     0.013 A 
ATOM      8  C   UNL d   1      54.454  32.412  53.427  0.00  0.00     0.020 A 
ATOM      9  C   UNL d   1      54.256  31.624  53.386  0.00  0.00     0.007 A 
ENDROOT
BRANCH   6  10
ATOM     10  C   UNL d   1      53.268  30.588  53.414  0.00  0.00     0.300 C 
ATOM     11  O   UNL d   1      52.967  30.272  52.727  0.00  0.00    -0.259 OA
BRANCH  10  12
ATOM     12  O   UNL d   1      53.389  30.109  54.083  0.00  0.00    -0.271 OA
BRANCH  12  13
ATOM     13  C   UNL d   1      53.194  29.306  54.061  0.00  0.00     0.126 C 
ATOM     14  C   UNL d   1      53.318  28.836  54.714  0.00  0.00     0.029 C 
ENDBRANCH  12  13
ENDBRANCH  10  12
ENDBRANCH   6  10
BRANCH   1  15
ATOM     15  N   UNL d   1      52.905  34.880  53.800  0.00  0.00    -0.183 NA
ATOM     16  C   UNL d   1      53.018  35.263  54.522  0.00  0.00     0.281 C 
ATOM     17  O   UNL d   1      53.357  34.849  55.163  0.00  0.00    -0.265 OA
ATOM     18  C   UNL d   1      52.799  36.042  54.609  0.00  0.00     0.068 C 
ENDBRANCH   1  15
TORSDOF 4
ENDMDL
MODEL 2
REMARK VINA RESULT:      -7.5      1.554      1.676
REMARK  4 active torsions:
REMARK  status: ('A' for Active; 'I' for Inactive)
REMARK    1  A    between atoms: N_4  and  C_1 
REMARK       I    between atoms: C_10  and  N_4 
REMARK    2  A    between atoms: C_7  and  C_8 
REMARK    3  A    between atoms: O_15  and  C_7 
REMARK    4  A    between atoms: C_17  and  O_15 
ROOT
ATOM      1  C   UNL d   1      51.971  33.437  52.824  0.00  0.00     0.197 A 
ATOM      2  N   UNL d   1      52.658  33.559  53.282  0.00  0.00    -0.221 NA
ATOM      3  S   UNL d   1      51.895  32.627  52.696  0.00  0.00    -0.047 SA
ATOM      4  C   UNL d   1      52.525  32.238  53.066  0.00  0.00     0.050 A 
ATOM      5  C   UNL d   1      53.000  32.819  53.432  0.00  0.00     0.090 A 
ATOM      6  C   UNL d   1      53.400  31.225  53.537  0.00  0.00     0.064 A 
ATOM      7  C   UNL d   1      52.730  31.441  53.122  0.00  0.00     0.013 A 
ATOM      8  C   UNL d   1      53.671  32.591  53.846  0.00  0.00     0.020 A 
ATOM      9  C   UNL d   1      53.876  31.806  53.902  0.00  0.00     0.007 A 
ENDROOT
BRANCH   6  10
ATOM     10  C   UNL d   1      53.618  30.430  53.601  0.00  0.00     0.300 C 
ATOM     11  O   UNL d   1      54.127  30.097  53.059  0.00  0.00    -0.259 OA
BRANCH  10  12
ATOM     12  O   UNL d   1      53.310  29.977  54.225  0.00  0.00    -0.271 OA
BRANCH  12  13
ATOM     13  C   UNL d   1      53.460  29.165  54.264  0.00  0.00     0.126 C 
ATOM     14  C   UNL d   1      53.330  28.756  54.956  0.00  0.00     0.029 C 
ENDBRANCH  12  13
ENDBRANCH  10  12
ENDBRANCH   6  10
BRANCH   1  15
ATOM     15  N   UNL d   1      51.461  34.028  52.550  0.00  0.00    -0.183 NA
ATOM     16  C   UNL d   1      50.713  34.117  52.887  0.00  0.00     0.281 C 
ATOM     17  O   UNL d   1      50.473  33.610  53.506  0.00  0.00    -0.265 OA
ATOM     18  C   UNL d   1      50.211  34.698  52.618  0.00  0.00     0.068 C 
ENDBRANCH   1  15
TORSDOF 4
ENDMDL
MODEL 3
REMARK VINA RESULT:      -7.3      1.978      4.138
REMARK  4 active torsions:
REMARK  status: ('A' for Active; 'I' for Inactive)
REMARK    1  A    between atoms: N_4  and  C_1 
REMARK       I    between atoms: C_10  and  N_4 
REMARK    2  A    between atoms: C_7  and  C_8 
REMARK    3  A    between atoms: O_15  and  C_7 
REMARK    4  A    between atoms: C_17  and  O_15 
ROOT
ATOM      1  C   UNL d   1      53.399  30.759  53.489  0.00  0.00     0.197 A 
ATOM      2  N   UNL d   1      53.820  31.374  53.866  0.00  0.00    -0.221 NA
ATOM      3  S   UNL d   1      52.773  31.100  53.075  0.00  0.00    -0.047 SA
ATOM      4  C   UNL d   1      52.795  31.920  53.186  0.00  0.00     0.050 A 
ATOM      5  C   UNL d   1      53.448  32.090  53.679  0.00  0.00     0.090 A 
ATOM      6  C   UNL d   1      52.483  33.302  53.121  0.00  0.00     0.064 A 
ATOM      7  C   UNL d   1      52.316  32.531  52.910  0.00  0.00     0.013 A 
ATOM      8  C   UNL d   1      53.607  32.869  53.885  0.00  0.00     0.020 A 
ATOM      9  C   UNL d   1      53.135  33.473  53.613  0.00  0.00     0.007 A 
ENDROOT
BRANCH   6  10
ATOM     10  C   UNL d   1      52.011  33.925  52.851  0.00  0.00     0.300 C 
ATOM     11  O   UNL d   1      52.344  34.554  52.456  0.00  0.00    -0.259 OA
BRANCH  10  12
ATOM     12  O   UNL d   1      51.192  33.899  52.989  0.00  0.00    -0.271 OA
BRANCH  12  13
ATOM     13  C   UNL d   1      50.697  34.479  52.670  0.00  0.00     0.126 C 
ATOM     14  C   UNL d   1      49.901  34.480  52.842  0.00  0.00     0.029 C 
ENDBRANCH  12  13
ENDBRANCH  10  12
ENDBRANCH   6  10
BRANCH   1  15
ATOM     15  N   UNL d   1      53.581  29.953  53.527  0.00  0.00    -0.183 NA
ATOM     16  C   UNL d   1      53.373  29.514  54.194  0.00  0.00     0.281 C 
ATOM     17  O   UNL d   1      52.979  29.884  54.830  0.00  0.00    -0.265 OA
ATOM     18  C   UNL d   1      53.552  28.721  54.231  0.00  0.00     0.068 C 
ENDBRANCH   1  15
TORSDOF 4
ENDMDL
MODEL 4
REMARK VINA RESULT:      -7.1      2.620      4.082
REMARK  4 active torsions:
REMARK  status: ('A' for Active; 'I' for Inactive)
REMARK    1  A    between atoms: N_4  and  C_1 
REMARK       I    between atoms: C_10  and  N_4 
REMARK    2  A    between atoms: C_7  and  C_8 
REMARK    3  A    between atoms: O_15  and  C_7 
REMARK    4  A    between atoms: C_17  and  O_15 
ROOT
ATOM      1  C   UNL d   1      53.284  33.612  53.767  0.00  0.00     0.197 A 
ATOM      2  N   UNL d   1      52.756  32.966  53.752  0.00  0.00    -0.221 NA
ATOM      3  S   UNL d   1      52.878  34.275  53.493  0.00  0.00    -0.047 SA
ATOM      4  C   UNL d   1      52.103  34.054  53.306  0.00  0.00     0.050 A 
ATOM      5  C   UNL d   1      52.026  33.238  53.468  0.00  0.00     0.090 A 
ATOM      6  C   UNL d   1      50.749  34.096  52.883  0.00  0.00     0.064 A 
ATOM      7  C   UNL d   1      51.459  34.479  53.013  0.00  0.00     0.013 A 
ATOM      8  C   UNL d   1      51.308  32.864  53.333  0.00  0.00     0.020 A 
ATOM      9  C   UNL d   1      50.673  33.281  53.045  0.00  0.00     0.007 A 
ENDROOT
BRANCH   6  10
ATOM     10  C   UNL d   1      50.095  34.510  52.590  0.00  0.00     0.300 C 
ATOM     11  O   UNL d   1      49.915  34.486  51.796  0.00  0.00    -0.259 OA
BRANCH  10  12
ATOM     12  O   UNL d   1      49.627  34.949  53.117  0.00  0.00    -0.271 OA
BRANCH  12  13
ATOM     13  C   UNL d   1      48.946  35.333  52.849  0.00  0.00     0.126 C 
ATOM     14  C   UNL d   1      48.493  35.774  53.362  0.00  0.00     0.029 C 
ENDBRANCH  12  13
ENDBRANCH  10  12
ENDBRANCH   6  10
BRANCH   1  15
ATOM     15  N   UNL d   1      54.073  33.588  54.013  0.00  0.00    -0.183 NA
ATOM     16  C   UNL d   1      54.259  33.675  54.812  0.00  0.00     0.281 C 
ATOM     17  O   UNL d   1      53.650  33.788  55.372  0.00  0.00    -0.265 OA
ATOM     18  C   UNL d   1      55.036  33.651  55.055  0.00  0.00     0.068 C 
ENDBRANCH   1  15
TORSDOF 4
ENDMDL
MODEL 5
REMARK VINA RESULT:      -7.0      1.585      4.250
REMARK  4 active torsions:
REMARK  status: ('A' for Active; 'I' for Inactive)
REMARK    1  A    between atoms: N_4  and  C_1 
REMARK       I    between atoms: C_10  and  N_4 
REMARK    2  A    between atoms: C_7  and  C_8 
REMARK    3  A    between atoms: O_15  and  C_7 
REMARK    4  A    between atoms: C_17  and  O_15 
ROOT
ATOM      1  C   UNL d   1      53.316  30.718  53.418  0.00  0.00     0.197 A 
ATOM      2  N   UNL d   1      52.599  30.921  53.040  0.00  0.00    -0.221 NA
ATOM      3  S   UNL d   1      53.682  31.417  53.655  0.00  0.00    -0.047 SA
ATOM      4  C   UNL d   1      53.207  32.057  53.431  0.00  0.00     0.050 A 
ATOM      5  C   UNL d   1      52.532  31.748  53.048  0.00  0.00     0.090 A 
ATOM      6  C   UNL d   1      52.715  33.373  53.236  0.00  0.00     0.064 A 
ATOM      7  C   UNL d   1      53.293  32.872  53.522  0.00  0.00     0.013 A 
ATOM      8  C   UNL d   1      51.958  32.261  52.764  0.00  0.00     0.020 A 
ATOM      9  C   UNL d   1      52.041  33.064  52.852  0.00  0.00     0.007 A 
ENDROOT
BRANCH   6  10
ATOM     10  C   UNL d   1      52.789  34.192  53.320  0.00  0.00     0.300 C 
ATOM     11  O   UNL d   1      52.801  34.675  52.665  0.00  0.00    -0.259 OA
BRANCH  10  12
ATOM     12  O   UNL d   1      52.849  34.515  54.084  0.00  0.00    -0.271 OA
BRANCH  12  13
ATOM     13  C   UNL d   1      52.932  35.331  54.186  0.00  0.00     0.126 C 
ATOM     14  C   UNL d   1      52.997  35.647  54.933  0.00  0.00     0.029 C 
ENDBRANCH  12  13
ENDBRANCH  10  12
ENDBRANCH   6  10
BRANCH   1  15
ATOM     15  N   UNL d   1      53.602  29.951  53.532  0.00  0.00    -0.183 NA
ATOM     16  C   UNL d   1      53.294  29.480  54.134  0.00  0.00     0.281 C 
ATOM     17  O   UNL d   1      52.691  29.779  54.630  0.00  0.00    -0.265 OA
ATOM     18  C   UNL d   1      53.576  28.724  54.247  0.00  0.00     0.068 C 
ENDBRANCH   1  15
TORSDOF 4
ENDMDL
MODEL 6
REMARK VINA RESULT:      -6.9      2.693      4.496
REMARK  4 active torsions:
REMARK  status: ('A' for Active; 'I' for Inactive)
REMARK    1  A    between atoms: N_4  and  C_1 
REMARK       I    between atoms: C_10  and  N_4 
REMARK    2  A    between atoms: C_7  and  C_8 
REMARK    3  A    between atoms: O_15  and  C_7 
REMARK    4  A    between atoms: C_17  and  O_15 
ROOT
ATOM      1  C   UNL d   1      52.743  32.240  53.386  0.00  0.00     0.197 A 
ATOM      2  N   UNL d   1      53.026  32.979  53.120  0.00  0.00    -0.221 NA
ATOM      3  S   UNL d   1      51.919  32.269  53.378  0.00  0.00    -0.047 SA
ATOM      4  C   UNL d   1      51.681  33.015  53.111  0.00  0.00     0.050 A 
ATOM      5  C   UNL d   1      52.371  33.458  52.950  0.00  0.00     0.090 A 
ATOM      6  C   UNL d   1      50.882  34.120  52.717  0.00  0.00     0.064 A 
ATOM      7  C   UNL d   1      50.938  33.352  52.992  0.00  0.00     0.013 A 
ATOM      8  C   UNL d   1      52.303  34.228  52.674  0.00  0.00     0.020 A 
ATOM      9  C   UNL d   1      51.572  34.562  52.556  0.00  0.00     0.007 A 
ENDROOT
BRANCH   6  10
ATOM     10  C   UNL d   1      50.143  34.470  52.594  0.00  0.00     0.300 C 
ATOM     11  O   UNL d   1      49.774  34.875  53.195  0.00  0.00    -0.259 OA
BRANCH  10  12
ATOM     12  O   UNL d   1      49.784  34.402  51.847  0.00  0.00    -0.271 OA
BRANCH  12  13
ATOM     13  C   UNL d   1      49.037  34.730  51.712  0.00  0.00     0.126 C 
ATOM     14  C   UNL d   1      48.683  34.657  50.983  0.00  0.00     0.029 C 
ENDBRANCH  12  13
ENDBRANCH  10  12
ENDBRANCH   6  10
BRANCH   1  15
ATOM     15  N   UNL d   1      53.209  31.596  53.615  0.00  0.00    -0.183 NA
ATOM     16  C   UNL d   1      53.239  30.919  53.144  0.00  0.00     0.281 C 
ATOM     17  O   UNL d   1      52.798  30.885  52.436  0.00  0.00    -0.265 OA
ATOM     18  C   UNL d   1      53.697  30.286  53.370  0.00  0.00     0.068 C 
ENDBRANCH   1  15
TORSDOF 4
ENDMDL
MODEL 7
REMARK VINA RESULT:      -6.8      2.434      3.209
REMARK  4 active torsions:
REMARK  status: ('A' for Active; 'I' for Inactive)
REMARK    1  A    between atoms: N_4  and  C_1 
REMARK       I    between atoms: C_10  and  N_4 
REMARK    2  A    between atoms: C_7  and  C_8 
REMARK    3  A    between atoms: O_15  and  C_7 
REMARK    4  A    between atoms: C_17  and  O_15 
ROOT
ATOM      1  C   UNL d   1      50.882  33.859  52.975  0.00  0.00     0.197 A 
ATOM      2  N   UNL d   1      51.045  33.045  52.887  0.00  0.00    -0.221 NA
ATOM      3  S   UNL d   1      51.571  34.226  53.240  0.00  0.00    -0.047 SA
ATOM      4  C   UNL d   1      52.164  33.654  53.319  0.00  0.00     0.050 A 
ATOM      5  C   UNL d   1      51.837  32.919  53.099  0.00  0.00     0.090 A 
ATOM      6  C   UNL d   1      53.408  33.023  53.580  0.00  0.00     0.064 A 
ATOM      7  C   UNL d   1      52.952  33.701  53.560  0.00  0.00     0.013 A 
ATOM      8  C   UNL d   1      52.304  32.244  53.124  0.00  0.00     0.020 A 
ATOM      9  C   UNL d   1      53.081  32.287  53.360  0.00  0.00     0.007 A 
ENDROOT
BRANCH   6  10
ATOM     10  C   UNL d   1      54.199  33.054  53.819  0.00  0.00     0.300 C 
ATOM     11  O   UNL d   1      54.792  32.822  53.312  0.00  0.00    -0.259 OA
BRANCH  10  12
ATOM     12  O   UNL d   1      54.379  33.327  54.583  0.00  0.00    -0.271 OA
BRANCH  12  13
ATOM     13  C   UNL d   1      55.162  33.484  54.796  0.00  0.00     0.126 C 
ATOM     14  C   UNL d   1      55.328  33.881  55.487  0.00  0.00     0.029 C 
ENDBRANCH  12  13
ENDBRANCH  10  12
ENDBRANCH   6  10
BRANCH   1  15
ATOM     15  N   UNL d   1      50.158  34.227  52.823  0.00  0.00    -0.183 NA
ATOM     16  C   UNL d   1      49.952  34.431  52.051  0.00  0.00     0.281 C 
ATOM     17  O   UNL d   1      50.477  34.266  51.423  0.00  0.00    -0.265 OA
ATOM     18  C   UNL d   1      49.239  34.794  51.901  0.00  0.00     0.068 C 
ENDBRANCH   1  15
TORSDOF 4
ENDMDL
