MODEL 1
REMARK VINA RESULT:      12.6      0.000      0.000
REMARK  2 active torsions:
REMARK  status: ('A' for Active; 'I' for Inactive)
REMARK    1  A    between atoms: C_5  and  C_1 
REMARK    2  A    between atoms: N_7  and  C_3 
REMARK       I    between atoms: C_8  and  N_7 
ROOT
ATOM      1  C   UNL d   1      58.199  49.703  50.687  0.00  0.00     0.231 A 
ATOM      2  O   UNL d   1      58.942  49.701  50.325  0.00  0.00    -0.252 OA
ATOM      3  C   UNL d   1      59.513  49.702  50.919  0.00  0.00     0.297 A 
ATOM      4  N   UNL d   1      58.318  49.705  51.497  0.00  0.00    -0.117 NA
ATOM      5  N   UNL d   1      59.128  49.704  51.640  0.00  0.00    -0.101 NA
ENDROOT
BRANCH   1   6
ATOM      6  C   UNL d   1      57.472  49.702  50.293  0.00  0.00     0.168 A 
ATOM      7  O   UNL d   1      57.456  49.708  49.472  0.00  0.00    -0.297 OA
ATOM      8  C   UNL d   1      56.740  49.707  49.084  0.00  0.00     0.149 A 
ATOM      9  C   UNL d   1      56.038  49.702  49.507  0.00  0.00     0.149 A 
ATOM     10  O   UNL d   1      56.043  49.697  50.327  0.00  0.00    -0.299 OA
ATOM     11  C   UNL d   1      56.762  49.697  50.718  0.00  0.00     0.151 A 
ENDBRANCH   1   6
BRANCH   3  12
ATOM     12  N   UNL d   1      60.327  49.701  50.796  0.00  0.00    -0.165 NA
ATOM     13  C   UNL d   1      60.839  49.701  51.429  0.00  0.00     0.282 C 
ATOM     14  O   UNL d   1      60.547  49.703  52.209  0.00  0.00    -0.265 OA
ATOM     15  C   UNL d   1      61.656  49.700  51.305  0.00  0.00     0.068 C 
ENDBRANCH   3  12
TORSDOF 2
ENDMDL
