MODEL 1
REMARK VINA RESULT:      30.0      0.000      0.000
REMARK  1 active torsions:
REMARK  status: ('A' for Active; 'I' for Inactive)
REMARK    1  A    between atoms: C_6  and  C_1 
ROOT
ATOM      1  C   UNL d   1      59.047  49.493  51.155  0.00  0.00     0.148 A 
ATOM      2  N   UNL d   1      59.729  49.541  50.690  0.00  0.00    -0.289 N 
ATOM      3  N   UNL d   1      59.256  49.543  51.943  0.00  0.00    -0.225 NA
ATOM      4  C   UNL d   1      60.359  49.621  51.191  0.00  0.00     0.085 A 
ATOM      5  C   UNL d   1      60.069  49.623  51.966  0.00  0.00     0.118 A 
ATOM      6  C   UNL d   1      59.827  49.518  49.872  0.00  0.00     0.082 A 
ATOM      7  C   UNL d   1      61.135  49.685  50.911  0.00  0.00     0.019 A 
ATOM      8  C   UNL d   1      60.617  49.583  49.565  0.00  0.00     0.019 A 
ATOM      9  C   UNL d   1      61.248  49.663  50.066  0.00  0.00     0.003 A 
ENDROOT
BRANCH   1  10
ATOM     10  C   UNL d   1      58.312  49.407  50.786  0.00  0.00     0.035 A 
ATOM     11  C   UNL d   1      57.581  49.456  51.214  0.00  0.00     0.004 A 
ATOM     12  C   UNL d   1      56.859  49.370  50.843  0.00  0.00     0.011 A 
ATOM     13  C   UNL d   1      56.851  49.236  50.045  0.00  0.00     0.058 A 
ATOM     14  C   UNL d   1      57.543  49.185  49.606  0.00  0.00     0.011 A 
ATOM     15 CL   UNL d   1      56.082  49.149  49.668  0.00  0.00    -0.082 Cl
ATOM     16  C   UNL d   1      58.272  49.270  49.973  0.00  0.00     0.004 A 
ENDBRANCH   1  10
TORSDOF 1
ENDMDL
