MODEL 1
REMARK VINA RESULT:      45.8      0.000      0.000
REMARK  4 active torsions:
REMARK  status: ('A' for Active; 'I' for Inactive)
REMARK    1  A    between atoms: N_5  and  S_1 
REMARK    2  A    between atoms: C_8  and  S_1 
REMARK    3  A    between atoms: C_2  and  C_7 
REMARK    4  A    between atoms: C_11  and  N_5 
ROOT
ATOM      1  C   UNL d   1      15.137  13.500  -0.687  0.00  0.00     0.025 A 
ATOM      2  C   UNL d   1      14.598  13.046  -1.117  0.00  0.00     0.020 A 
ATOM      3  C   UNL d   1      14.558  12.234  -1.010  0.00  0.00     0.094 A 
ATOM      4  C   UNL d   1      15.642  13.143  -0.144  0.00  0.00     0.002 A 
ATOM      5  C   UNL d   1      15.071  11.875  -0.459  0.00  0.00     0.020 A 
ATOM      6  C   UNL d   1      14.094  13.413  -1.662  0.00  0.00     0.002 C 
ATOM      7  C   UNL d   1      15.610  12.334  -0.029  0.00  0.00     0.002 A 
ENDROOT
BRANCH   3   8
ATOM      8  N   UNL d   1      14.027  11.781  -1.433  0.00  0.00    -0.158 NA
BRANCH   8   9
ATOM      9  S   UNL d   1      13.796  12.015  -2.189  0.00  0.00     0.285 S 
ATOM     10  O   UNL d   1      14.538  11.780  -2.477  0.00  0.00    -0.198 OA
ATOM     11  O   UNL d   1      13.057  12.247  -1.892  0.00  0.00    -0.198 OA
BRANCH   9  12
ATOM     12  C   UNL d   1      13.568  12.248  -2.947  0.00  0.00     0.107 A 
ATOM     13  C   UNL d   1      13.920  11.889  -3.607  0.00  0.00     0.040 A 
ATOM     14  C   UNL d   1      13.683  12.131  -4.359  0.00  0.00     0.123 A 
ATOM     15  O   UNL d   1      14.023  11.784  -5.017  0.00  0.00    -0.301 OA
ATOM     16  C   UNL d   1      13.110  12.716  -4.457  0.00  0.00     0.123 A 
ATOM     17  C   UNL d   1      13.798  12.014  -5.774  0.00  0.00     0.149 A 
ATOM     18  C   UNL d   1      13.224  12.600  -5.865  0.00  0.00     0.149 A 
ATOM     19  O   UNL d   1      12.884  12.946  -5.207  0.00  0.00    -0.301 OA
ATOM     20  C   UNL d   1      12.770  13.063  -3.795  0.00  0.00     0.028 A 
ATOM     21  C   UNL d   1      12.997  12.831  -3.037  0.00  0.00     0.015 A 
ENDBRANCH   9  12
ENDBRANCH   8   9
ENDBRANCH   3   8
BRANCH   1  22
ATOM     22  C   UNL d   1      15.168  14.327  -0.806  0.00  0.00     0.112 A 
ATOM     23  S   UNL d   1      15.415  14.884  -0.253  0.00  0.00    -0.047 SA
ATOM     24  C   UNL d   1      15.358  15.639  -0.599  0.00  0.00     0.130 A 
ATOM     25  N   UNL d   1      15.521  16.393  -0.331  0.00  0.00    -0.236 NA
ATOM     26  C   UNL d   1      15.070  15.529  -1.377  0.00  0.00     0.106 A 
ATOM     27  C   UNL d   1      15.404  17.041  -0.819  0.00  0.00     0.100 A 
ATOM     28  C   UNL d   1      15.121  16.938  -1.585  0.00  0.00     0.022 A 
ATOM     29  C   UNL d   1      14.953  16.185  -1.865  0.00  0.00     0.023 A 
ATOM     30  N   UNL d   1      14.952  14.716  -1.505  0.00  0.00    -0.237 NA
ENDBRANCH   1  22
TORSDOF 4
ENDMDL
MODEL 2
REMARK VINA RESULT:      47.9      2.238      4.275
REMARK  4 active torsions:
REMARK  status: ('A' for Active; 'I' for Inactive)
REMARK    1  A    between atoms: N_5  and  S_1 
REMARK    2  A    between atoms: C_8  and  S_1 
REMARK    3  A    between atoms: C_2  and  C_7 
REMARK    4  A    between atoms: C_11  and  N_5 
ROOT
ATOM      1  C   UNL d   1      13.449  12.405  -3.476  0.00  0.00     0.025 A 
ATOM      2  C   UNL d   1      13.223  13.162  -3.717  0.00  0.00     0.020 A 
ATOM      3  C   UNL d   1      12.996  13.302  -4.492  0.00  0.00     0.094 A 
ATOM      4  C   UNL d   1      13.450  11.781  -4.011  0.00  0.00     0.002 A 
ATOM      5  C   UNL d   1      12.998  12.667  -5.033  0.00  0.00     0.020 A 
ATOM      6  C   UNL d   1      13.226  13.785  -3.171  0.00  0.00     0.002 C 
ATOM      7  C   UNL d   1      13.225  11.909  -4.787  0.00  0.00     0.002 A 
ENDROOT
BRANCH   3   8
ATOM      8  N   UNL d   1      12.772  14.049  -4.734  0.00  0.00    -0.158 NA
BRANCH   8   9
ATOM      9  S   UNL d   1      13.315  14.668  -4.718  0.00  0.00     0.285 S 
ATOM     10  O   UNL d   1      13.646  14.382  -5.424  0.00  0.00    -0.198 OA
ATOM     11  O   UNL d   1      12.979  14.946  -4.014  0.00  0.00    -0.198 OA
BRANCH   9  12
ATOM     12  C   UNL d   1      13.861  15.287  -4.706  0.00  0.00     0.107 A 
ATOM     13  C   UNL d   1      14.084  15.620  -3.979  0.00  0.00     0.040 A 
ATOM     14  C   UNL d   1      14.630  16.238  -3.981  0.00  0.00     0.123 A 
ATOM     15  O   UNL d   1      14.857  16.574  -3.271  0.00  0.00    -0.301 OA
ATOM     16  C   UNL d   1      14.949  16.522  -4.687  0.00  0.00     0.123 A 
ATOM     17  C   UNL d   1      15.401  17.191  -3.255  0.00  0.00     0.149 A 
ATOM     18  C   UNL d   1      15.716  17.470  -3.965  0.00  0.00     0.149 A 
ATOM     19  O   UNL d   1      15.489  17.134  -4.675  0.00  0.00    -0.301 OA
ATOM     20  C   UNL d   1      14.720  16.183  -5.399  0.00  0.00     0.028 A 
ATOM     21  C   UNL d   1      14.175  15.564  -5.412  0.00  0.00     0.015 A 
ENDBRANCH   9  12
ENDBRANCH   8   9
ENDBRANCH   3   8
BRANCH   1  22
ATOM     22  C   UNL d   1      13.678  12.276  -2.682  0.00  0.00     0.112 A 
ATOM     23  S   UNL d   1      14.445  12.323  -2.388  0.00  0.00    -0.047 SA
ATOM     24  C   UNL d   1      14.424  12.154  -1.574  0.00  0.00     0.130 A 
ATOM     25  N   UNL d   1      14.998  12.115  -0.993  0.00  0.00    -0.236 NA
ATOM     26  C   UNL d   1      13.625  12.002  -1.377  0.00  0.00     0.106 A 
ATOM     27  C   UNL d   1      14.795  11.930  -0.221  0.00  0.00     0.100 A 
ATOM     28  C   UNL d   1      14.010  11.780  -0.022  0.00  0.00     0.022 A 
ATOM     29  C   UNL d   1      13.425  11.815  -0.597  0.00  0.00     0.023 A 
ATOM     30  N   UNL d   1      13.164  12.078  -2.064  0.00  0.00    -0.237 NA
ENDBRANCH   1  22
TORSDOF 4
ENDMDL
