MODEL 1
REMARK VINA RESULT:      -3.9      0.000      0.000
REMARK  3 active torsions:
REMARK  status: ('A' for Active; 'I' for Inactive)
REMARK    1  A    between atoms: N_5  and  C_1 
REMARK    2  A    between atoms: C_10  and  C_2 
REMARK       I    between atoms: C_8  and  N_5 
REMARK    3  A    between atoms: C_7  and  C_8 
ROOT
ATOM      1  C   UNL d   1      58.503  -0.901  29.951  0.00  0.00     0.119 A 
ATOM      2  C   UNL d   1      59.116  -0.621  29.458  0.00  0.00     0.084 A 
ATOM      3  S   UNL d   1      58.413  -1.705  29.808  0.00  0.00    -0.068 SA
ATOM      4  C   UNL d   1      59.398  -1.259  29.014  0.00  0.00     0.013 A 
ATOM      5  C   UNL d   1      58.960  -1.934  29.233  0.00  0.00     0.031 A 
ATOM      6  C   UNL d   1      60.002  -1.239  28.456  0.00  0.00     0.001 C 
ATOM      7  C   UNL d   1      59.061  -2.691  28.925  0.00  0.00     0.007 C 
ENDROOT
BRANCH   1   8
ATOM      8  N   UNL d   1      58.069  -0.447  30.484  0.00  0.00    -0.201 NA
ATOM      9  C   UNL d   1      57.472  -0.804  30.933  0.00  0.00     0.286 C 
ATOM     10  O   UNL d   1      57.306  -1.598  30.858  0.00  0.00    -0.265 OA
BRANCH   9  11
ATOM     11  C   UNL d   1      57.036  -0.347  31.469  0.00  0.00     0.088 A 
ATOM     12  S   UNL d   1      56.717  -0.602  32.196  0.00  0.00    -0.075 SA
ATOM     13  C   UNL d   1      56.322   0.040  32.550  0.00  0.00     0.064 A 
ATOM     14 BR   UNL d   1      55.920   0.038  33.284  0.00  0.00    -0.042 Br
ATOM     15  C   UNL d   1      56.403   0.682  32.037  0.00  0.00     0.014 A 
ATOM     16  C   UNL d   1      56.837   0.446  31.380  0.00  0.00     0.012 A 
ENDBRANCH   9  11
ENDBRANCH   1   8
BRANCH   2  17
ATOM     17  C   UNL d   1      59.390   0.156  29.421  0.00  0.00     0.299 C 
ATOM     18  O   UNL d   1      59.946   0.428  29.980  0.00  0.00    -0.264 OA
ATOM     19  N   UNL d   1      59.117   0.674  28.830  0.00  0.00    -0.102 N 
ENDBRANCH   2  17
TORSDOF 3
ENDMDL
MODEL 2
REMARK VINA RESULT:      -3.9      1.189      1.810
REMARK  3 active torsions:
REMARK  status: ('A' for Active; 'I' for Inactive)
REMARK    1  A    between atoms: N_5  and  C_1 
REMARK    2  A    between atoms: C_10  and  C_2 
REMARK       I    between atoms: C_8  and  N_5 
REMARK    3  A    between atoms: C_7  and  C_8 
ROOT
ATOM      1  C   UNL d   1      58.225  -0.573  30.034  0.00  0.00     0.119 A 
ATOM      2  C   UNL d   1      58.598  -1.136  29.544  0.00  0.00     0.084 A 
ATOM      3  S   UNL d   1      58.507   0.169  29.824  0.00  0.00    -0.068 SA
ATOM      4  C   UNL d   1      59.108  -0.733  29.034  0.00  0.00     0.013 A 
ATOM      5  C   UNL d   1      59.052   0.080  29.208  0.00  0.00     0.031 A 
ATOM      6  C   UNL d   1      59.589  -1.067  28.455  0.00  0.00     0.001 C 
ATOM      7  C   UNL d   1      59.468   0.682  28.831  0.00  0.00     0.007 C 
ENDROOT
BRANCH   1   8
ATOM      8  N   UNL d   1      57.673  -0.738  30.623  0.00  0.00    -0.201 NA
ATOM      9  C   UNL d   1      57.479  -0.153  31.176  0.00  0.00     0.286 C 
ATOM     10  O   UNL d   1      57.825   0.585  31.148  0.00  0.00    -0.265 OA
BRANCH   9  11
ATOM     11  C   UNL d   1      56.923  -0.319  31.768  0.00  0.00     0.088 A 
ATOM     12  S   UNL d   1      56.521   0.237  32.242  0.00  0.00    -0.075 SA
ATOM     13  C   UNL d   1      56.018  -0.177  32.761  0.00  0.00     0.064 A 
ATOM     14 BR   UNL d   1      55.508   0.156  33.336  0.00  0.00    -0.042 Br
ATOM     15  C   UNL d   1      56.117  -0.980  32.600  0.00  0.00     0.014 A 
ATOM     16  C   UNL d   1      56.668  -1.066  31.997  0.00  0.00     0.012 A 
ENDBRANCH   9  11
ENDBRANCH   1   8
BRANCH   2  17
ATOM     17  C   UNL d   1      58.476  -1.951  29.565  0.00  0.00     0.299 C 
ATOM     18  O   UNL d   1      57.789  -2.279  29.223  0.00  0.00    -0.264 OA
ATOM     19  N   UNL d   1      59.033  -2.454  29.926  0.00  0.00    -0.102 N 
ENDBRANCH   2  17
TORSDOF 3
ENDMDL
MODEL 3
REMARK VINA RESULT:      -3.7      1.453      1.795
REMARK  3 active torsions:
REMARK  status: ('A' for Active; 'I' for Inactive)
REMARK    1  A    between atoms: N_5  and  C_1 
REMARK    2  A    between atoms: C_10  and  C_2 
REMARK       I    between atoms: C_8  and  N_5 
REMARK    3  A    between atoms: C_7  and  C_8 
ROOT
ATOM      1  C   UNL d   1      58.872   0.073  30.189  0.00  0.00     0.119 A 
ATOM      2  C   UNL d   1      59.021  -0.089  29.384  0.00  0.00     0.084 A 
ATOM      3  S   UNL d   1      59.561   0.379  30.515  0.00  0.00    -0.068 SA
ATOM      4  C   UNL d   1      59.804   0.120  29.222  0.00  0.00     0.013 A 
ATOM      5  C   UNL d   1      60.140   0.411  29.926  0.00  0.00     0.031 A 
ATOM      6  C   UNL d   1      60.189   0.055  28.497  0.00  0.00     0.001 C 
ATOM      7  C   UNL d   1      60.913   0.682  30.012  0.00  0.00     0.007 C 
ENDROOT
BRANCH   1   8
ATOM      8  N   UNL d   1      58.159  -0.053  30.582  0.00  0.00    -0.201 NA
ATOM      9  C   UNL d   1      58.077   0.193  31.368  0.00  0.00     0.286 C 
ATOM     10  O   UNL d   1      58.689   0.560  31.761  0.00  0.00    -0.265 OA
BRANCH   9  11
ATOM     11  C   UNL d   1      57.359   0.066  31.763  0.00  0.00     0.088 A 
ATOM     12  S   UNL d   1      56.922   0.631  32.193  0.00  0.00    -0.075 SA
ATOM     13  C   UNL d   1      56.240   0.259  32.495  0.00  0.00     0.064 A 
ATOM     14 BR   UNL d   1      55.642   0.614  32.961  0.00  0.00    -0.042 Br
ATOM     15  C   UNL d   1      56.267  -0.527  32.247  0.00  0.00     0.014 A 
ATOM     16  C   UNL d   1      56.947  -0.645  31.802  0.00  0.00     0.012 A 
ENDBRANCH   9  11
ENDBRANCH   1   8
BRANCH   2  17
ATOM     17  C   UNL d   1      58.480  -0.403  28.846  0.00  0.00     0.299 C 
ATOM     18  O   UNL d   1      57.925   0.097  28.474  0.00  0.00    -0.264 OA
ATOM     19  N   UNL d   1      58.480  -1.216  28.669  0.00  0.00    -0.102 N 
ENDBRANCH   2  17
TORSDOF 3
ENDMDL
MODEL 4
REMARK VINA RESULT:      -1.4      2.359      4.727
REMARK  3 active torsions:
REMARK  status: ('A' for Active; 'I' for Inactive)
REMARK    1  A    between atoms: N_5  and  C_1 
REMARK    2  A    between atoms: C_10  and  C_2 
REMARK       I    between atoms: C_8  and  N_5 
REMARK    3  A    between atoms: C_7  and  C_8 
ROOT
ATOM      1  C   UNL d   1      56.665   0.436  33.150  0.00  0.00     0.119 A 
ATOM      2  C   UNL d   1      55.959   0.241  33.550  0.00  0.00     0.084 A 
ATOM      3  S   UNL d   1      57.230   0.623  33.716  0.00  0.00    -0.068 SA
ATOM      4  C   UNL d   1      56.098   0.309  34.362  0.00  0.00     0.013 A 
ATOM      5  C   UNL d   1      56.889   0.548  34.466  0.00  0.00     0.031 A 
ATOM      6  C   UNL d   1      55.556   0.169  34.966  0.00  0.00     0.001 C 
ATOM      7  C   UNL d   1      57.260   0.682  35.189  0.00  0.00     0.007 C 
ENDROOT
BRANCH   1   8
ATOM      8  N   UNL d   1      56.771   0.440  32.333  0.00  0.00    -0.201 NA
ATOM      9  C   UNL d   1      57.517   0.273  32.018  0.00  0.00     0.286 C 
ATOM     10  O   UNL d   1      58.152   0.105  32.501  0.00  0.00    -0.265 OA
BRANCH   9  11
ATOM     11  C   UNL d   1      57.623   0.276  31.196  0.00  0.00     0.088 A 
ATOM     12  S   UNL d   1      58.216  -0.125  30.769  0.00  0.00    -0.075 SA
ATOM     13  C   UNL d   1      58.111   0.035  29.959  0.00  0.00     0.064 A 
ATOM     14 BR   UNL d   1      58.579  -0.251  29.326  0.00  0.00    -0.042 Br
ATOM     15  C   UNL d   1      57.456   0.533  29.897  0.00  0.00     0.014 A 
ATOM     16  C   UNL d   1      57.160   0.680  30.649  0.00  0.00     0.012 A 
ENDBRANCH   9  11
ENDBRANCH   1   8
BRANCH   2  17
ATOM     17  C   UNL d   1      55.248   0.018  33.195  0.00  0.00     0.299 C 
ATOM     18  O   UNL d   1      55.117  -0.781  32.992  0.00  0.00    -0.264 OA
ATOM     19  N   UNL d   1      54.658   0.582  33.037  0.00  0.00    -0.102 N 
ENDBRANCH   2  17
TORSDOF 3
ENDMDL
