MODEL 1
REMARK VINA RESULT:      17.1      0.000      0.000
REMARK  4 active torsions:
REMARK  status: ('A' for Active; 'I' for Inactive)
REMARK    1  A    between atoms: S_2  and  C_1 
REMARK    2  A    between atoms: C_7  and  S_2 
REMARK    3  A    between atoms: O_13  and  C_6 
REMARK    4  A    between atoms: C_17  and  O_13 
ROOT
ATOM      1  S   UNL d   1      45.941 -16.463  44.236  0.00  0.00     0.228 S 
ATOM      2  O   UNL d   1      46.273 -16.637  44.955  0.00  0.00    -0.216 OA
ATOM      3  O   UNL d   1      45.612 -16.352  43.484  0.00  0.00    -0.216 OA
ENDROOT
BRANCH   1   4
ATOM      4  C   UNL d   1      45.828 -15.705  44.424  0.00  0.00     0.188 A 
ATOM      5  N   UNL d   1      46.308 -15.045  44.341  0.00  0.00    -0.203 NA
ATOM      6  C   UNL d   1      45.870 -14.402  44.646  0.00  0.00     0.217 A 
ATOM      7  S   UNL d   1      45.179 -14.652  44.895  0.00  0.00    -0.029 SA
ATOM      8  C   UNL d   1      45.126 -15.459  44.769  0.00  0.00     0.119 A 
ATOM      9 CL   UNL d   1      44.472 -15.958  44.955  0.00  0.00    -0.073 Cl
BRANCH   6  10
ATOM     10  O   UNL d   1      46.127 -13.587  44.687  0.00  0.00    -0.282 OA
BRANCH  10  11
ATOM     11  C   UNL d   1      45.607 -12.978  44.586  0.00  0.00     0.125 C 
ATOM     12  C   UNL d   1      45.867 -12.207  44.629  0.00  0.00     0.029 C 
ENDBRANCH  10  11
ENDBRANCH   6  10
ENDBRANCH   1   4
BRANCH   1  13
ATOM     13  C   UNL d   1      46.060 -17.284  44.023  0.00  0.00     0.089 A 
ATOM     14  C   UNL d   1      46.146 -17.880  44.604  0.00  0.00     0.011 A 
ATOM     15  C   UNL d   1      46.257 -18.653  44.391  0.00  0.00     0.001 A 
ATOM     16  C   UNL d   1      46.283 -18.835  43.587  0.00  0.00     0.000 A 
ATOM     17  C   UNL d   1      46.202 -18.272  43.024  0.00  0.00     0.001 A 
ATOM     18  C   UNL d   1      46.398 -19.627  43.335  0.00  0.00     0.000 C 
ATOM     19  C   UNL d   1      46.087 -17.473  43.218  0.00  0.00     0.011 A 
ENDBRANCH   1  13
TORSDOF 4
ENDMDL
