MODEL 1
REMARK VINA RESULT:      -2.2      0.000      0.000
REMARK  4 active torsions:
REMARK  status: ('A' for Active; 'I' for Inactive)
REMARK    1  A    between atoms: N_5  and  C_1 
REMARK    2  A    between atoms: C_9  and  C_2 
REMARK       I    between atoms: C_6  and  N_5 
REMARK    3  A    between atoms: C_8  and  C_6 
REMARK    4  A    between atoms: N_10  and  C_9 
ROOT
ATOM      1  C   UNL d   1      32.216  17.420 -23.761  0.00  0.00     0.115 A 
ATOM      2  C   UNL d   1      31.730  17.000 -24.275  0.00  0.00     0.042 A 
ATOM      3  S   UNL d   1      32.496  16.890 -23.183  0.00  0.00    -0.068 SA
ATOM      4  C   UNL d   1      31.708  16.217 -24.019  0.00  0.00     0.009 A 
ATOM      5  C   UNL d   1      32.184  16.159 -23.346  0.00  0.00     0.031 A 
ATOM      6  C   UNL d   1      31.291  15.594 -24.365  0.00  0.00     0.001 C 
ATOM      7  C   UNL d   1      32.325  15.474 -22.902  0.00  0.00     0.007 C 
ENDROOT
BRANCH   1   8
ATOM      8  N   UNL d   1      32.344  18.228 -23.879  0.00  0.00    -0.201 NA
ATOM      9  C   UNL d   1      32.857  18.640 -23.386  0.00  0.00     0.282 C 
ATOM     10  O   UNL d   1      33.241  18.247 -22.776  0.00  0.00    -0.265 OA
BRANCH   9  11
ATOM     11  C   UNL d   1      32.984  19.445 -23.504  0.00  0.00     0.085 A 
ATOM     12  C   UNL d   1      32.984  19.959 -22.863  0.00  0.00     0.145 A 
ATOM     13  F   UNL d   1      32.853  19.658 -22.096  0.00  0.00    -0.204 F 
ATOM     14  C   UNL d   1      33.112  20.763 -22.981  0.00  0.00     0.030 A 
ATOM     15  C   UNL d   1      33.240  21.054 -23.739  0.00  0.00     0.002 A 
ATOM     16  C   UNL d   1      33.241  20.538 -24.383  0.00  0.00     0.000 A 
ATOM     17  C   UNL d   1      33.113  19.733 -24.265  0.00  0.00     0.007 A 
ENDBRANCH   9  11
ENDBRANCH   1   8
BRANCH   2  18
ATOM     18  C   UNL d   1      31.331  17.312 -24.935  0.00  0.00     0.082 C 
BRANCH  18  19
ATOM     19  N   UNL d   1      30.514  17.392 -24.924  0.00  0.00    -0.302 N 
ATOM     20  C   UNL d   1      30.169  18.126 -25.090  0.00  0.00     0.080 A 
ATOM     21  C   UNL d   1      29.346  18.209 -25.080  0.00  0.00     0.019 A 
ATOM     22  C   UNL d   1      28.871  17.558 -24.903  0.00  0.00     0.003 A 
ATOM     23  C   UNL d   1      29.215  16.824 -24.737  0.00  0.00     0.019 A 
ATOM     24  C   UNL d   1      30.035  16.741 -24.747  0.00  0.00     0.080 A 
ENDBRANCH  18  19
ENDBRANCH   2  18
TORSDOF 4
ENDMDL
