MODEL 1
REMARK VINA RESULT:       0.0      0.000      0.000
REMARK  5 active torsions:
REMARK  status: ('A' for Active; 'I' for Inactive)
REMARK    1  A    between atoms: S_3  and  N_1 
REMARK    2  A    between atoms: C_7  and  C_4 
REMARK    3  A    between atoms: C_8  and  C_5 
REMARK    4  A    between atoms: O_21  and  C_13 
REMARK    5  A    between atoms: O_22  and  C_15 
ROOT
ATOM      1  N   UNL d   1     -41.852-121.834 -51.650  0.00  0.00    -0.155 N 
ATOM      2  N   UNL d   1     -41.775-121.890 -52.458  0.00  0.00    -0.155 NA
ATOM      3  C   UNL d   1     -41.607-122.672 -52.648  0.00  0.00     0.110 A 
ATOM      4  C   UNL d   1     -41.731-122.587 -51.337  0.00  0.00     0.096 A 
ATOM      5  C   UNL d   1     -41.581-123.098 -51.955  0.00  0.00     0.041 A 
ENDROOT
BRANCH   4   6
ATOM      6  C   UNL d   1     -41.758-122.786 -50.540  0.00  0.00     0.021 A 
ATOM      7  C   UNL d   1     -42.406-123.199 -50.241  0.00  0.00     0.028 A 
ATOM      8  C   UNL d   1     -42.433-123.400 -49.438  0.00  0.00     0.116 A 
ATOM      9  C   UNL d   1     -41.813-123.188 -48.941  0.00  0.00     0.116 A 
ATOM     10  C   UNL d   1     -41.165-122.775 -49.240  0.00  0.00     0.026 A 
ATOM     11  C   UNL d   1     -41.138-122.576 -50.037  0.00  0.00     0.004 A 
BRANCH   8  12
ATOM     12  O   UNL d   1     -43.082-123.812 -49.139  0.00  0.00    -0.326 OA
ATOM     13  C   UNL d   1     -43.814-123.442 -49.079  0.00  0.00     0.181 C 
ENDBRANCH   8  12
BRANCH   9  14
ATOM     14  O   UNL d   1     -41.840-123.388 -48.138  0.00  0.00    -0.326 OA
ATOM     15  C   UNL d   1     -41.308-123.045 -47.607  0.00  0.00     0.181 C 
ENDBRANCH   9  14
ENDBRANCH   4   6
BRANCH   1  16
ATOM     16  S   UNL d   1     -42.019-121.156 -51.228  0.00  0.00     0.266 S 
ATOM     17  O   UNL d   1     -42.174-120.456 -50.789  0.00  0.00    -0.203 OA
ATOM     18  O   UNL d   1     -42.814-121.228 -51.419  0.00  0.00    -0.203 OA
ATOM     19  C   UNL d   1     -41.230-121.081 -51.035  0.00  0.00     0.165 C 
ENDBRANCH   1  16
BRANCH   3  20
ATOM     20  C   UNL d   1     -41.486-122.966 -53.416  0.00  0.00     0.049 A 
ATOM     21  S   UNL d   1     -41.586-123.748 -53.649  0.00  0.00    -0.085 SA
ATOM     22  C   UNL d   1     -41.409-123.816 -54.468  0.00  0.00     0.035 A 
ATOM     23  C   UNL d   1     -41.201-123.058 -54.726  0.00  0.00     0.007 A 
ATOM     24  C   UNL d   1     -41.252-122.542 -54.070  0.00  0.00     0.009 A 
ENDBRANCH   3  20
TORSDOF 5
ENDMDL
