MODEL 1
REMARK VINA RESULT:      74.4      0.000      0.000
REMARK  5 active torsions:
REMARK  status: ('A' for Active; 'I' for Inactive)
REMARK    1  A    between atoms: N_4  and  S_1 
REMARK    2  A    between atoms: C_5  and  S_1 
REMARK       I    between atoms: N_2  and  C_3 
REMARK    3  A    between atoms: C_3  and  C_11 
REMARK    4  A    between atoms: C_21  and  N_4 
REMARK    5  A    between atoms: C_12  and  C_13 
ROOT
ATOM      1  C   UNL d   1     -51.088  26.537  33.348  0.00  0.00     0.057 A 
ATOM      2  C   UNL d   1     -49.557  27.147  33.342  0.00  0.00     0.094 A 
ATOM      3  C   UNL d   1     -50.445  26.028  33.384  0.00  0.00     0.006 A 
ATOM      4  C   UNL d   1     -50.968  27.357  33.309  0.00  0.00     0.006 A 
ATOM      5  C   UNL d   1     -49.677  26.328  33.381  0.00  0.00     0.020 A 
ATOM      6  C   UNL d   1     -50.200  27.657  33.306  0.00  0.00     0.020 A 
ENDROOT
BRANCH   2   7
ATOM      7  N   UNL d   1     -48.789  27.448  33.339  0.00  0.00    -0.158 NA
BRANCH   7   8
ATOM      8  S   UNL d   1     -48.534  27.950  33.948  0.00  0.00     0.285 S 
ATOM      9  O   UNL d   1     -48.485  28.576  33.412  0.00  0.00    -0.198 OA
ATOM     10  O   UNL d   1     -48.584  27.318  34.485  0.00  0.00    -0.198 OA
BRANCH   8  11
ATOM     11  C   UNL d   1     -48.277  28.454  34.563  0.00  0.00     0.105 A 
ATOM     12  C   UNL d   1     -47.659  28.215  35.050  0.00  0.00     0.013 A 
ATOM     13  C   UNL d   1     -47.404  28.708  35.655  0.00  0.00    -0.004 A 
ATOM     14  C   UNL d   1     -47.765  29.440  35.775  0.00  0.00    -0.023 A 
ATOM     15  C   UNL d   1     -48.383  29.669  35.281  0.00  0.00    -0.004 A 
ATOM     16  C   UNL d   1     -48.642  29.183  34.676  0.00  0.00     0.013 A 
BRANCH  14  17
ATOM     17  C   UNL d   1     -47.515  29.950  36.386  0.00  0.00     0.019 C 
ATOM     18  C   UNL d   1     -47.268  30.454  36.995  0.00  0.00     0.004 C 
ATOM     19  C   UNL d   1     -47.662  29.354  36.944  0.00  0.00     0.004 C 
ATOM     20  C   UNL d   1     -47.370  30.541  35.825  0.00  0.00     0.004 C 
ENDBRANCH  14  17
ENDBRANCH   8  11
ENDBRANCH   7   8
ENDBRANCH   2   7
BRANCH   1  21
ATOM     21  C   UNL d   1     -51.856  26.237  33.351  0.00  0.00     0.265 C 
ATOM     22  N   UNL d   1     -51.971  25.410  33.341  0.00  0.00    -0.268 N 
ATOM     23  C   UNL d   1     -51.323  24.898  33.328  0.00  0.00     0.108 A 
ATOM     24  C   UNL d   1     -52.739  25.109  33.344  0.00  0.00     0.108 A 
ATOM     25  C   UNL d   1     -51.445  24.075  33.318  0.00  0.00     0.118 A 
ATOM     26  C   UNL d   1     -50.795  23.561  33.306  0.00  0.00     0.028 C 
ATOM     27  O   UNL d   1     -52.214  23.775  33.321  0.00  0.00    -0.304 OA
ATOM     28  C   UNL d   1     -52.865  24.285  33.334  0.00  0.00     0.118 A 
ATOM     29  C   UNL d   1     -53.635  23.979  33.337  0.00  0.00     0.028 C 
ATOM     30  O   UNL d   1     -52.499  26.747  33.363  0.00  0.00    -0.267 OA
ENDBRANCH   1  21
TORSDOF 5
ENDMDL
