MODEL 1
REMARK VINA RESULT:      -3.5      0.000      0.000
REMARK  5 active torsions:
REMARK  status: ('A' for Active; 'I' for Inactive)
REMARK    1  A    between atoms: C_9  and  S_1 
REMARK    2  A    between atoms: C_14  and  S_1 
REMARK    3  A    between atoms: C_7  and  C_10 
REMARK       I    between atoms: N_11  and  C_7 
REMARK    4  A    between atoms: C_10  and  C_9 
REMARK    5  A    between atoms: C_15  and  N_11 
ROOT
ATOM      1  C   UNL d   1      32.992  19.403 -22.613  0.00  0.00     0.280 C 
ATOM      2  N   UNL d   1      32.665  19.246 -23.358  0.00  0.00    -0.208 NA
ATOM      3  O   UNL d   1      33.241  18.766 -22.134  0.00  0.00    -0.265 OA
ENDROOT
BRANCH   1   4
ATOM      4  C   UNL d   1      33.073  20.167 -22.345  0.00  0.00     0.075 C 
BRANCH   4   5
ATOM      5  C   UNL d   1      32.886  20.336 -21.646  0.00  0.00     0.104 C 
BRANCH   5   6
ATOM      6  S   UNL d   1      32.843  21.087 -21.279  0.00  0.00     0.211 S 
ATOM      7  O   UNL d   1      32.795  21.456 -22.024  0.00  0.00    -0.217 OA
ATOM      8  O   UNL d   1      32.892  20.709 -20.525  0.00  0.00    -0.217 OA
BRANCH   6   9
ATOM      9  C   UNL d   1      32.801  21.826 -20.911  0.00  0.00     0.088 A 
ATOM     10  C   UNL d   1      32.472  22.470 -21.308  0.00  0.00     0.011 A 
ATOM     11  C   UNL d   1      32.429  23.211 -20.940  0.00  0.00     0.001 A 
ATOM     12  C   UNL d   1      32.718  23.302 -20.174  0.00  0.00     0.000 A 
ATOM     13  C   UNL d   1      33.050  22.666 -19.766  0.00  0.00     0.001 A 
ATOM     14  C   UNL d   1      33.091  21.923 -20.138  0.00  0.00     0.011 A 
ENDBRANCH   6   9
ENDBRANCH   5   6
ENDBRANCH   4   5
ENDBRANCH   1   4
BRANCH   2  15
ATOM     15  C   UNL d   1      32.583  18.477 -23.632  0.00  0.00     0.085 A 
ATOM     16  C   UNL d   1      31.854  18.108 -23.602  0.00  0.00     0.027 A 
ATOM     17  C   UNL d   1      31.782  17.342 -23.878  0.00  0.00     0.050 A 
ATOM     18  S   UNL d   1      31.135  16.827 -23.923  0.00  0.00    -0.066 SA
ATOM     19  C   UNL d   1      32.446  16.940 -24.186  0.00  0.00     0.088 A 
ATOM     20  C   UNL d   1      31.386  16.114 -24.254  0.00  0.00     0.111 A 
ATOM     21  C   UNL d   1      30.920  15.453 -24.397  0.00  0.00     0.028 C 
ATOM     22  N   UNL d   1      32.208  16.192 -24.416  0.00  0.00    -0.239 NA
ATOM     23  C   UNL d   1      33.169  17.314 -24.213  0.00  0.00     0.021 A 
ATOM     24  C   UNL d   1      33.240  18.080 -23.937  0.00  0.00     0.021 A 
ENDBRANCH   2  15
TORSDOF 5
ENDMDL
MODEL 2
REMARK VINA RESULT:      -3.1      0.726      1.030
REMARK  5 active torsions:
REMARK  status: ('A' for Active; 'I' for Inactive)
REMARK    1  A    between atoms: C_9  and  S_1 
REMARK    2  A    between atoms: C_14  and  S_1 
REMARK    3  A    between atoms: C_7  and  C_10 
REMARK       I    between atoms: N_11  and  C_7 
REMARK    4  A    between atoms: C_10  and  C_9 
REMARK    5  A    between atoms: C_15  and  N_11 
ROOT
ATOM      1  C   UNL d   1      32.935  19.842 -22.695  0.00  0.00     0.280 C 
ATOM      2  N   UNL d   1      33.229  19.068 -22.647  0.00  0.00    -0.208 NA
ATOM      3  O   UNL d   1      32.421  20.046 -23.321  0.00  0.00    -0.265 OA
ENDROOT
BRANCH   1   4
ATOM      4  C   UNL d   1      33.141  20.401 -22.141  0.00  0.00     0.075 C 
BRANCH   4   5
ATOM      5  C   UNL d   1      32.660  20.938 -21.962  0.00  0.00     0.104 C 
BRANCH   5   6
ATOM      6  S   UNL d   1      32.716  21.513 -21.355  0.00  0.00     0.211 S 
ATOM      7  O   UNL d   1      32.198  21.070 -20.878  0.00  0.00    -0.217 OA
ATOM      8  O   UNL d   1      33.241  21.960 -21.843  0.00  0.00    -0.217 OA
BRANCH   6   9
ATOM      9  C   UNL d   1      32.775  22.084 -20.760  0.00  0.00     0.088 A 
ATOM     10  C   UNL d   1      33.157  21.906 -20.051  0.00  0.00     0.011 A 
ATOM     11  C   UNL d   1      33.218  22.478 -19.454  0.00  0.00     0.001 A 
ATOM     12  C   UNL d   1      32.894  23.226 -19.572  0.00  0.00     0.000 A 
ATOM     13  C   UNL d   1      32.509  23.415 -20.278  0.00  0.00     0.001 A 
ATOM     14  C   UNL d   1      32.450  22.840 -20.875  0.00  0.00     0.011 A 
ENDBRANCH   6   9
ENDBRANCH   5   6
ENDBRANCH   4   5
ENDBRANCH   1   4
BRANCH   2  15
ATOM     15  C   UNL d   1      33.023  18.501 -23.204  0.00  0.00     0.085 A 
ATOM     16  C   UNL d   1      32.614  17.832 -22.975  0.00  0.00     0.027 A 
ATOM     17  C   UNL d   1      32.414  17.273 -23.538  0.00  0.00     0.050 A 
ATOM     18  S   UNL d   1      32.009  16.553 -23.485  0.00  0.00    -0.066 SA
ATOM     19  C   UNL d   1      32.627  17.385 -24.337  0.00  0.00     0.088 A 
ATOM     20  C   UNL d   1      31.967  16.216 -24.236  0.00  0.00     0.111 A 
ATOM     21  C   UNL d   1      31.612  15.501 -24.431  0.00  0.00     0.028 C 
ATOM     22  N   UNL d   1      32.356  16.743 -24.765  0.00  0.00    -0.239 NA
ATOM     23  C   UNL d   1      33.035  18.053 -24.558  0.00  0.00     0.021 A 
ATOM     24  C   UNL d   1      33.234  18.612 -23.996  0.00  0.00     0.021 A 
ENDBRANCH   2  15
TORSDOF 5
ENDMDL
MODEL 3
REMARK VINA RESULT:      -3.1      1.829      5.848
REMARK  5 active torsions:
REMARK  status: ('A' for Active; 'I' for Inactive)
REMARK    1  A    between atoms: C_9  and  S_1 
REMARK    2  A    between atoms: C_14  and  S_1 
REMARK    3  A    between atoms: C_7  and  C_10 
REMARK       I    between atoms: N_11  and  C_7 
REMARK    4  A    between atoms: C_10  and  C_9 
REMARK    5  A    between atoms: C_15  and  N_11 
ROOT
ATOM      1  C   UNL d   1      32.892  20.894 -21.912  0.00  0.00     0.280 C 
ATOM      2  N   UNL d   1      33.150  21.682 -21.910  0.00  0.00    -0.208 NA
ATOM      3  O   UNL d   1      32.387  20.628 -21.302  0.00  0.00    -0.265 OA
ENDROOT
BRANCH   1   4
ATOM      4  C   UNL d   1      33.124  20.381 -22.499  0.00  0.00     0.075 C 
BRANCH   4   5
ATOM      5  C   UNL d   1      33.056  19.648 -22.397  0.00  0.00     0.104 C 
BRANCH   5   6
ATOM      6  S   UNL d   1      33.059  19.036 -22.968  0.00  0.00     0.211 S 
ATOM      7  O   UNL d   1      33.228  19.585 -23.569  0.00  0.00    -0.217 OA
ATOM      8  O   UNL d   1      32.887  18.480 -22.355  0.00  0.00    -0.217 OA
BRANCH   6   9
ATOM      9  C   UNL d   1      33.060  18.425 -23.526  0.00  0.00     0.088 A 
ATOM     10  C   UNL d   1      33.201  18.591 -24.321  0.00  0.00     0.011 A 
ATOM     11  C   UNL d   1      33.202  17.980 -24.883  0.00  0.00     0.001 A 
ATOM     12  C   UNL d   1      33.062  17.206 -24.640  0.00  0.00     0.000 A 
ATOM     13  C   UNL d   1      32.921  17.027 -23.847  0.00  0.00     0.001 A 
ATOM     14  C   UNL d   1      32.920  17.642 -23.286  0.00  0.00     0.011 A 
ENDBRANCH   6   9
ENDBRANCH   5   6
ENDBRANCH   4   5
ENDBRANCH   1   4
BRANCH   2  15
ATOM     15  C   UNL d   1      32.918  22.203 -21.320  0.00  0.00     0.085 A 
ATOM     16  C   UNL d   1      33.240  22.144 -20.572  0.00  0.00     0.027 A 
ATOM     17  C   UNL d   1      33.003  22.668 -19.991  0.00  0.00     0.050 A 
ATOM     18  S   UNL d   1      33.220  22.752 -19.196  0.00  0.00    -0.066 SA
ATOM     19  C   UNL d   1      32.437  23.258 -20.161  0.00  0.00     0.088 A 
ATOM     20  C   UNL d   1      32.799  23.382 -18.871  0.00  0.00     0.111 A 
ATOM     21  C   UNL d   1      32.849  23.653 -18.096  0.00  0.00     0.028 C 
ATOM     22  N   UNL d   1      32.310  23.694 -19.481  0.00  0.00    -0.239 NA
ATOM     23  C   UNL d   1      32.119  23.311 -20.908  0.00  0.00     0.021 A 
ATOM     24  C   UNL d   1      32.357  22.787 -21.489  0.00  0.00     0.021 A 
ENDBRANCH   2  15
TORSDOF 5
ENDMDL
MODEL 4
REMARK VINA RESULT:      -2.5      1.512      5.738
REMARK  5 active torsions:
REMARK  status: ('A' for Active; 'I' for Inactive)
REMARK    1  A    between atoms: C_9  and  S_1 
REMARK    2  A    between atoms: C_14  and  S_1 
REMARK    3  A    between atoms: C_7  and  C_10 
REMARK       I    between atoms: N_11  and  C_7 
REMARK    4  A    between atoms: C_10  and  C_9 
REMARK    5  A    between atoms: C_15  and  N_11 
ROOT
ATOM      1  C   UNL d   1      32.832  19.722 -22.686  0.00  0.00     0.280 C 
ATOM      2  N   UNL d   1      33.240  20.116 -22.082  0.00  0.00    -0.208 NA
ATOM      3  O   UNL d   1      32.260  20.137 -23.131  0.00  0.00    -0.265 OA
ENDROOT
BRANCH   1   4
ATOM      4  C   UNL d   1      32.983  18.940 -22.850  0.00  0.00     0.075 C 
BRANCH   4   5
ATOM      5  C   UNL d   1      32.660  18.615 -23.435  0.00  0.00     0.104 C 
BRANCH   5   6
ATOM      6  S   UNL d   1      32.698  17.816 -23.680  0.00  0.00     0.211 S 
ATOM      7  O   UNL d   1      33.076  17.607 -22.969  0.00  0.00    -0.217 OA
ATOM      8  O   UNL d   1      32.313  18.031 -24.401  0.00  0.00    -0.217 OA
BRANCH   6   9
ATOM      9  C   UNL d   1      32.732  17.028 -23.929  0.00  0.00     0.088 A 
ATOM     10  C   UNL d   1      33.127  16.830 -24.626  0.00  0.00     0.011 A 
ATOM     11  C   UNL d   1      33.162  16.040 -24.877  0.00  0.00     0.001 A 
ATOM     12  C   UNL d   1      32.800  15.454 -24.426  0.00  0.00     0.000 A 
ATOM     13  C   UNL d   1      32.402  15.640 -23.727  0.00  0.00     0.001 A 
ATOM     14  C   UNL d   1      32.368  16.433 -23.478  0.00  0.00     0.011 A 
ENDBRANCH   6   9
ENDBRANCH   5   6
ENDBRANCH   4   5
ENDBRANCH   1   4
BRANCH   2  15
ATOM     15  C   UNL d   1      33.091  20.905 -21.914  0.00  0.00     0.085 A 
ATOM     16  C   UNL d   1      32.818  21.122 -21.175  0.00  0.00     0.027 A 
ATOM     17  C   UNL d   1      32.673  21.911 -21.017  0.00  0.00     0.050 A 
ATOM     18  S   UNL d   1      32.400  22.300 -20.340  0.00  0.00    -0.066 SA
ATOM     19  C   UNL d   1      32.802  22.489 -21.605  0.00  0.00     0.088 A 
ATOM     20  C   UNL d   1      32.358  23.109 -20.497  0.00  0.00     0.111 A 
ATOM     21  C   UNL d   1      32.114  23.695 -19.974  0.00  0.00     0.028 C 
ATOM     22  N   UNL d   1      32.611  23.220 -21.291  0.00  0.00    -0.239 NA
ATOM     23  C   UNL d   1      33.074  22.267 -22.339  0.00  0.00     0.021 A 
ATOM     24  C   UNL d   1      33.219  21.478 -22.496  0.00  0.00     0.021 A 
ENDBRANCH   2  15
TORSDOF 5
ENDMDL
