MODEL 1
REMARK VINA RESULT:      -2.8      0.000      0.000
REMARK  8 active torsions:
REMARK  status: ('A' for Active; 'I' for Inactive)
REMARK    1  A    between atoms: C_7  and  C_1 
REMARK    2  A    between atoms: N_5  and  C_2 
REMARK       I    between atoms: C_8  and  N_5 
REMARK    3  A    between atoms: N_9  and  C_7 
REMARK    4  A    between atoms: C_12  and  C_7 
REMARK    5  A    between atoms: C_10  and  C_8 
REMARK    6  A    between atoms: C_11  and  C_14 
REMARK    7  A    between atoms: O_25  and  C_11 
REMARK    8  A    between atoms: C_31  and  O_25 
ROOT
ATOM      1  C   UNL d   1      53.386  33.569  53.851  0.00  0.00     0.068 C 
ENDROOT
BRANCH   1   2
ATOM      2  C   UNL d   1      53.999  33.113  53.525  0.00  0.00     0.041 A 
ATOM      3  C   UNL d   1      54.071  32.303  53.410  0.00  0.00     0.115 A 
ATOM      4  S   UNL d   1      54.806  32.167  53.060  0.00  0.00    -0.068 SA
ATOM      5  C   UNL d   1      55.178  32.894  52.963  0.00  0.00     0.031 A 
ATOM      6  C   UNL d   1      54.675  33.495  53.254  0.00  0.00     0.009 A 
ATOM      7  C   UNL d   1      55.938  33.004  52.626  0.00  0.00     0.007 C 
ATOM      8  C   UNL d   1      54.830  34.305  53.264  0.00  0.00     0.001 C 
BRANCH   3   9
ATOM      9  N   UNL d   1      53.506  31.707  53.609  0.00  0.00    -0.200 NA
ATOM     10  C   UNL d   1      53.665  30.901  53.424  0.00  0.00     0.302 C 
ATOM     11  O   UNL d   1      54.359  30.710  53.057  0.00  0.00    -0.263 OA
BRANCH  10  12
ATOM     12  C   UNL d   1      53.098  30.323  53.626  0.00  0.00     0.158 A 
ATOM     13  O   UNL d   1      52.320  30.220  53.365  0.00  0.00    -0.300 OA
ATOM     14  C   UNL d   1      52.022  29.550  53.756  0.00  0.00     0.123 A 
ATOM     15  C   UNL d   1      52.647  29.257  54.256  0.00  0.00     0.029 A 
ATOM     16  C   UNL d   1      53.295  29.751  54.156  0.00  0.00     0.032 A 
ENDBRANCH  10  12
ENDBRANCH   3   9
ENDBRANCH   1   2
BRANCH   1  17
ATOM     17  N   UNL d   1      52.677  33.727  53.420  0.00  0.00    -0.304 N 
ATOM     18  C   UNL d   1      52.665  34.236  52.768  0.00  0.00     0.080 A 
ATOM     19  C   UNL d   1      51.961  34.368  52.371  0.00  0.00     0.024 A 
ATOM     20  C   UNL d   1      51.277  34.004  52.614  0.00  0.00     0.067 A 
ATOM     21  C   UNL d   1      51.257  33.495  53.257  0.00  0.00     0.024 A 
ATOM     22  C   UNL d   1      51.964  33.351  53.669  0.00  0.00     0.080 A 
BRANCH  20  23
ATOM     23  C   UNL d   1      50.603  34.163  52.193  0.00  0.00     0.300 C 
ATOM     24  O   UNL d   1      50.559  34.044  51.381  0.00  0.00    -0.259 OA
BRANCH  23  25
ATOM     25  O   UNL d   1      49.915  34.456  52.563  0.00  0.00    -0.271 OA
BRANCH  25  26
ATOM     26  C   UNL d   1      49.328  34.680  51.890  0.00  0.00     0.126 C 
ATOM     27  C   UNL d   1      48.699  35.029  52.164  0.00  0.00     0.029 C 
ENDBRANCH  25  26
ENDBRANCH  23  25
ENDBRANCH  20  23
ENDBRANCH   1  17
BRANCH   1  28
ATOM     28  C   UNL d   1      53.444  33.893  54.626  0.00  0.00     0.035 A 
ATOM     29  C   UNL d   1      53.303  34.696  54.741  0.00  0.00     0.100 A 
ATOM     30  N   UNL d   1      53.358  35.014  55.493  0.00  0.00    -0.242 NA
ATOM     31  C   UNL d   1      53.567  34.497  56.167  0.00  0.00     0.099 A 
ATOM     32  C   UNL d   1      53.701  33.684  56.001  0.00  0.00     0.021 A 
ATOM     33  C   UNL d   1      53.643  33.386  55.253  0.00  0.00     0.005 A 
ENDBRANCH   1  28
TORSDOF 8
ENDMDL
MODEL 2
REMARK VINA RESULT:      -2.6      1.184      4.315
REMARK  8 active torsions:
REMARK  status: ('A' for Active; 'I' for Inactive)
REMARK    1  A    between atoms: C_7  and  C_1 
REMARK    2  A    between atoms: N_5  and  C_2 
REMARK       I    between atoms: C_8  and  N_5 
REMARK    3  A    between atoms: N_9  and  C_7 
REMARK    4  A    between atoms: C_12  and  C_7 
REMARK    5  A    between atoms: C_10  and  C_8 
REMARK    6  A    between atoms: C_11  and  C_14 
REMARK    7  A    between atoms: O_25  and  C_11 
REMARK    8  A    between atoms: C_31  and  O_25 
ROOT
ATOM      1  C   UNL d   1      53.859  32.949  53.906  0.00  0.00     0.068 C 
ENDROOT
BRANCH   1   2
ATOM      2  C   UNL d   1      53.448  33.545  54.313  0.00  0.00     0.041 A 
ATOM      3  C   UNL d   1      52.754  33.945  54.134  0.00  0.00     0.115 A 
ATOM      4  S   UNL d   1      52.611  34.480  54.745  0.00  0.00    -0.068 SA
ATOM      5  C   UNL d   1      53.219  34.405  55.294  0.00  0.00     0.031 A 
ATOM      6  C   UNL d   1      53.751  33.817  55.028  0.00  0.00     0.009 A 
ATOM      7  C   UNL d   1      53.286  34.849  56.001  0.00  0.00     0.007 C 
ATOM      8  C   UNL d   1      54.437  33.565  55.409  0.00  0.00     0.001 C 
BRANCH   3   9
ATOM      9  N   UNL d   1      52.264  33.838  53.453  0.00  0.00    -0.200 NA
ATOM     10  C   UNL d   1      51.705  34.431  53.243  0.00  0.00     0.302 C 
ATOM     11  O   UNL d   1      51.645  35.097  53.698  0.00  0.00    -0.263 OA
BRANCH  10  12
ATOM     12  C   UNL d   1      51.228  34.313  52.568  0.00  0.00     0.158 A 
ATOM     13  O   UNL d   1      51.431  34.276  51.767  0.00  0.00    -0.300 OA
ATOM     14  C   UNL d   1      50.725  34.148  51.347  0.00  0.00     0.123 A 
ATOM     15  C   UNL d   1      50.098  34.110  51.921  0.00  0.00     0.029 A 
ATOM     16  C   UNL d   1      50.436  34.215  52.663  0.00  0.00     0.032 A 
ENDBRANCH  10  12
ENDBRANCH   3   9
ENDBRANCH   1   2
BRANCH   1  17
ATOM     17  N   UNL d   1      53.622  32.140  53.952  0.00  0.00    -0.304 N 
ATOM     18  C   UNL d   1      53.712  31.696  54.644  0.00  0.00     0.080 A 
ATOM     19  C   UNL d   1      53.471  30.913  54.656  0.00  0.00     0.024 A 
ATOM     20  C   UNL d   1      53.147  30.571  53.995  0.00  0.00     0.067 A 
ATOM     21  C   UNL d   1      53.045  30.986  53.294  0.00  0.00     0.024 A 
ATOM     22  C   UNL d   1      53.284  31.781  53.267  0.00  0.00     0.080 A 
BRANCH  20  23
ATOM     23  C   UNL d   1      52.922  29.795  54.051  0.00  0.00     0.300 C 
ATOM     24  O   UNL d   1      52.578  29.396  53.420  0.00  0.00    -0.259 OA
BRANCH  23  25
ATOM     25  O   UNL d   1      53.030  29.357  54.753  0.00  0.00    -0.271 OA
BRANCH  25  26
ATOM     26  C   UNL d   1      53.287  28.510  54.500  0.00  0.00     0.126 C 
ATOM     27  C   UNL d   1      53.468  28.073  55.107  0.00  0.00     0.029 C 
ENDBRANCH  25  26
ENDBRANCH  23  25
ENDBRANCH  20  23
ENDBRANCH   1  17
BRANCH   1  28
ATOM     28  C   UNL d   1      54.530  33.125  53.429  0.00  0.00     0.035 A 
ATOM     29  C   UNL d   1      54.422  33.367  52.650  0.00  0.00     0.100 A 
ATOM     30  N   UNL d   1      55.072  33.539  52.183  0.00  0.00    -0.242 NA
ATOM     31  C   UNL d   1      55.876  33.463  52.519  0.00  0.00     0.099 A 
ATOM     32  C   UNL d   1      55.937  33.212  53.319  0.00  0.00     0.021 A 
ATOM     33  C   UNL d   1      55.285  33.047  53.765  0.00  0.00     0.005 A 
ENDBRANCH   1  28
TORSDOF 8
ENDMDL
