MODEL 1
REMARK VINA RESULT:      27.9      0.000      0.000
REMARK  4 active torsions:
REMARK  status: ('A' for Active; 'I' for Inactive)
REMARK    1  A    between atoms: C_7  and  C_1 
REMARK    2  A    between atoms: N_5  and  C_2 
REMARK    3  A    between atoms: C_12  and  N_5 
REMARK    4  A    between atoms: O_21  and  C_14 
ROOT
ATOM      1  C   UNL d   1      14.304  12.247  -1.268  0.00  0.00     0.101 A 
ATOM      2  C   UNL d   1      14.679  12.953  -1.514  0.00  0.00     0.187 A 
ATOM      3  C   UNL d   1      13.787  11.865  -1.784  0.00  0.00     0.010 A 
ATOM      4  O   UNL d   1      14.525  13.255  -2.269  0.00  0.00    -0.289 OA
ATOM      5  C   UNL d   1      14.006  12.868  -2.781  0.00  0.00     0.104 A 
ATOM      6  C   UNL d   1      13.631  12.161  -2.534  0.00  0.00     0.023 A 
ATOM      7  C   UNL d   1      13.852  13.169  -3.536  0.00  0.00     0.049 A 
ATOM      8  C   UNL d   1      13.114  11.779  -3.051  0.00  0.00     0.004 A 
ATOM      9  C   UNL d   1      13.332  12.782  -4.051  0.00  0.00     0.096 A 
ATOM     10  C   UNL d   1      12.957  12.076  -3.804  0.00  0.00     0.024 A 
ENDROOT
BRANCH   2  11
ATOM     11  N   UNL d   1      15.196  13.340  -1.005  0.00  0.00    -0.222 NA
BRANCH  11  12
ATOM     12  C   UNL d   1      15.136  14.169  -0.903  0.00  0.00     0.084 A 
ATOM     13  C   UNL d   1      15.159  14.492  -0.146  0.00  0.00     0.019 A 
ATOM     14  C   UNL d   1      15.099  15.312  -0.045  0.00  0.00     0.002 A 
ATOM     15  C   UNL d   1      15.019  15.789  -0.704  0.00  0.00     0.000 A 
ATOM     16  C   UNL d   1      14.996  15.478  -1.457  0.00  0.00     0.002 A 
ATOM     17  C   UNL d   1      14.959  16.608  -0.621  0.00  0.00     0.000 C 
ATOM     18  C   UNL d   1      15.056  14.659  -1.557  0.00  0.00     0.019 A 
ENDBRANCH  11  12
ENDBRANCH   2  11
BRANCH   1  19
ATOM     19  C   UNL d   1      14.450  11.935  -0.514  0.00  0.00     0.300 C 
ATOM     20  O   UNL d   1      15.217  11.781  -0.270  0.00  0.00    -0.264 OA
ATOM     21  N   UNL d   1      13.811  11.782  -0.014  0.00  0.00    -0.102 N 
ENDBRANCH   1  19
BRANCH   9  22
ATOM     22  O   UNL d   1      13.179  13.076  -4.794  0.00  0.00    -0.328 OA
ATOM     23  C   UNL d   1      12.797  13.804  -4.870  0.00  0.00     0.181 C 
ENDBRANCH   9  22
TORSDOF 4
ENDMDL
