MODEL 1
REMARK VINA RESULT:      -3.2      0.000      0.000
REMARK  5 active torsions:
REMARK  status: ('A' for Active; 'I' for Inactive)
REMARK    1  A    between atoms: C_2  and  S_1 
REMARK    2  A    between atoms: N_4  and  S_1 
REMARK    3  A    between atoms: C_15  and  N_4 
REMARK    4  A    between atoms: N_7  and  C_6 
REMARK    5  A    between atoms: C_12  and  C_13 
ROOT
ATOM      1  C   UNL d   1      33.019  19.832 -23.103  0.00  0.00     0.021 A 
ATOM      2  C   UNL d   1      32.923  18.466 -23.513  0.00  0.00     0.094 A 
ATOM      3  C   UNL d   1      32.881  19.039 -22.920  0.00  0.00     0.021 A 
ATOM      4  C   UNL d   1      33.199  20.052 -23.878  0.00  0.00     0.002 A 
ATOM      5  C   UNL d   1      33.240  19.479 -24.467  0.00  0.00     0.002 A 
ATOM      6  C   UNL d   1      33.102  18.686 -24.284  0.00  0.00     0.020 A 
ENDROOT
BRANCH   1   7
ATOM      7  C   UNL d   1      32.977  20.405 -22.510  0.00  0.00     0.103 A 
ATOM      8  N   UNL d   1      32.776  20.188 -21.739  0.00  0.00    -0.147 NA
ATOM      9  N   UNL d   1      32.734  20.762 -21.147  0.00  0.00    -0.130 NA
ATOM     10  C   UNL d   1      32.893  21.551 -21.325  0.00  0.00     0.170 A 
ATOM     11  C   UNL d   1      33.094  21.767 -22.096  0.00  0.00     0.041 A 
ATOM     12  C   UNL d   1      33.136  21.195 -22.688  0.00  0.00     0.024 A 
BRANCH  10  13
ATOM     13  N   UNL d   1      32.853  22.122 -20.741  0.00  0.00    -0.284 N 
ATOM     14  C   UNL d   1      32.445  22.826 -20.875  0.00  0.00     0.108 A 
ATOM     15  C   UNL d   1      32.404  23.397 -20.291  0.00  0.00     0.142 A 
ATOM     16  O   UNL d   1      32.774  23.266 -19.564  0.00  0.00    -0.300 OA
ATOM     17  C   UNL d   1      33.182  22.562 -19.430  0.00  0.00     0.142 A 
ATOM     18  C   UNL d   1      33.220  21.989 -20.023  0.00  0.00     0.108 A 
ENDBRANCH  10  13
ENDBRANCH   1   7
BRANCH   2  19
ATOM     19  N   UNL d   1      32.785  17.674 -23.331  0.00  0.00    -0.158 NA
BRANCH  19  20
ATOM     20  S   UNL d   1      32.138  17.282 -23.653  0.00  0.00     0.285 S 
ATOM     21  O   UNL d   1      32.583  17.096 -24.325  0.00  0.00    -0.198 OA
ATOM     22  O   UNL d   1      31.691  17.472 -22.975  0.00  0.00    -0.198 OA
BRANCH  20  23
ATOM     23  C   UNL d   1      31.491  16.887 -23.984  0.00  0.00     0.106 A 
ATOM     24  C   UNL d   1      30.840  17.301 -24.252  0.00  0.00     0.025 A 
ATOM     25  C   UNL d   1      30.197  16.910 -24.581  0.00  0.00     0.069 A 
ATOM     26 CL   UNL d   1      29.537  17.328 -24.852  0.00  0.00    -0.082 Cl
ATOM     27  C   UNL d   1      30.210  16.087 -24.641  0.00  0.00     0.068 A 
ATOM     28  C   UNL d   1      30.866  15.665 -24.371  0.00  0.00     0.013 A 
ATOM     29 CL   UNL d   1      29.564  15.674 -24.973  0.00  0.00    -0.082 Cl
ATOM     30  C   UNL d   1      31.505  16.064 -24.044  0.00  0.00     0.014 A 
ENDBRANCH  20  23
ENDBRANCH  19  20
ENDBRANCH   2  19
TORSDOF 5
ENDMDL
MODEL 2
REMARK VINA RESULT:      -2.9      2.649      5.818
REMARK  5 active torsions:
REMARK  status: ('A' for Active; 'I' for Inactive)
REMARK    1  A    between atoms: C_2  and  S_1 
REMARK    2  A    between atoms: N_4  and  S_1 
REMARK    3  A    between atoms: C_15  and  N_4 
REMARK    4  A    between atoms: N_7  and  C_6 
REMARK    5  A    between atoms: C_12  and  C_13 
ROOT
ATOM      1  C   UNL d   1      31.678  18.208 -24.298  0.00  0.00     0.021 A 
ATOM      2  C   UNL d   1      32.799  18.848 -23.686  0.00  0.00     0.094 A 
ATOM      3  C   UNL d   1      32.117  18.387 -23.623  0.00  0.00     0.021 A 
ATOM      4  C   UNL d   1      31.920  18.490 -25.036  0.00  0.00     0.002 A 
ATOM      5  C   UNL d   1      32.599  18.949 -25.095  0.00  0.00     0.002 A 
ATOM      6  C   UNL d   1      33.039  19.128 -24.420  0.00  0.00     0.020 A 
ENDROOT
BRANCH   1   7
ATOM      7  C   UNL d   1      30.996  17.746 -24.236  0.00  0.00     0.103 A 
ATOM      8  N   UNL d   1      31.017  17.033 -23.821  0.00  0.00    -0.147 NA
ATOM      9  N   UNL d   1      30.335  16.571 -23.760  0.00  0.00    -0.130 NA
ATOM     10  C   UNL d   1      29.633  16.823 -24.112  0.00  0.00     0.170 A 
ATOM     11  C   UNL d   1      29.613  17.537 -24.527  0.00  0.00     0.041 A 
ATOM     12  C   UNL d   1      30.294  17.998 -24.589  0.00  0.00     0.024 A 
BRANCH  10  13
ATOM     13  N   UNL d   1      28.956  16.369 -24.053  0.00  0.00    -0.284 N 
ATOM     14  C   UNL d   1      28.566  16.296 -23.330  0.00  0.00     0.108 A 
ATOM     15  C   UNL d   1      27.888  15.842 -23.270  0.00  0.00     0.142 A 
ATOM     16  O   UNL d   1      27.595  15.455 -23.938  0.00  0.00    -0.300 OA
ATOM     17  C   UNL d   1      27.985  15.528 -24.661  0.00  0.00     0.142 A 
ATOM     18  C   UNL d   1      28.668  15.988 -24.716  0.00  0.00     0.108 A 
ENDBRANCH  10  13
ENDBRANCH   1   7
BRANCH   2  19
ATOM     19  N   UNL d   1      33.238  19.028 -23.011  0.00  0.00    -0.158 NA
BRANCH  19  20
ATOM     20  S   UNL d   1      33.083  19.715 -22.588  0.00  0.00     0.285 S 
ATOM     21  O   UNL d   1      33.236  20.168 -23.264  0.00  0.00    -0.198 OA
ATOM     22  O   UNL d   1      32.930  19.258 -21.908  0.00  0.00    -0.198 OA
BRANCH  20  23
ATOM     23  C   UNL d   1      32.929  20.411 -22.169  0.00  0.00     0.106 A 
ATOM     24  C   UNL d   1      33.096  21.141 -22.496  0.00  0.00     0.025 A 
ATOM     25  C   UNL d   1      32.943  21.834 -22.081  0.00  0.00     0.069 A 
ATOM     26 CL   UNL d   1      33.111  22.574 -22.410  0.00  0.00    -0.082 Cl
ATOM     27  C   UNL d   1      32.616  21.791 -21.325  0.00  0.00     0.068 A 
ATOM     28  C   UNL d   1      32.446  21.054 -20.991  0.00  0.00     0.013 A 
ATOM     29 CL   UNL d   1      32.455  22.486 -20.889  0.00  0.00    -0.082 Cl
ATOM     30  C   UNL d   1      32.602  20.367 -21.413  0.00  0.00     0.014 A 
ENDBRANCH  20  23
ENDBRANCH  19  20
ENDBRANCH   2  19
TORSDOF 5
ENDMDL
MODEL 3
REMARK VINA RESULT:      -2.0      0.871      1.334
REMARK  5 active torsions:
REMARK  status: ('A' for Active; 'I' for Inactive)
REMARK    1  A    between atoms: C_2  and  S_1 
REMARK    2  A    between atoms: N_4  and  S_1 
REMARK    3  A    between atoms: C_15  and  N_4 
REMARK    4  A    between atoms: N_7  and  C_6 
REMARK    5  A    between atoms: C_12  and  C_13 
ROOT
ATOM      1  C   UNL d   1      33.188  20.414 -22.323  0.00  0.00     0.021 A 
ATOM      2  C   UNL d   1      33.224  19.096 -22.875  0.00  0.00     0.094 A 
ATOM      3  C   UNL d   1      33.199  19.595 -22.218  0.00  0.00     0.021 A 
ATOM      4  C   UNL d   1      33.201  20.732 -23.084  0.00  0.00     0.002 A 
ATOM      5  C   UNL d   1      33.225  20.233 -23.737  0.00  0.00     0.002 A 
ATOM      6  C   UNL d   1      33.237  19.415 -23.632  0.00  0.00     0.020 A 
ENDROOT
BRANCH   1   7
ATOM      7  C   UNL d   1      33.163  20.914 -21.667  0.00  0.00     0.103 A 
ATOM      8  N   UNL d   1      33.118  21.731 -21.772  0.00  0.00    -0.147 NA
ATOM      9  N   UNL d   1      33.093  22.232 -21.116  0.00  0.00    -0.130 NA
ATOM     10  C   UNL d   1      33.114  21.915 -20.354  0.00  0.00     0.170 A 
ATOM     11  C   UNL d   1      33.160  21.097 -20.250  0.00  0.00     0.041 A 
ATOM     12  C   UNL d   1      33.184  20.597 -20.905  0.00  0.00     0.024 A 
BRANCH  10  13
ATOM     13  N   UNL d   1      33.090  22.407 -19.702  0.00  0.00    -0.284 N 
ATOM     14  C   UNL d   1      33.231  22.105 -18.948  0.00  0.00     0.108 A 
ATOM     15  C   UNL d   1      33.207  22.597 -18.295  0.00  0.00     0.142 A 
ATOM     16  O   UNL d   1      33.041  23.399 -18.394  0.00  0.00    -0.300 OA
ATOM     17  C   UNL d   1      32.900  23.702 -19.148  0.00  0.00     0.142 A 
ATOM     18  C   UNL d   1      32.926  23.201 -19.804  0.00  0.00     0.108 A 
ENDBRANCH  10  13
ENDBRANCH   1   7
BRANCH   2  19
ATOM     19  N   UNL d   1      33.235  18.278 -22.770  0.00  0.00    -0.158 NA
BRANCH  19  20
ATOM     20  S   UNL d   1      32.749  17.796 -23.226  0.00  0.00     0.285 S 
ATOM     21  O   UNL d   1      32.274  17.647 -22.565  0.00  0.00    -0.198 OA
ATOM     22  O   UNL d   1      33.229  17.948 -23.891  0.00  0.00    -0.198 OA
BRANCH  20  23
ATOM     23  C   UNL d   1      32.256  17.310 -23.678  0.00  0.00     0.106 A 
ATOM     24  C   UNL d   1      31.485  17.529 -23.837  0.00  0.00     0.025 A 
ATOM     25  C   UNL d   1      30.994  17.047 -24.286  0.00  0.00     0.069 A 
ATOM     26 CL   UNL d   1      30.213  17.268 -24.447  0.00  0.00    -0.082 Cl
ATOM     27  C   UNL d   1      31.284  16.333 -24.580  0.00  0.00     0.068 A 
ATOM     28  C   UNL d   1      32.063  16.108 -24.421  0.00  0.00     0.013 A 
ATOM     29 CL   UNL d   1      30.797  15.832 -25.038  0.00  0.00    -0.082 Cl
ATOM     30  C   UNL d   1      32.546  16.596 -23.972  0.00  0.00     0.014 A 
ENDBRANCH  20  23
ENDBRANCH  19  20
ENDBRANCH   2  19
TORSDOF 5
ENDMDL
