MODEL 1
REMARK VINA RESULT:      -2.5      0.000      0.000
REMARK  8 active torsions:
REMARK  status: ('A' for Active; 'I' for Inactive)
REMARK    1  A    between atoms: C_3  and  N_1 
REMARK    2  A    between atoms: C_8  and  N_2 
REMARK    3  A    between atoms: C_6  and  C_3 
REMARK    4  A    between atoms: C_9  and  C_3 
REMARK       I    between atoms: C_4  and  N_7 
REMARK    5  A    between atoms: C_5  and  C_4 
REMARK       I    between atoms: N_10  and  C_5 
REMARK    6  A    between atoms: N_7  and  C_9 
REMARK    7  A    between atoms: C_22  and  N_10 
REMARK    8  A    between atoms: C_24  and  C_22 
ROOT
ATOM      1  C   UNL d   1      57.975   0.625  31.616  0.00  0.00     0.106 C 
ENDROOT
BRANCH   1   2
ATOM      2  N   UNL d   1      57.351   0.617  32.167  0.00  0.00    -0.298 N 
ATOM      3  C   UNL d   1      56.575   0.546  31.896  0.00  0.00     0.100 A 
ATOM      4  C   UNL d   1      55.949   0.537  32.433  0.00  0.00     0.100 A 
ATOM      5  N   UNL d   1      56.098   0.600  33.242  0.00  0.00    -0.299 N 
ATOM      6  C   UNL d   1      56.874   0.671  33.509  0.00  0.00     0.100 A 
ATOM      7  C   UNL d   1      57.501   0.680  32.976  0.00  0.00     0.100 A 
BRANCH   5   8
ATOM      8  C   UNL d   1      55.476   0.591  33.774  0.00  0.00     0.092 A 
ATOM      9  C   UNL d   1      55.621   0.545  34.583  0.00  0.00     0.156 A 
ATOM     10  F   UNL d   1      56.397   0.507  34.858  0.00  0.00    -0.203 F 
ATOM     11  C   UNL d   1      54.997   0.536  35.120  0.00  0.00     0.031 A 
ATOM     12  C   UNL d   1      54.220   0.574  34.845  0.00  0.00     0.002 A 
ATOM     13  C   UNL d   1      54.072   0.621  34.030  0.00  0.00     0.002 A 
ATOM     14  C   UNL d   1      54.699   0.629  33.499  0.00  0.00     0.020 A 
ENDBRANCH   5   8
ENDBRANCH   1   2
BRANCH   1  15
ATOM     15  C   UNL d   1      58.759   0.647  31.872  0.00  0.00     0.118 A 
ATOM     16  O   UNL d   1      59.483   0.659  31.464  0.00  0.00    -0.304 OA
ATOM     17  C   UNL d   1      60.088   0.680  32.012  0.00  0.00     0.123 A 
ATOM     18  C   UNL d   1      59.752   0.681  32.765  0.00  0.00     0.029 A 
ATOM     19  C   UNL d   1      58.929   0.660  32.671  0.00  0.00     0.028 A 
ENDBRANCH   1  15
BRANCH   1  20
ATOM     20  C   UNL d   1      57.804   0.611  30.801  0.00  0.00     0.122 C 
BRANCH  20  21
ATOM     21  N   UNL d   1      58.276   0.169  30.288  0.00  0.00    -0.201 NA
ATOM     22  C   UNL d   1      58.054   0.061  29.497  0.00  0.00     0.337 C 
ATOM     23  O   UNL d   1      57.355   0.402  29.226  0.00  0.00    -0.260 OA
BRANCH  22  24
ATOM     24  C   UNL d   1      58.524  -0.376  28.995  0.00  0.00     0.337 C 
ATOM     25  N   UNL d   1      58.443  -1.197  28.964  0.00  0.00    -0.202 NA
ATOM     26  O   UNL d   1      59.080   0.002  28.515  0.00  0.00    -0.260 OA
BRANCH  25  27
ATOM     27  C   UNL d   1      58.918  -1.640  28.456  0.00  0.00     0.102 C 
BRANCH  27  28
ATOM     28  C   UNL d   1      59.075  -2.429  28.620  0.00  0.00     0.019 A 
ATOM     29  C   UNL d   1      58.476  -2.993  28.553  0.00  0.00     0.002 A 
ATOM     30  C   UNL d   1      58.630  -3.779  28.717  0.00  0.00     0.000 A 
ATOM     31  C   UNL d   1      59.394  -4.014  28.953  0.00  0.00     0.000 A 
ATOM     32  C   UNL d   1      59.992  -3.450  29.020  0.00  0.00     0.000 A 
ATOM     33  C   UNL d   1      59.832  -2.658  28.854  0.00  0.00     0.002 A 
ENDBRANCH  27  28
ENDBRANCH  25  27
ENDBRANCH  22  24
ENDBRANCH  20  21
ENDBRANCH   1  20
TORSDOF 8
ENDMDL
MODEL 2
REMARK VINA RESULT:      -0.0      2.219      6.148
REMARK  8 active torsions:
REMARK  status: ('A' for Active; 'I' for Inactive)
REMARK    1  A    between atoms: C_3  and  N_1 
REMARK    2  A    between atoms: C_8  and  N_2 
REMARK    3  A    between atoms: C_6  and  C_3 
REMARK    4  A    between atoms: C_9  and  C_3 
REMARK       I    between atoms: C_4  and  N_7 
REMARK    5  A    between atoms: C_5  and  C_4 
REMARK       I    between atoms: N_10  and  C_5 
REMARK    6  A    between atoms: N_7  and  C_9 
REMARK    7  A    between atoms: C_22  and  N_10 
REMARK    8  A    between atoms: C_24  and  C_22 
ROOT
ATOM      1  C   UNL d   1      59.077  -2.365  29.182  0.00  0.00     0.106 C 
ENDROOT
BRANCH   1   2
ATOM      2  N   UNL d   1      58.883  -3.165  29.061  0.00  0.00    -0.298 N 
ATOM      3  C   UNL d   1      58.091  -3.380  28.976  0.00  0.00     0.100 A 
ATOM      4  C   UNL d   1      57.887  -4.171  28.856  0.00  0.00     0.100 A 
ATOM      5  N   UNL d   1      58.477  -4.747  28.819  0.00  0.00    -0.299 N 
ATOM      6  C   UNL d   1      59.266  -4.529  28.903  0.00  0.00     0.100 A 
ATOM      7  C   UNL d   1      59.473  -3.741  29.024  0.00  0.00     0.100 A 
BRANCH   5   8
ATOM      8  C   UNL d   1      58.274  -5.531  28.699  0.00  0.00     0.092 A 
ATOM      9  C   UNL d   1      57.488  -5.744  28.576  0.00  0.00     0.156 A 
ATOM     10  F   UNL d   1      56.903  -5.163  28.574  0.00  0.00    -0.203 F 
ATOM     11  C   UNL d   1      57.282  -6.532  28.455  0.00  0.00     0.031 A 
ATOM     12  C   UNL d   1      57.867  -7.113  28.457  0.00  0.00     0.002 A 
ATOM     13  C   UNL d   1      58.659  -6.900  28.581  0.00  0.00     0.002 A 
ATOM     14  C   UNL d   1      58.859  -6.112  28.701  0.00  0.00     0.020 A 
ENDBRANCH   5   8
ENDBRANCH   1   2
BRANCH   1  15
ATOM     15  C   UNL d   1      59.866  -2.126  29.219  0.00  0.00     0.118 A 
ATOM     16  O   UNL d   1      60.442  -2.178  29.815  0.00  0.00    -0.304 OA
ATOM     17  C   UNL d   1      61.133  -1.845  29.537  0.00  0.00     0.123 A 
ATOM     18  C   UNL d   1      60.999  -1.581  28.767  0.00  0.00     0.029 A 
ATOM     19  C   UNL d   1      60.212  -1.758  28.577  0.00  0.00     0.028 A 
ENDBRANCH   1  15
BRANCH   1  20
ATOM     20  C   UNL d   1      58.468  -1.803  29.267  0.00  0.00     0.122 C 
BRANCH  20  21
ATOM     21  N   UNL d   1      58.439  -1.324  29.938  0.00  0.00    -0.201 NA
ATOM     22  C   UNL d   1      57.892  -0.705  29.992  0.00  0.00     0.337 C 
ATOM     23  O   UNL d   1      57.375  -0.570  29.365  0.00  0.00    -0.260 OA
BRANCH  22  24
ATOM     24  C   UNL d   1      57.867  -0.235  30.657  0.00  0.00     0.337 C 
ATOM     25  N   UNL d   1      57.188  -0.219  31.127  0.00  0.00    -0.202 NA
ATOM     26  O   UNL d   1      58.521   0.227  30.862  0.00  0.00    -0.260 OA
BRANCH  25  27
ATOM     27  C   UNL d   1      57.163   0.257  31.801  0.00  0.00     0.102 C 
BRANCH  27  28
ATOM     28  C   UNL d   1      56.712   0.031  32.448  0.00  0.00     0.019 A 
ATOM     29  C   UNL d   1      56.973   0.197  33.213  0.00  0.00     0.002 A 
ATOM     30  C   UNL d   1      56.525  -0.027  33.860  0.00  0.00     0.000 A 
ATOM     31  C   UNL d   1      55.801  -0.425  33.747  0.00  0.00     0.000 A 
ATOM     32  C   UNL d   1      55.540  -0.591  32.983  0.00  0.00     0.000 A 
ATOM     33  C   UNL d   1      55.996  -0.363  32.333  0.00  0.00     0.002 A 
ENDBRANCH  27  28
ENDBRANCH  25  27
ENDBRANCH  22  24
ENDBRANCH  20  21
ENDBRANCH   1  20
TORSDOF 8
ENDMDL
