MODEL 1
REMARK VINA RESULT:      65.3      0.000      0.000
REMARK  4 active torsions:
REMARK  status: ('A' for Active; 'I' for Inactive)
REMARK    1  A    between atoms: C_6  and  N_1 
REMARK    2  A    between atoms: N_8  and  C_4 
REMARK    3  A    between atoms: N_7  and  C_10 
REMARK    4  A    between atoms: C_16  and  N_8 
ROOT
ATOM      1  N   UNL d   1      58.234  49.707  50.581  0.00  0.00    -0.238 N 
ATOM      2  C   UNL d   1      58.385  49.707  51.414  0.00  0.00     0.269 A 
ATOM      3  C   UNL d   1      58.949  49.708  50.187  0.00  0.00     0.285 A 
ATOM      4  C   UNL d   1      59.567  49.708  50.766  0.00  0.00     0.142 A 
ATOM      5  C   UNL d   1      59.194  49.707  51.497  0.00  0.00     0.085 A 
ATOM      6  O   UNL d   1      57.851  49.707  52.031  0.00  0.00    -0.267 OA
ATOM      7  O   UNL d   1      59.033  49.708  49.362  0.00  0.00    -0.265 OA
ENDROOT
BRANCH   4   8
ATOM      8  N   UNL d   1      60.372  49.708  50.638  0.00  0.00    -0.241 NA
BRANCH   8   9
ATOM      9  C   UNL d   1      60.753  49.016  50.424  0.00  0.00     0.082 A 
ATOM     10  C   UNL d   1      60.805  48.389  50.965  0.00  0.00     0.021 A 
ATOM     11  C   UNL d   1      61.185  47.682  50.768  0.00  0.00     0.019 A 
ATOM     12  C   UNL d   1      61.523  47.605  50.002  0.00  0.00     0.064 A 
ATOM     13  C   UNL d   1      61.476  48.228  49.450  0.00  0.00     0.019 A 
ATOM     14  C   UNL d   1      61.088  48.933  49.670  0.00  0.00     0.021 A 
BRANCH  12  15
ATOM     15  N   UNL d   1      61.905  46.911  49.785  0.00  0.00    -0.300 N 
ATOM     16  C   UNL d   1      62.682  46.943  49.533  0.00  0.00     0.107 A 
ATOM     17  C   UNL d   1      63.072  46.257  49.314  0.00  0.00     0.142 A 
ATOM     18  O   UNL d   1      62.672  45.533  49.351  0.00  0.00    -0.300 OA
ATOM     19  C   UNL d   1      61.880  45.492  49.607  0.00  0.00     0.142 A 
ATOM     20  C   UNL d   1      61.505  46.190  49.822  0.00  0.00     0.107 A 
ENDBRANCH  12  15
ENDBRANCH   8   9
ENDBRANCH   4   8
BRANCH   1  21
ATOM     21  C   UNL d   1      57.505  49.707  50.218  0.00  0.00     0.097 A 
ATOM     22  C   UNL d   1      56.824  49.706  50.670  0.00  0.00     0.156 A 
ATOM     23  F   UNL d   1      56.859  49.705  51.491  0.00  0.00    -0.203 F 
ATOM     24  C   UNL d   1      56.082  49.706  50.303  0.00  0.00     0.031 A 
ATOM     25  C   UNL d   1      56.033  49.707  49.484  0.00  0.00     0.002 A 
ATOM     26  C   UNL d   1      56.721  49.708  49.035  0.00  0.00     0.002 A 
ATOM     27  C   UNL d   1      57.459  49.708  49.405  0.00  0.00     0.020 A 
ENDBRANCH   1  21
TORSDOF 4
ENDMDL
