MODEL 1
REMARK VINA RESULT:      -2.7      0.000      0.000
REMARK  6 active torsions:
REMARK  status: ('A' for Active; 'I' for Inactive)
REMARK    1  A    between atoms: C_9  and  N_1 
REMARK    2  A    between atoms: C_8  and  C_3 
REMARK       I    between atoms: N_12  and  C_8 
REMARK    3  A    between atoms: C_17  and  C_9 
REMARK    4  A    between atoms: C_23  and  N_12 
REMARK    5  A    between atoms: C_13  and  C_23 
REMARK    6  A    between atoms: C_20  and  C_17 
ROOT
ATOM      1  N   UNL d   1      33.051  19.504 -23.032  0.00  0.00    -0.273 N 
ATOM      2  C   UNL d   1      33.078  19.534 -22.213  0.00  0.00     0.177 A 
ATOM      3  C   UNL d   1      33.137  20.327 -21.987  0.00  0.00     0.115 A 
ATOM      4  C   UNL d   1      33.092  20.276 -23.324  0.00  0.00     0.167 A 
ATOM      5  C   UNL d   1      33.145  20.786 -22.677  0.00  0.00     0.123 A 
ATOM      6  N   UNL d   1      33.089  20.580 -24.090  0.00  0.00    -0.225 NA
ATOM      7  N   UNL d   1      33.195  21.599 -22.795  0.00  0.00    -0.241 NA
ATOM      8  C   UNL d   1      33.138  21.394 -24.208  0.00  0.00     0.101 A 
ATOM      9  C   UNL d   1      33.191  21.903 -23.561  0.00  0.00     0.099 A 
ATOM     10  N   UNL d   1      33.051  18.885 -21.705  0.00  0.00    -0.128 N 
ATOM     11  C   UNL d   1      33.134  21.698 -24.973  0.00  0.00     0.021 A 
ATOM     12  C   UNL d   1      33.241  22.717 -23.679  0.00  0.00     0.021 A 
ATOM     13  C   UNL d   1      33.184  22.515 -25.094  0.00  0.00     0.002 A 
ATOM     14  C   UNL d   1      33.237  23.024 -24.447  0.00  0.00     0.002 A 
ENDROOT
BRANCH   1  15
ATOM     15  C   UNL d   1      32.992  18.822 -23.495  0.00  0.00     0.083 C 
BRANCH  15  16
ATOM     16  C   UNL d   1      32.510  18.197 -23.247  0.00  0.00     0.021 C 
BRANCH  16  17
ATOM     17  C   UNL d   1      32.400  17.551 -23.746  0.00  0.00     0.029 A 
ATOM     18  C   UNL d   1      31.644  17.358 -23.994  0.00  0.00     0.140 A 
ATOM     19  F   UNL d   1      31.125  17.912 -23.651  0.00  0.00    -0.204 F 
ATOM     20  C   UNL d   1      31.524  16.721 -24.487  0.00  0.00     0.030 A 
ATOM     21  C   UNL d   1      32.174  16.267 -24.737  0.00  0.00     0.002 A 
ATOM     22  C   UNL d   1      32.929  16.466 -24.485  0.00  0.00     0.000 A 
ATOM     23  C   UNL d   1      33.040  17.106 -23.990  0.00  0.00     0.002 A 
ENDBRANCH  16  17
ENDBRANCH  15  16
ENDBRANCH   1  15
BRANCH   3  24
ATOM     24  C   UNL d   1      33.179  20.618 -21.214  0.00  0.00     0.284 C 
ATOM     25  N   UNL d   1      33.160  21.433 -21.087  0.00  0.00    -0.204 NA
ATOM     26  O   UNL d   1      33.241  20.100 -20.576  0.00  0.00    -0.265 OA
BRANCH  25  27
ATOM     27  C   UNL d   1      33.203  21.728 -20.307  0.00  0.00     0.127 C 
BRANCH  27  28
ATOM     28  C   UNL d   1      32.935  22.484 -20.138  0.00  0.00     0.119 A 
ATOM     29  O   UNL d   1      32.376  22.904 -20.574  0.00  0.00    -0.304 OA
ATOM     30  C   UNL d   1      32.272  23.636 -20.209  0.00  0.00     0.123 A 
ATOM     31  C   UNL d   1      32.775  23.657 -19.544  0.00  0.00     0.029 A 
ATOM     32  C   UNL d   1      33.175  22.955 -19.506  0.00  0.00     0.028 A 
ENDBRANCH  27  28
ENDBRANCH  25  27
ENDBRANCH   3  24
TORSDOF 6
ENDMDL
MODEL 2
REMARK VINA RESULT:      -0.4      2.403      4.378
REMARK  6 active torsions:
REMARK  status: ('A' for Active; 'I' for Inactive)
REMARK    1  A    between atoms: C_9  and  N_1 
REMARK    2  A    between atoms: C_8  and  C_3 
REMARK       I    between atoms: N_12  and  C_8 
REMARK    3  A    between atoms: C_17  and  C_9 
REMARK    4  A    between atoms: C_23  and  N_12 
REMARK    5  A    between atoms: C_13  and  C_23 
REMARK    6  A    between atoms: C_20  and  C_17 
ROOT
ATOM      1  N   UNL d   1      30.705  17.861 -24.395  0.00  0.00    -0.273 N 
ATOM      2  C   UNL d   1      31.026  18.581 -24.618  0.00  0.00     0.177 A 
ATOM      3  C   UNL d   1      31.790  18.629 -24.306  0.00  0.00     0.115 A 
ATOM      4  C   UNL d   1      31.263  17.453 -23.942  0.00  0.00     0.167 A 
ATOM      5  C   UNL d   1      31.935  17.929 -23.887  0.00  0.00     0.123 A 
ATOM      6  N   UNL d   1      31.247  16.717 -23.575  0.00  0.00    -0.225 NA
ATOM      7  N   UNL d   1      32.592  17.668 -23.465  0.00  0.00    -0.241 NA
ATOM      8  C   UNL d   1      31.904  16.455 -23.152  0.00  0.00     0.101 A 
ATOM      9  C   UNL d   1      32.576  16.931 -23.097  0.00  0.00     0.099 A 
ATOM     10  N   UNL d   1      30.652  19.157 -25.076  0.00  0.00    -0.128 N 
ATOM     11  C   UNL d   1      31.889  15.718 -22.785  0.00  0.00     0.021 A 
ATOM     12  C   UNL d   1      33.234  16.670 -22.675  0.00  0.00     0.021 A 
ATOM     13  C   UNL d   1      32.548  15.454 -22.360  0.00  0.00     0.002 A 
ATOM     14  C   UNL d   1      33.220  15.929 -22.305  0.00  0.00     0.002 A 
ENDROOT
BRANCH   1  15
ATOM     15  C   UNL d   1      29.950  17.582 -24.586  0.00  0.00     0.083 C 
BRANCH  15  16
ATOM     16  C   UNL d   1      29.283  17.941 -24.255  0.00  0.00     0.021 C 
BRANCH  16  17
ATOM     17  C   UNL d   1      28.645  17.473 -24.026  0.00  0.00     0.029 A 
ATOM     18  C   UNL d   1      28.133  17.745 -23.447  0.00  0.00     0.140 A 
ATOM     19  F   UNL d   1      28.408  18.494 -23.211  0.00  0.00    -0.204 F 
ATOM     20  C   UNL d   1      27.500  17.290 -23.214  0.00  0.00     0.030 A 
ATOM     21  C   UNL d   1      27.374  16.547 -23.566  0.00  0.00     0.002 A 
ATOM     22  C   UNL d   1      27.891  16.281 -24.146  0.00  0.00     0.000 A 
ATOM     23  C   UNL d   1      28.524  16.744 -24.375  0.00  0.00     0.002 A 
ENDBRANCH  16  17
ENDBRANCH  15  16
ENDBRANCH   1  15
BRANCH   3  24
ATOM     24  C   UNL d   1      32.320  19.259 -24.392  0.00  0.00     0.284 C 
ATOM     25  N   UNL d   1      32.409  19.798 -23.774  0.00  0.00    -0.204 NA
ATOM     26  O   UNL d   1      32.754  19.348 -25.086  0.00  0.00    -0.265 OA
BRANCH  25  27
ATOM     27  C   UNL d   1      32.943  20.435 -23.858  0.00  0.00     0.127 C 
BRANCH  27  28
ATOM     28  C   UNL d   1      33.010  20.997 -23.266  0.00  0.00     0.119 A 
ATOM     29  O   UNL d   1      33.019  20.844 -22.457  0.00  0.00    -0.304 OA
ATOM     30  C   UNL d   1      33.095  21.565 -22.065  0.00  0.00     0.123 A 
ATOM     31  C   UNL d   1      33.133  22.162 -22.647  0.00  0.00     0.029 A 
ATOM     32  C   UNL d   1      33.081  21.811 -23.373  0.00  0.00     0.028 A 
ENDBRANCH  27  28
ENDBRANCH  25  27
ENDBRANCH   3  24
TORSDOF 6
ENDMDL
