MODEL 1
REMARK VINA RESULT:      -9.6      0.000      0.000
REMARK  6 active torsions:
REMARK  status: ('A' for Active; 'I' for Inactive)
REMARK    1  A    between atoms: C_9  and  C_2 
REMARK    2  A    between atoms: N_3  and  C_7 
REMARK       I    between atoms: C_8  and  N_14 
REMARK    3  A    between atoms: C_10  and  C_8 
REMARK    4  A    between atoms: C_13  and  C_10 
REMARK    5  A    between atoms: C_19  and  C_13 
REMARK    6  A    between atoms: N_14  and  C_20 
ROOT
ATOM      1  C   UNL d   1      51.797  33.811  53.195  0.00  0.00     0.041 A 
ATOM      2  C   UNL d   1      51.761  34.300  52.540  0.00  0.00     0.005 A 
ATOM      3  C   UNL d   1      51.132  33.512  53.560  0.00  0.00     0.005 A 
ATOM      4  C   UNL d   1      50.350  34.198  52.607  0.00  0.00     0.085 A 
ATOM      5  C   UNL d   1      51.000  34.486  52.255  0.00  0.00     0.019 A 
ATOM      6  C   UNL d   1      50.392  33.709  53.262  0.00  0.00     0.019 A 
ENDROOT
BRANCH   4   7
ATOM      7  N   UNL d   1      49.620  34.410  52.289  0.00  0.00    -0.208 NA
ATOM      8  C   UNL d   1      49.200  35.048  52.612  0.00  0.00     0.279 C 
ATOM      9  O   UNL d   1      49.526  35.453  53.244  0.00  0.00    -0.265 OA
BRANCH   8  10
ATOM     10  C   UNL d   1      48.467  35.264  52.297  0.00  0.00     0.062 C 
BRANCH  10  11
ATOM     11  C   UNL d   1      48.036  35.883  52.610  0.00  0.00     0.005 C 
BRANCH  11  12
ATOM     12  C   UNL d   1      47.210  35.970  52.457  0.00  0.00     0.002 A 
ATOM     13  C   UNL d   1      46.671  35.957  53.083  0.00  0.00     0.024 A 
ATOM     14  C   UNL d   1      45.845  36.045  52.923  0.00  0.00     0.127 A 
ATOM     15  C   UNL d   1      45.595  36.143  52.139  0.00  0.00     0.024 A 
ATOM     16  C   UNL d   1      46.150  36.153  51.529  0.00  0.00     0.002 A 
ATOM     17  C   UNL d   1      46.960  36.067  51.679  0.00  0.00     0.000 A 
BRANCH  14  18
ATOM     18  N   UNL d   1      45.297  36.034  53.532  0.00  0.00    -0.114 N 
ATOM     19  O   UNL d   1      45.006  36.706  53.947  0.00  0.00    -0.532 OA
ATOM     20  O   UNL d   1      44.952  35.341  53.822  0.00  0.00    -0.532 OA
ENDBRANCH  14  18
ENDBRANCH  11  12
ENDBRANCH  10  11
ENDBRANCH   8  10
ENDBRANCH   4   7
BRANCH   1  21
ATOM     21  C   UNL d   1      52.551  33.619  53.487  0.00  0.00     0.182 A 
ATOM     22  N   UNL d   1      53.180  33.156  53.203  0.00  0.00    -0.220 NA
ATOM     23  C   UNL d   1      53.786  33.183  53.752  0.00  0.00     0.106 A 
ATOM     24  C   UNL d   1      53.536  33.660  54.373  0.00  0.00     0.119 A 
ATOM     25  C   UNL d   1      54.539  32.832  53.765  0.00  0.00     0.021 A 
ATOM     26  C   UNL d   1      54.035  33.789  55.011  0.00  0.00     0.026 A 
ATOM     27  O   UNL d   1      52.798  33.917  54.209  0.00  0.00    -0.288 OA
ATOM     28  C   UNL d   1      54.774  33.455  55.043  0.00  0.00     0.002 A 
ATOM     29  C   UNL d   1      55.042  32.967  54.416  0.00  0.00     0.002 A 
ENDBRANCH   1  21
TORSDOF 6
ENDMDL
MODEL 2
REMARK VINA RESULT:      -9.2      1.402      6.976
REMARK  6 active torsions:
REMARK  status: ('A' for Active; 'I' for Inactive)
REMARK    1  A    between atoms: C_9  and  C_2 
REMARK    2  A    between atoms: N_3  and  C_7 
REMARK       I    between atoms: C_8  and  N_14 
REMARK    3  A    between atoms: C_10  and  C_8 
REMARK    4  A    between atoms: C_13  and  C_10 
REMARK    5  A    between atoms: C_19  and  C_13 
REMARK    6  A    between atoms: N_14  and  C_20 
ROOT
ATOM      1  C   UNL d   1      48.800  35.018  52.089  0.00  0.00     0.041 A 
ATOM      2  C   UNL d   1      49.153  34.613  51.472  0.00  0.00     0.005 A 
ATOM      3  C   UNL d   1      49.180  35.159  52.797  0.00  0.00     0.005 A 
ATOM      4  C   UNL d   1      50.305  34.481  52.284  0.00  0.00     0.085 A 
ATOM      5  C   UNL d   1      49.932  34.346  51.597  0.00  0.00     0.019 A 
ATOM      6  C   UNL d   1      49.948  34.887  52.900  0.00  0.00     0.019 A 
ENDROOT
BRANCH   4   7
ATOM      7  N   UNL d   1      51.075  34.198  52.362  0.00  0.00    -0.208 NA
ATOM      8  C   UNL d   1      51.237  33.590  52.903  0.00  0.00     0.279 C 
ATOM      9  O   UNL d   1      50.621  33.287  53.348  0.00  0.00    -0.265 OA
BRANCH   8  10
ATOM     10  C   UNL d   1      52.007  33.302  52.984  0.00  0.00     0.062 C 
BRANCH  10  11
ATOM     11  C   UNL d   1      52.318  33.122  53.718  0.00  0.00     0.005 C 
BRANCH  11  12
ATOM     12  C   UNL d   1      53.147  33.006  53.832  0.00  0.00     0.002 A 
ATOM     13  C   UNL d   1      53.532  33.380  54.459  0.00  0.00     0.024 A 
ATOM     14  C   UNL d   1      54.363  33.260  54.568  0.00  0.00     0.127 A 
ATOM     15  C   UNL d   1      54.771  32.768  54.041  0.00  0.00     0.024 A 
ATOM     16  C   UNL d   1      54.366  32.404  53.421  0.00  0.00     0.002 A 
ATOM     17  C   UNL d   1      53.553  32.519  53.309  0.00  0.00     0.000 A 
BRANCH  14  18
ATOM     18  N   UNL d   1      54.761  33.623  55.186  0.00  0.00    -0.114 N 
ATOM     19  O   UNL d   1      55.184  34.349  55.142  0.00  0.00    -0.532 OA
ATOM     20  O   UNL d   1      54.798  33.310  55.951  0.00  0.00    -0.532 OA
ENDBRANCH  14  18
ENDBRANCH  11  12
ENDBRANCH  10  11
ENDBRANCH   8  10
ENDBRANCH   4   7
BRANCH   1  21
ATOM     21  C   UNL d   1      48.024  35.289  51.974  0.00  0.00     0.182 A 
ATOM     22  N   UNL d   1      47.426  35.111  51.425  0.00  0.00    -0.220 NA
ATOM     23  C   UNL d   1      46.771  35.569  51.602  0.00  0.00     0.106 A 
ATOM     24  C   UNL d   1      46.961  36.028  52.257  0.00  0.00     0.119 A 
ATOM     25  C   UNL d   1      46.022  35.626  51.248  0.00  0.00     0.021 A 
ATOM     26  C   UNL d   1      46.404  36.547  52.562  0.00  0.00     0.026 A 
ATOM     27  O   UNL d   1      47.709  35.856  52.474  0.00  0.00    -0.288 OA
ATOM     28  C   UNL d   1      45.666  36.619  52.231  0.00  0.00     0.002 A 
ATOM     29  C   UNL d   1      45.460  36.156  51.563  0.00  0.00     0.002 A 
ENDBRANCH   1  21
TORSDOF 6
ENDMDL
MODEL 3
REMARK VINA RESULT:      -8.5      1.614      7.026
REMARK  6 active torsions:
REMARK  status: ('A' for Active; 'I' for Inactive)
REMARK    1  A    between atoms: C_9  and  C_2 
REMARK    2  A    between atoms: N_3  and  C_7 
REMARK       I    between atoms: C_8  and  N_14 
REMARK    3  A    between atoms: C_10  and  C_8 
REMARK    4  A    between atoms: C_13  and  C_10 
REMARK    5  A    between atoms: C_19  and  C_13 
REMARK    6  A    between atoms: N_14  and  C_20 
ROOT
ATOM      1  C   UNL d   1      48.332  35.171  51.925  0.00  0.00     0.041 A 
ATOM      2  C   UNL d   1      48.682  34.746  51.319  0.00  0.00     0.005 A 
ATOM      3  C   UNL d   1      48.724  35.358  52.615  0.00  0.00     0.005 A 
ATOM      4  C   UNL d   1      49.856  34.688  52.106  0.00  0.00     0.085 A 
ATOM      5  C   UNL d   1      49.471  34.508  51.437  0.00  0.00     0.019 A 
ATOM      6  C   UNL d   1      49.503  35.113  52.711  0.00  0.00     0.019 A 
ENDROOT
BRANCH   4   7
ATOM      7  N   UNL d   1      50.636  34.430  52.178  0.00  0.00    -0.208 NA
ATOM      8  C   UNL d   1      50.836  33.881  52.767  0.00  0.00     0.279 C 
ATOM      9  O   UNL d   1      50.246  33.609  53.266  0.00  0.00    -0.265 OA
BRANCH   8  10
ATOM     10  C   UNL d   1      51.616  33.620  52.843  0.00  0.00     0.062 C 
BRANCH  10  11
ATOM     11  C   UNL d   1      51.863  33.204  53.501  0.00  0.00     0.005 C 
BRANCH  11  12
ATOM     12  C   UNL d   1      52.573  32.748  53.497  0.00  0.00     0.002 A 
ATOM     13  C   UNL d   1      52.548  31.949  53.287  0.00  0.00     0.024 A 
ATOM     14  C   UNL d   1      53.263  31.497  53.284  0.00  0.00     0.127 A 
ATOM     15  C   UNL d   1      53.975  31.867  53.493  0.00  0.00     0.024 A 
ATOM     16  C   UNL d   1      53.977  32.666  53.699  0.00  0.00     0.002 A 
ATOM     17  C   UNL d   1      53.280  33.113  53.704  0.00  0.00     0.000 A 
BRANCH  14  18
ATOM     18  N   UNL d   1      53.256  30.703  53.078  0.00  0.00    -0.114 N 
ATOM     19  O   UNL d   1      53.041  30.390  52.328  0.00  0.00    -0.532 OA
ATOM     20  O   UNL d   1      53.467  30.096  53.598  0.00  0.00    -0.532 OA
ENDBRANCH  14  18
ENDBRANCH  11  12
ENDBRANCH  10  11
ENDBRANCH   8  10
ENDBRANCH   4   7
BRANCH   1  21
ATOM     21  C   UNL d   1      47.545  35.413  51.816  0.00  0.00     0.182 A 
ATOM     22  N   UNL d   1      46.939  35.189  51.295  0.00  0.00    -0.220 NA
ATOM     23  C   UNL d   1      46.276  35.638  51.464  0.00  0.00     0.106 A 
ATOM     24  C   UNL d   1      46.469  36.138  52.088  0.00  0.00     0.119 A 
ATOM     25  C   UNL d   1      45.516  35.656  51.128  0.00  0.00     0.021 A 
ATOM     26  C   UNL d   1      45.905  36.658  52.379  0.00  0.00     0.026 A 
ATOM     27  O   UNL d   1      47.228  35.999  52.293  0.00  0.00    -0.288 OA
ATOM     28  C   UNL d   1      45.158  36.691  52.065  0.00  0.00     0.002 A 
ATOM     29  C   UNL d   1      44.948  36.186  51.429  0.00  0.00     0.002 A 
ENDBRANCH   1  21
TORSDOF 6
ENDMDL
