MODEL 1
REMARK VINA RESULT:      -5.5      0.000      0.000
REMARK  2 active torsions:
REMARK  status: ('A' for Active; 'I' for Inactive)
REMARK    1  A    between atoms: C_6  and  N_1 
REMARK    2  A    between atoms: C_7  and  C_6 
ROOT
ATOM      1  N   UNL d   1     -41.639-122.335 -51.552  0.00  0.00    -0.287 N 
ATOM      2  N   UNL d   1     -42.773-121.943 -50.943  0.00  0.00    -0.224 NA
ATOM      3  C   UNL d   1     -42.329-121.876 -51.616  0.00  0.00     0.183 A 
ATOM      4  C   UNL d   1     -41.654-122.703 -50.806  0.00  0.00     0.083 A 
ATOM      5  C   UNL d   1     -42.375-122.454 -50.419  0.00  0.00     0.099 A 
ATOM      6  C   UNL d   1     -41.161-123.209 -50.409  0.00  0.00     0.019 A 
ATOM      7  C   UNL d   1     -42.527-122.737 -49.675  0.00  0.00     0.021 A 
ATOM      8  C   UNL d   1     -41.320-123.477 -49.686  0.00  0.00     0.002 A 
ATOM      9  C   UNL d   1     -42.040-123.228 -49.298  0.00  0.00     0.002 A 
ENDROOT
BRANCH   1  10
ATOM     10  C   UNL d   1     -41.123-122.334 -52.185  0.00  0.00     0.082 C 
BRANCH  10  11
ATOM     11  C   UNL d   1     -41.315-122.604 -52.915  0.00  0.00     0.018 A 
ATOM     12  C   UNL d   1     -41.684-122.149 -53.475  0.00  0.00     0.002 A 
ATOM     13  C   UNL d   1     -41.880-122.419 -54.215  0.00  0.00     0.000 A 
ATOM     14  C   UNL d   1     -42.257-121.935 -54.772  0.00  0.00     0.000 C 
ATOM     15  C   UNL d   1     -41.695-123.199 -54.407  0.00  0.00     0.000 A 
ATOM     16  C   UNL d   1     -41.320-123.683 -53.853  0.00  0.00     0.000 A 
ATOM     17  C   UNL d   1     -41.130-123.385 -53.107  0.00  0.00     0.002 A 
ENDBRANCH  10  11
ENDBRANCH   1  10
TORSDOF 2
ENDMDL
MODEL 2
REMARK VINA RESULT:      -5.4      0.899      3.672
REMARK  2 active torsions:
REMARK  status: ('A' for Active; 'I' for Inactive)
REMARK    1  A    between atoms: C_6  and  N_1 
REMARK    2  A    between atoms: C_7  and  C_6 
ROOT
ATOM      1  N   UNL d   1     -41.191-123.001 -51.517  0.00  0.00    -0.287 N 
ATOM      2  N   UNL d   1     -41.298-121.784 -52.080  0.00  0.00    -0.224 NA
ATOM      3  C   UNL d   1     -41.232-122.183 -51.379  0.00  0.00     0.183 A 
ATOM      4  C   UNL d   1     -41.232-123.117 -52.340  0.00  0.00     0.083 A 
ATOM      5  C   UNL d   1     -41.300-122.343 -52.698  0.00  0.00     0.099 A 
ATOM      6  C   UNL d   1     -41.221-123.765 -52.827  0.00  0.00     0.019 A 
ATOM      7  C   UNL d   1     -41.350-122.298 -53.506  0.00  0.00     0.021 A 
ATOM      8  C   UNL d   1     -41.271-123.708 -53.611  0.00  0.00     0.002 A 
ATOM      9  C   UNL d   1     -41.339-122.935 -53.969  0.00  0.00     0.002 A 
ENDROOT
BRANCH   1  10
ATOM     10  C   UNL d   1     -41.123-123.493 -50.868  0.00  0.00     0.082 C 
BRANCH  10  11
ATOM     11  C   UNL d   1     -41.552-123.402 -50.196  0.00  0.00     0.018 A 
ATOM     12  C   UNL d   1     -42.321-123.648 -50.124  0.00  0.00     0.002 A 
ATOM     13  C   UNL d   1     -42.759-123.558 -49.447  0.00  0.00     0.000 A 
ATOM     14  C   UNL d   1     -43.545-123.817 -49.395  0.00  0.00     0.000 C 
ATOM     15  C   UNL d   1     -42.402-123.197 -48.797  0.00  0.00     0.000 A 
ATOM     16  C   UNL d   1     -41.620-122.938 -48.846  0.00  0.00     0.000 A 
ATOM     17  C   UNL d   1     -41.196-123.041 -49.546  0.00  0.00     0.002 A 
ENDBRANCH  10  11
ENDBRANCH   1  10
TORSDOF 2
ENDMDL
MODEL 3
REMARK VINA RESULT:      -2.5      1.793      4.412
REMARK  2 active torsions:
REMARK  status: ('A' for Active; 'I' for Inactive)
REMARK    1  A    between atoms: C_6  and  N_1 
REMARK    2  A    between atoms: C_7  and  C_6 
ROOT
ATOM      1  N   UNL d   1     -42.405-123.114 -49.807  0.00  0.00    -0.287 N 
ATOM      2  N   UNL d   1     -43.326-122.248 -50.268  0.00  0.00    -0.224 NA
ATOM      3  C   UNL d   1     -43.183-122.835 -49.729  0.00  0.00     0.183 A 
ATOM      4  C   UNL d   1     -42.047-122.683 -50.422  0.00  0.00     0.083 A 
ATOM      5  C   UNL d   1     -42.632-122.133 -50.716  0.00  0.00     0.099 A 
ATOM      6  C   UNL d   1     -41.314-122.683 -50.768  0.00  0.00     0.019 A 
ATOM      7  C   UNL d   1     -42.424-121.640 -51.324  0.00  0.00     0.021 A 
ATOM      8  C   UNL d   1     -41.123-122.199 -51.359  0.00  0.00     0.002 A 
ATOM      9  C   UNL d   1     -41.708-121.649 -51.653  0.00  0.00     0.002 A 
ENDROOT
BRANCH   1  10
ATOM     10  C   UNL d   1     -42.164-123.710 -49.303  0.00  0.00     0.082 C 
BRANCH  10  11
ATOM     11  C   UNL d   1     -42.032-123.602 -48.519  0.00  0.00     0.018 A 
ATOM     12  C   UNL d   1     -42.603-123.349 -48.004  0.00  0.00     0.002 A 
ATOM     13  C   UNL d   1     -42.475-123.238 -47.210  0.00  0.00     0.000 A 
ATOM     14  C   UNL d   1     -43.074-122.978 -46.700  0.00  0.00     0.000 C 
ATOM     15  C   UNL d   1     -41.721-123.393 -46.912  0.00  0.00     0.000 A 
ATOM     16  C   UNL d   1     -41.123-123.652 -47.418  0.00  0.00     0.000 A 
ATOM     17  C   UNL d   1     -41.279-123.757 -48.221  0.00  0.00     0.002 A 
ENDBRANCH  10  11
ENDBRANCH   1  10
TORSDOF 2
ENDMDL
