MODEL 1
REMARK VINA RESULT:       0.7      0.000      0.000
REMARK  4 active torsions:
REMARK  status: ('A' for Active; 'I' for Inactive)
REMARK    1  A    between atoms: C_2  and  N_1 
REMARK       I    between atoms: C_4  and  N_1 
REMARK    2  A    between atoms: C_3  and  C_2 
REMARK    3  A    between atoms: N_5  and  C_2 
REMARK    4  A    between atoms: C_6  and  C_4 
ROOT
ATOM      1  C   UNL d   1     -42.410-122.259 -49.749  0.00  0.00     0.170 C 
ENDROOT
BRANCH   1   2
ATOM      2  N   UNL d   1     -41.991-121.540 -49.876  0.00  0.00    -0.191 NA
ATOM      3  C   UNL d   1     -41.562-121.416 -50.598  0.00  0.00     0.280 C 
ATOM      4  O   UNL d   1     -41.125-120.677 -50.743  0.00  0.00    -0.265 OA
BRANCH   3   5
ATOM      5  C   UNL d   1     -41.566-122.019 -51.173  0.00  0.00     0.058 A 
ATOM      6  C   UNL d   1     -41.997-121.946 -51.883  0.00  0.00     0.007 A 
ATOM      7  C   UNL d   1     -41.987-122.559 -52.441  0.00  0.00     0.030 A 
ATOM      8  C   UNL d   1     -41.555-123.249 -52.310  0.00  0.00     0.140 A 
ATOM      9  C   UNL d   1     -41.123-123.322 -51.599  0.00  0.00     0.030 A 
ATOM     10  F   UNL d   1     -41.535-123.813 -52.805  0.00  0.00    -0.204 F 
ATOM     11  C   UNL d   1     -41.129-122.695 -51.020  0.00  0.00     0.007 A 
ENDBRANCH   3   5
ENDBRANCH   1   2
BRANCH   1  12
ATOM     12  C   UNL d   1     -43.051-122.540 -50.109  0.00  0.00     0.249 C 
ATOM     13 CL   UNL d   1     -43.943-122.729 -50.516  0.00  0.00    -0.075 Cl
ATOM     14 CL   UNL d   1     -43.697-121.995 -50.087  0.00  0.00    -0.075 Cl
ATOM     15 CL   UNL d   1     -42.925-123.057 -50.304  0.00  0.00    -0.075 Cl
ENDBRANCH   1  12
BRANCH   1  16
ATOM     16  N   UNL d   1     -42.147-122.769 -49.181  0.00  0.00    -0.286 N 
ATOM     17  C   UNL d   1     -41.382-122.759 -48.930  0.00  0.00     0.108 A 
ATOM     18  C   UNL d   1     -41.123-123.277 -48.355  0.00  0.00     0.142 A 
ATOM     19  O   UNL d   1     -41.647-123.805 -48.035  0.00  0.00    -0.300 OA
ATOM     20  C   UNL d   1     -42.403-123.817 -48.280  0.00  0.00     0.142 A 
ATOM     21  C   UNL d   1     -42.650-123.298 -48.853  0.00  0.00     0.108 A 
ENDBRANCH   1  16
TORSDOF 4
ENDMDL
MODEL 2
REMARK VINA RESULT:       1.1      1.812      3.232
REMARK  4 active torsions:
REMARK  status: ('A' for Active; 'I' for Inactive)
REMARK    1  A    between atoms: C_2  and  N_1 
REMARK       I    between atoms: C_4  and  N_1 
REMARK    2  A    between atoms: C_3  and  C_2 
REMARK    3  A    between atoms: N_5  and  C_2 
REMARK    4  A    between atoms: C_6  and  C_4 
ROOT
ATOM      1  C   UNL d   1     -41.439-122.420 -51.147  0.00  0.00     0.170 C 
ENDROOT
BRANCH   1   2
ATOM      2  N   UNL d   1     -41.123-122.887 -50.523  0.00  0.00    -0.191 NA
ATOM      3  C   UNL d   1     -41.626-123.157 -49.894  0.00  0.00     0.280 C 
ATOM      4  O   UNL d   1     -41.311-123.641 -49.241  0.00  0.00    -0.265 OA
BRANCH   3   5
ATOM      5  C   UNL d   1     -42.432-122.951 -49.911  0.00  0.00     0.058 A 
ATOM      6  C   UNL d   1     -42.742-122.348 -49.424  0.00  0.00     0.007 A 
ATOM      7  C   UNL d   1     -43.547-122.158 -49.458  0.00  0.00     0.030 A 
ATOM      8  C   UNL d   1     -44.059-122.557 -49.968  0.00  0.00     0.140 A 
ATOM      9  C   UNL d   1     -43.750-123.160 -50.455  0.00  0.00     0.030 A 
ATOM     10  F   UNL d   1     -44.792-122.397 -50.011  0.00  0.00    -0.204 F 
ATOM     11  C   UNL d   1     -42.920-123.361 -50.426  0.00  0.00     0.007 A 
ENDBRANCH   3   5
ENDBRANCH   1   2
BRANCH   1  12
ATOM     12  C   UNL d   1     -41.728-121.688 -51.134  0.00  0.00     0.249 C 
ATOM     13 CL   UNL d   1     -41.910-120.707 -51.093  0.00  0.00    -0.075 Cl
ATOM     14 CL   UNL d   1     -41.123-121.106 -51.027  0.00  0.00    -0.075 Cl
ATOM     15 CL   UNL d   1     -42.288-121.723 -51.202  0.00  0.00    -0.075 Cl
ENDBRANCH   1  12
BRANCH   1  16
ATOM     16  N   UNL d   1     -41.471-122.733 -51.891  0.00  0.00    -0.286 N 
ATOM     17  C   UNL d   1     -41.291-123.506 -52.029  0.00  0.00     0.108 A 
ATOM     18  C   UNL d   1     -41.325-123.816 -52.783  0.00  0.00     0.142 A 
ATOM     19  O   UNL d   1     -41.544-123.335 -53.397  0.00  0.00    -0.300 OA
ATOM     20  C   UNL d   1     -41.722-122.572 -53.265  0.00  0.00     0.142 A 
ATOM     21  C   UNL d   1     -41.685-122.274 -52.510  0.00  0.00     0.108 A 
ENDBRANCH   1  16
TORSDOF 4
ENDMDL
MODEL 3
REMARK VINA RESULT:       1.3      2.021      3.302
REMARK  4 active torsions:
REMARK  status: ('A' for Active; 'I' for Inactive)
REMARK    1  A    between atoms: C_2  and  N_1 
REMARK       I    between atoms: C_4  and  N_1 
REMARK    2  A    between atoms: C_3  and  C_2 
REMARK    3  A    between atoms: N_5  and  C_2 
REMARK    4  A    between atoms: C_6  and  C_4 
ROOT
ATOM      1  C   UNL d   1     -42.290-121.915 -51.841  0.00  0.00     0.170 C 
ENDROOT
BRANCH   1   2
ATOM      2  N   UNL d   1     -43.111-121.964 -51.662  0.00  0.00    -0.191 NA
ATOM      3  C   UNL d   1     -43.373-122.358 -50.956  0.00  0.00     0.280 C 
ATOM      4  O   UNL d   1     -44.219-122.415 -50.758  0.00  0.00    -0.265 OA
BRANCH   3   5
ATOM      5  C   UNL d   1     -42.801-122.691 -50.450  0.00  0.00     0.058 A 
ATOM      6  C   UNL d   1     -42.529-122.290 -49.770  0.00  0.00     0.007 A 
ATOM      7  C   UNL d   1     -41.960-122.640 -49.281  0.00  0.00     0.030 A 
ATOM      8  C   UNL d   1     -41.650-123.386 -49.451  0.00  0.00     0.140 A 
ATOM      9  C   UNL d   1     -41.921-123.786 -50.132  0.00  0.00     0.030 A 
ATOM     10  F   UNL d   1     -41.133-123.716 -49.018  0.00  0.00    -0.204 F 
ATOM     11  C   UNL d   1     -42.508-123.432 -50.640  0.00  0.00     0.007 A 
ENDBRANCH   3   5
ENDBRANCH   1   2
BRANCH   1  12
ATOM     12  C   UNL d   1     -41.727-121.476 -51.511  0.00  0.00     0.249 C 
ATOM     13 CL   UNL d   1     -41.124-120.770 -51.142  0.00  0.00    -0.075 Cl
ATOM     14 CL   UNL d   1     -41.900-120.648 -51.549  0.00  0.00    -0.075 Cl
ATOM     15 CL   UNL d   1     -41.326-121.826 -51.319  0.00  0.00    -0.075 Cl
ENDBRANCH   1  12
BRANCH   1  16
ATOM     16  N   UNL d   1     -41.992-122.373 -52.436  0.00  0.00    -0.286 N 
ATOM     17  C   UNL d   1     -42.238-122.282 -53.198  0.00  0.00     0.108 A 
ATOM     18  C   UNL d   1     -41.932-122.748 -53.794  0.00  0.00     0.142 A 
ATOM     19  O   UNL d   1     -41.376-123.307 -53.612  0.00  0.00    -0.300 OA
ATOM     20  C   UNL d   1     -41.132-123.400 -52.861  0.00  0.00     0.142 A 
ATOM     21  C   UNL d   1     -41.442-122.931 -52.275  0.00  0.00     0.108 A 
ENDBRANCH   1  16
TORSDOF 4
ENDMDL
MODEL 4
REMARK VINA RESULT:       2.2      2.155      3.699
REMARK  4 active torsions:
REMARK  status: ('A' for Active; 'I' for Inactive)
REMARK    1  A    between atoms: C_2  and  N_1 
REMARK       I    between atoms: C_4  and  N_1 
REMARK    2  A    between atoms: C_3  and  C_2 
REMARK    3  A    between atoms: N_5  and  C_2 
REMARK    4  A    between atoms: C_6  and  C_4 
ROOT
ATOM      1  C   UNL d   1     -41.384-122.079 -52.727  0.00  0.00     0.170 C 
ENDROOT
BRANCH   1   2
ATOM      2  N   UNL d   1     -41.127-121.372 -52.349  0.00  0.00    -0.191 NA
ATOM      3  C   UNL d   1     -41.388-121.188 -51.562  0.00  0.00     0.280 C 
ATOM      4  O   UNL d   1     -41.130-120.460 -51.160  0.00  0.00    -0.265 OA
BRANCH   3   5
ATOM      5  C   UNL d   1     -41.901-121.719 -51.178  0.00  0.00     0.058 A 
ATOM      6  C   UNL d   1     -42.721-121.729 -51.333  0.00  0.00     0.007 A 
ATOM      7  C   UNL d   1     -43.213-122.266 -50.939  0.00  0.00     0.030 A 
ATOM      8  C   UNL d   1     -42.909-122.801 -50.389  0.00  0.00     0.140 A 
ATOM      9  C   UNL d   1     -42.088-122.792 -50.234  0.00  0.00     0.030 A 
ATOM     10  F   UNL d   1     -43.341-123.294 -50.024  0.00  0.00    -0.204 F 
ATOM     11  C   UNL d   1     -41.575-122.240 -50.636  0.00  0.00     0.007 A 
ENDBRANCH   3   5
ENDBRANCH   1   2
BRANCH   1  12
ATOM     12  C   UNL d   1     -41.262-122.831 -52.527  0.00  0.00     0.249 C 
ATOM     13 CL   UNL d   1     -41.123-123.817 -52.463  0.00  0.00    -0.075 Cl
ATOM     14 CL   UNL d   1     -41.262-123.346 -53.199  0.00  0.00    -0.075 Cl
ATOM     15 CL   UNL d   1     -41.201-122.852 -51.965  0.00  0.00    -0.075 Cl
ENDBRANCH   1  12
BRANCH   1  16
ATOM     16  N   UNL d   1     -41.826-122.024 -53.400  0.00  0.00    -0.286 N 
ATOM     17  C   UNL d   1     -41.485-121.884 -54.116  0.00  0.00     0.108 A 
ATOM     18  C   UNL d   1     -41.937-121.829 -54.792  0.00  0.00     0.142 A 
ATOM     19  O   UNL d   1     -42.741-121.917 -54.738  0.00  0.00    -0.300 OA
ATOM     20  C   UNL d   1     -43.081-122.056 -54.032  0.00  0.00     0.142 A 
ATOM     21  C   UNL d   1     -42.621-122.108 -53.365  0.00  0.00     0.108 A 
ENDBRANCH   1  16
TORSDOF 4
ENDMDL
