MODEL 1
REMARK VINA RESULT:      33.4      0.000      0.000
REMARK  7 active torsions:
REMARK  status: ('A' for Active; 'I' for Inactive)
REMARK    1  A    between atoms: C_2  and  S_1 
REMARK    2  A    between atoms: N_7  and  S_1 
REMARK    3  A    between atoms: O_11  and  C_6 
REMARK    4  A    between atoms: C_12  and  N_7 
REMARK    5  A    between atoms: O_13  and  C_9 
REMARK    6  A    between atoms: C_15  and  C_12 
REMARK    7  A    between atoms: C_14  and  C_15 
ROOT
ATOM      1  S   UNL d   1     -55.513-100.050 -44.301  0.00  0.00     0.287 S 
ATOM      2  O   UNL d   1     -55.322 -99.606 -43.623  0.00  0.00    -0.198 OA
ATOM      3  O   UNL d   1     -55.705-100.476 -44.972  0.00  0.00    -0.198 OA
ENDROOT
BRANCH   1   4
ATOM      4  C   UNL d   1     -55.252-100.740 -43.925  0.00  0.00     0.129 A 
ATOM      5  C   UNL d   1     -55.160-100.739 -43.116  0.00  0.00     0.039 A 
ATOM      6  C   UNL d   1     -54.901-101.421 -42.735  0.00  0.00     0.095 A 
ATOM      7  C   UNL d   1     -54.736-102.093 -43.169  0.00  0.00     0.026 A 
ATOM      8  C   UNL d   1     -54.827-102.099 -43.994  0.00  0.00     0.027 A 
ATOM      9  C   UNL d   1     -55.084-101.424 -44.367  0.00  0.00     0.106 A 
BRANCH   6  10
ATOM     10  O   UNL d   1     -54.805-101.430 -41.910  0.00  0.00    -0.328 OA
ATOM     11  C   UNL d   1     -54.715-102.133 -41.525  0.00  0.00     0.181 C 
ENDBRANCH   6  10
BRANCH   9  12
ATOM     12  O   UNL d   1     -55.173-101.434 -45.184  0.00  0.00    -0.327 OA
ATOM     13  C   UNL d   1     -54.760-101.988 -45.626  0.00  0.00     0.181 C 
ENDBRANCH   9  12
ENDBRANCH   1   4
BRANCH   1  14
ATOM     14  N   UNL d   1     -55.772 -99.354 -44.666  0.00  0.00    -0.157 NA
BRANCH  14  15
ATOM     15  C   UNL d   1     -56.510 -99.011 -44.468  0.00  0.00     0.112 C 
BRANCH  15  16
ATOM     16  C   UNL d   1     -57.178 -99.132 -44.941  0.00  0.00     0.021 C 
BRANCH  16  17
ATOM     17  C   UNL d   1     -57.933 -99.026 -44.631  0.00  0.00     0.002 A 
ATOM     18  C   UNL d   1     -58.059 -99.081 -43.820  0.00  0.00     0.000 A 
ATOM     19  C   UNL d   1     -58.816 -98.975 -43.508  0.00  0.00     0.000 A 
ATOM     20  C   UNL d   1     -59.453 -98.812 -44.016  0.00  0.00     0.000 A 
ATOM     21  C   UNL d   1     -59.314 -98.758 -44.839  0.00  0.00     0.000 A 
ATOM     22  C   UNL d   1     -58.570 -98.863 -45.139  0.00  0.00     0.000 A 
ENDBRANCH  16  17
ENDBRANCH  15  16
ENDBRANCH  14  15
ENDBRANCH   1  14
TORSDOF 7
ENDMDL
