MODEL 1
REMARK VINA RESULT:      75.4      0.000      0.000
REMARK  4 active torsions:
REMARK  status: ('A' for Active; 'I' for Inactive)
REMARK    1  A    between atoms: C_6  and  C_1 
REMARK    2  A    between atoms: C_3  and  C_15 
REMARK    3  A    between atoms: O_11  and  C_6 
REMARK    4  A    between atoms: C_15  and  O_11 
ROOT
ATOM      1  C   UNL d   1     -48.241  29.487  35.070  0.00  0.00     0.127 A 
ATOM      2  C   UNL d   1     -47.630  29.454  35.609  0.00  0.00     0.305 A 
ATOM      3  C   UNL d   1     -48.380  30.188  34.646  0.00  0.00     0.013 A 
ATOM      4  C   UNL d   1     -47.876  30.834  34.798  0.00  0.00     0.023 A 
ATOM      5  O   UNL d   1     -47.135  30.077  35.762  0.00  0.00    -0.273 OA
ATOM      6  C   UNL d   1     -47.268  30.801  35.333  0.00  0.00     0.103 A 
ATOM      7  C   UNL d   1     -48.005  31.555  34.373  0.00  0.00     0.002 A 
ATOM      8  O   UNL d   1     -47.503  28.712  36.040  0.00  0.00    -0.259 OA
ATOM      9  C   UNL d   1     -46.757  31.450  35.489  0.00  0.00     0.025 A 
ATOM     10  C   UNL d   1     -47.501  32.202  34.524  0.00  0.00     0.000 A 
ATOM     11  C   UNL d   1     -46.893  32.147  35.069  0.00  0.00     0.002 A 
ATOM     12  C   UNL d   1     -48.607  31.634  33.822  0.00  0.00     0.000 A 
ATOM     13  C   UNL d   1     -47.601  32.899  34.135  0.00  0.00     0.000 A 
ATOM     14  C   UNL d   1     -48.714  32.360  33.414  0.00  0.00     0.000 A 
ATOM     15  C   UNL d   1     -48.216  32.989  33.568  0.00  0.00     0.000 A 
ENDROOT
BRANCH   1  16
ATOM     16  C   UNL d   1     -48.751  28.780  34.940  0.00  0.00     0.305 C 
ATOM     17  O   UNL d   1     -49.232  28.549  35.569  0.00  0.00    -0.259 OA
BRANCH  16  18
ATOM     18  O   UNL d   1     -48.753  28.365  34.232  0.00  0.00    -0.271 OA
BRANCH  18  19
ATOM     19  C   UNL d   1     -49.477  28.219  33.855  0.00  0.00     0.127 C 
ATOM     20  C   UNL d   1     -49.930  28.867  33.590  0.00  0.00     0.029 C 
BRANCH  19  21
ATOM     21  C   UNL d   1     -49.772  27.461  33.730  0.00  0.00     0.134 A 
ATOM     22  N   UNL d   1     -49.367  26.761  33.670  0.00  0.00    -0.236 NA
ATOM     23  C   UNL d   1     -49.954  26.166  33.542  0.00  0.00     0.088 A 
ATOM     24  C   UNL d   1     -49.889  25.357  33.440  0.00  0.00     0.020 A 
ATOM     25  C   UNL d   1     -50.642  26.484  33.528  0.00  0.00     0.049 A 
ATOM     26  C   UNL d   1     -50.558  24.845  33.316  0.00  0.00     0.002 A 
ATOM     27  C   UNL d   1     -51.261  25.207  33.306  0.00  0.00     0.001 A 
ATOM     28  C   UNL d   1     -51.327  26.022  33.409  0.00  0.00     0.008 A 
ATOM     29  S   UNL d   1     -50.581  27.301  33.642  0.00  0.00    -0.065 SA
ENDBRANCH  19  21
ENDBRANCH  18  19
ENDBRANCH  16  18
ENDBRANCH   1  16
TORSDOF 4
ENDMDL
