MODEL 1
REMARK VINA RESULT:      -5.4      0.000      0.000
REMARK  3 active torsions:
REMARK  status: ('A' for Active; 'I' for Inactive)
REMARK    1  A    between atoms: C_5  and  C_1 
REMARK    2  A    between atoms: C_7  and  C_5 
REMARK    3  A    between atoms: C_10  and  C_7 
ROOT
ATOM      1  C   UNL d   1      58.369   0.597  30.349  0.00  0.00     0.220 A 
ATOM      2  C   UNL d   1      58.123   0.593  29.589  0.00  0.00     0.315 A 
ATOM      3  N   UNL d   1      58.773   0.617  29.092  0.00  0.00    -0.205 NA
ATOM      4  C   UNL d   1      59.189   0.625  30.358  0.00  0.00     0.059 A 
ATOM      5  C   UNL d   1      59.444   0.637  29.563  0.00  0.00     0.088 A 
ATOM      6  O   UNL d   1      57.324   0.568  29.376  0.00  0.00    -0.262 OA
ATOM      7  O   UNL d   1      58.785   0.607  31.051  0.00  0.00    -0.285 OA
ATOM      8  C   UNL d   1      59.756   0.640  30.957  0.00  0.00     0.005 A 
ATOM      9  C   UNL d   1      60.262   0.665  29.380  0.00  0.00     0.019 A 
ATOM     10  C   UNL d   1      60.556   0.668  30.798  0.00  0.00     0.000 A 
ATOM     11  C   UNL d   1      60.812   0.680  30.003  0.00  0.00     0.002 A 
ENDROOT
BRANCH   1  12
ATOM     12  C   UNL d   1      57.806   0.575  30.942  0.00  0.00     0.086 C 
BRANCH  12  13
ATOM     13  C   UNL d   1      57.374  -0.114  31.112  0.00  0.00     0.199 C 
ATOM     14  O   UNL d   1      57.477  -0.779  30.637  0.00  0.00    -0.286 OA
BRANCH  13  15
ATOM     15  C   UNL d   1      56.856  -0.133  31.741  0.00  0.00     0.039 A 
ATOM     16  C   UNL d   1      56.518   0.566  32.056  0.00  0.00     0.003 A 
ATOM     17  C   UNL d   1      56.000   0.547  32.684  0.00  0.00     0.000 A 
ATOM     18  C   UNL d   1      55.806  -0.192  33.017  0.00  0.00     0.000 A 
ATOM     19  C   UNL d   1      56.129  -0.886  32.720  0.00  0.00     0.000 A 
ATOM     20  C   UNL d   1      56.643  -0.854  32.095  0.00  0.00     0.003 A 
ENDBRANCH  13  15
ENDBRANCH  12  13
ENDBRANCH   1  12
TORSDOF 3
ENDMDL
MODEL 2
REMARK VINA RESULT:      -5.0      1.710      2.796
REMARK  3 active torsions:
REMARK  status: ('A' for Active; 'I' for Inactive)
REMARK    1  A    between atoms: C_5  and  C_1 
REMARK    2  A    between atoms: C_7  and  C_5 
REMARK    3  A    between atoms: C_10  and  C_7 
ROOT
ATOM      1  C   UNL d   1      56.584  -0.378  31.957  0.00  0.00     0.220 A 
ATOM      2  C   UNL d   1      56.625  -1.175  32.013  0.00  0.00     0.315 A 
ATOM      3  N   UNL d   1      57.142  -1.461  31.447  0.00  0.00    -0.205 NA
ATOM      4  C   UNL d   1      57.078  -0.134  31.349  0.00  0.00     0.059 A 
ATOM      5  C   UNL d   1      57.431  -0.818  31.027  0.00  0.00     0.088 A 
ATOM      6  O   UNL d   1      56.195  -1.608  32.571  0.00  0.00    -0.262 OA
ATOM      7  O   UNL d   1      56.660   0.411  31.765  0.00  0.00    -0.285 OA
ATOM      8  C   UNL d   1      57.270   0.601  31.028  0.00  0.00     0.005 A 
ATOM      9  C   UNL d   1      57.971  -0.757  30.388  0.00  0.00     0.019 A 
ATOM     10  C   UNL d   1      57.794   0.680  30.406  0.00  0.00     0.000 A 
ATOM     11  C   UNL d   1      58.147  -0.004  30.084  0.00  0.00     0.002 A 
ENDROOT
BRANCH   1  12
ATOM     12  C   UNL d   1      56.095   0.025  32.475  0.00  0.00     0.086 C 
BRANCH  12  13
ATOM     13  C   UNL d   1      56.301   0.143  33.271  0.00  0.00     0.199 C 
ATOM     14  O   UNL d   1      57.091   0.078  33.495  0.00  0.00    -0.286 OA
BRANCH  13  15
ATOM     15  C   UNL d   1      55.730   0.321  33.824  0.00  0.00     0.039 A 
ATOM     16  C   UNL d   1      55.911   0.381  34.640  0.00  0.00     0.003 A 
ATOM     17  C   UNL d   1      55.340   0.559  35.194  0.00  0.00     0.000 A 
ATOM     18  C   UNL d   1      54.558   0.682  34.933  0.00  0.00     0.000 A 
ATOM     19  C   UNL d   1      54.366   0.626  34.137  0.00  0.00     0.000 A 
ATOM     20  C   UNL d   1      54.941   0.449  33.596  0.00  0.00     0.003 A 
ENDBRANCH  13  15
ENDBRANCH  12  13
ENDBRANCH   1  12
TORSDOF 3
ENDMDL
MODEL 3
REMARK VINA RESULT:      -5.0      0.834      1.488
REMARK  3 active torsions:
REMARK  status: ('A' for Active; 'I' for Inactive)
REMARK    1  A    between atoms: C_5  and  C_1 
REMARK    2  A    between atoms: C_7  and  C_5 
REMARK    3  A    between atoms: C_10  and  C_7 
ROOT
ATOM      1  C   UNL d   1      58.087   0.572  30.753  0.00  0.00     0.220 A 
ATOM      2  C   UNL d   1      58.762   0.626  31.177  0.00  0.00     0.315 A 
ATOM      3  N   UNL d   1      59.401   0.677  30.669  0.00  0.00    -0.205 NA
ATOM      4  C   UNL d   1      58.279   0.586  29.955  0.00  0.00     0.059 A 
ATOM      5  C   UNL d   1      59.110   0.652  29.902  0.00  0.00     0.088 A 
ATOM      6  O   UNL d   1      58.772   0.629  32.004  0.00  0.00    -0.262 OA
ATOM      7  O   UNL d   1      57.510   0.525  30.177  0.00  0.00    -0.285 OA
ATOM      8  C   UNL d   1      57.838   0.549  29.258  0.00  0.00     0.005 A 
ATOM      9  C   UNL d   1      59.487   0.681  29.153  0.00  0.00     0.019 A 
ATOM     10  C   UNL d   1      58.188   0.576  28.521  0.00  0.00     0.000 A 
ATOM     11  C   UNL d   1      59.019   0.642  28.468  0.00  0.00     0.002 A 
ENDROOT
BRANCH   1  12
ATOM     12  C   UNL d   1      57.376   0.516  31.154  0.00  0.00     0.086 C 
BRANCH  12  13
ATOM     13  C   UNL d   1      57.104  -0.205  31.466  0.00  0.00     0.199 C 
ATOM     14  O   UNL d   1      57.403  -0.911  31.165  0.00  0.00    -0.286 OA
BRANCH  13  15
ATOM     15  C   UNL d   1      56.550  -0.214  32.063  0.00  0.00     0.039 A 
ATOM     16  C   UNL d   1      56.225   0.493  32.374  0.00  0.00     0.003 A 
ATOM     17  C   UNL d   1      55.671   0.484  32.971  0.00  0.00     0.000 A 
ATOM     18  C   UNL d   1      55.426  -0.252  33.274  0.00  0.00     0.000 A 
ATOM     19  C   UNL d   1      55.734  -0.953  32.980  0.00  0.00     0.000 A 
ATOM     20  C   UNL d   1      56.285  -0.932  32.387  0.00  0.00     0.003 A 
ENDBRANCH  13  15
ENDBRANCH  12  13
ENDBRANCH   1  12
TORSDOF 3
ENDMDL
MODEL 4
REMARK VINA RESULT:      -4.5      1.354      1.761
REMARK  3 active torsions:
REMARK  status: ('A' for Active; 'I' for Inactive)
REMARK    1  A    between atoms: C_5  and  C_1 
REMARK    2  A    between atoms: C_7  and  C_5 
REMARK    3  A    between atoms: C_10  and  C_7 
ROOT
ATOM      1  C   UNL d   1      57.903  -0.644  29.984  0.00  0.00     0.220 A 
ATOM      2  C   UNL d   1      57.900   0.063  29.610  0.00  0.00     0.315 A 
ATOM      3  N   UNL d   1      58.458   0.057  29.011  0.00  0.00    -0.205 NA
ATOM      4  C   UNL d   1      58.467  -1.124  29.630  0.00  0.00     0.059 A 
ATOM      5  C   UNL d   1      58.818  -0.681  29.015  0.00  0.00     0.088 A 
ATOM      6  O   UNL d   1      57.395   0.681  29.825  0.00  0.00    -0.262 OA
ATOM      7  O   UNL d   1      58.036  -1.405  30.246  0.00  0.00    -0.285 OA
ATOM      8  C   UNL d   1      58.727  -1.896  29.761  0.00  0.00     0.005 A 
ATOM      9  C   UNL d   1      59.423  -1.016  28.541  0.00  0.00     0.019 A 
ATOM     10  C   UNL d   1      59.315  -2.239  29.310  0.00  0.00     0.000 A 
ATOM     11  C   UNL d   1      59.666  -1.796  28.695  0.00  0.00     0.002 A 
ENDROOT
BRANCH   1  12
ATOM     12  C   UNL d   1      57.384  -0.760  30.606  0.00  0.00     0.086 C 
BRANCH  12  13
ATOM     13  C   UNL d   1      57.453  -0.339  31.318  0.00  0.00     0.199 C 
ATOM     14  O   UNL d   1      58.117   0.133  31.444  0.00  0.00    -0.286 OA
BRANCH  13  15
ATOM     15  C   UNL d   1      56.872  -0.391  31.887  0.00  0.00     0.039 A 
ATOM     16  C   UNL d   1      56.595  -1.130  32.169  0.00  0.00     0.003 A 
ATOM     17  C   UNL d   1      56.015  -1.182  32.738  0.00  0.00     0.000 A 
ATOM     18  C   UNL d   1      55.693  -0.477  33.043  0.00  0.00     0.000 A 
ATOM     19  C   UNL d   1      55.953   0.255  32.777  0.00  0.00     0.000 A 
ATOM     20  C   UNL d   1      56.531   0.294  32.212  0.00  0.00     0.003 A 
ENDBRANCH  13  15
ENDBRANCH  12  13
ENDBRANCH   1  12
TORSDOF 3
ENDMDL
MODEL 5
REMARK VINA RESULT:      -4.5      1.635      3.885
REMARK  3 active torsions:
REMARK  status: ('A' for Active; 'I' for Inactive)
REMARK    1  A    between atoms: C_5  and  C_1 
REMARK    2  A    between atoms: C_7  and  C_5 
REMARK    3  A    between atoms: C_10  and  C_7 
ROOT
ATOM      1  C   UNL d   1      57.391  -0.354  31.708  0.00  0.00     0.220 A 
ATOM      2  C   UNL d   1      57.710   0.340  31.945  0.00  0.00     0.315 A 
ATOM      3  N   UNL d   1      57.288   0.630  32.584  0.00  0.00    -0.205 NA
ATOM      4  C   UNL d   1      56.753  -0.527  32.195  0.00  0.00     0.059 A 
ATOM      5  C   UNL d   1      56.688   0.095  32.748  0.00  0.00     0.088 A 
ATOM      6  O   UNL d   1      58.365   0.682  31.574  0.00  0.00    -0.262 OA
ATOM      7  O   UNL d   1      56.950  -1.033  31.604  0.00  0.00    -0.285 OA
ATOM      8  C   UNL d   1      56.213  -1.149  32.232  0.00  0.00     0.005 A 
ATOM      9  C   UNL d   1      56.084   0.085  33.330  0.00  0.00     0.019 A 
ATOM     10  C   UNL d   1      55.618  -1.176  32.791  0.00  0.00     0.000 A 
ATOM     11  C   UNL d   1      55.553  -0.554  33.344  0.00  0.00     0.002 A 
ENDROOT
BRANCH   1  12
ATOM     12  C   UNL d   1      57.729  -0.743  31.073  0.00  0.00     0.086 C 
BRANCH  12  13
ATOM     13  C   UNL d   1      57.771  -0.396  30.319  0.00  0.00     0.199 C 
ATOM     14  O   UNL d   1      57.358   0.301  30.174  0.00  0.00    -0.286 OA
BRANCH  13  15
ATOM     15  C   UNL d   1      58.214  -0.742  29.729  0.00  0.00     0.039 A 
ATOM     16  C   UNL d   1      58.478  -0.307  29.063  0.00  0.00     0.003 A 
ATOM     17  C   UNL d   1      58.921  -0.652  28.474  0.00  0.00     0.000 A 
ATOM     18  C   UNL d   1      59.113  -1.460  28.542  0.00  0.00     0.000 A 
ATOM     19  C   UNL d   1      58.862  -1.900  29.188  0.00  0.00     0.000 A 
ATOM     20  C   UNL d   1      58.422  -1.546  29.768  0.00  0.00     0.003 A 
ENDBRANCH  13  15
ENDBRANCH  12  13
ENDBRANCH   1  12
TORSDOF 3
ENDMDL
