MODEL 1
REMARK VINA RESULT:      -3.8      0.000      0.000
REMARK  1 active torsions:
REMARK  status: ('A' for Active; 'I' for Inactive)
REMARK    1  A    between atoms: C_9  and  C_5 
ROOT
ATOM      1  C   UNL d   1      30.403  16.742 -24.090  0.00  0.00     0.062 A 
ATOM      2  C   UNL d   1      30.762  17.346 -24.494  0.00  0.00     0.197 A 
ATOM      3  C   UNL d   1      30.885  16.206 -23.641  0.00  0.00     0.044 A 
ATOM      4  C   UNL d   1      29.575  16.661 -24.123  0.00  0.00     0.112 A 
ATOM      5  C   UNL d   1      29.241  16.029 -23.695  0.00  0.00     0.084 A 
ATOM      6  C   UNL d   1      31.704  16.296 -23.615  0.00  0.00     0.196 A 
ATOM      7  C   UNL d   1      31.605  17.451 -24.477  0.00  0.00     0.042 A 
ATOM      8  C   UNL d   1      32.071  16.933 -24.043  0.00  0.00     0.042 A 
ATOM      9  C   UNL d   1      30.543  15.583 -23.220  0.00  0.00     0.004 A 
ATOM     10  C   UNL d   1      29.745  15.469 -23.226  0.00  0.00     0.008 A 
ATOM     11  O   UNL d   1      30.279  17.882 -24.943  0.00  0.00    -0.286 OA
ATOM     12  O   UNL d   1      32.191  15.755 -23.162  0.00  0.00    -0.287 OA
ATOM     13  N   UNL d   1      29.118  17.169 -24.549  0.00  0.00    -0.148 N 
ATOM     14  C   UNL d   1      31.947  18.073 -24.897  0.00  0.00     0.003 A 
ATOM     15  C   UNL d   1      32.890  17.024 -24.018  0.00  0.00     0.003 A 
ATOM     16  C   UNL d   1      32.750  18.183 -24.887  0.00  0.00     0.000 A 
ATOM     17  C   UNL d   1      33.232  17.647 -24.438  0.00  0.00     0.000 A 
ENDROOT
BRANCH   5  18
ATOM     18  C   UNL d   1      28.428  15.964 -23.738  0.00  0.00     0.212 C 
ATOM     19  O   UNL d   1      28.127  15.453 -24.291  0.00  0.00    -0.644 OA
ATOM     20  O   UNL d   1      27.947  16.415 -23.224  0.00  0.00    -0.644 OA
ENDBRANCH   5  18
TORSDOF 1
ENDMDL
MODEL 2
REMARK VINA RESULT:      -3.7      0.827      1.792
REMARK  1 active torsions:
REMARK  status: ('A' for Active; 'I' for Inactive)
REMARK    1  A    between atoms: C_9  and  C_5 
ROOT
ATOM      1  C   UNL d   1      30.252  16.440 -23.775  0.00  0.00     0.062 A 
ATOM      2  C   UNL d   1      30.920  16.106 -23.461  0.00  0.00     0.197 A 
ATOM      3  C   UNL d   1      30.333  17.092 -24.314  0.00  0.00     0.044 A 
ATOM      4  C   UNL d   1      29.505  16.138 -23.565  0.00  0.00     0.112 A 
ATOM      5  C   UNL d   1      28.841  16.505 -23.907  0.00  0.00     0.084 A 
ATOM      6  C   UNL d   1      31.079  17.382 -24.514  0.00  0.00     0.196 A 
ATOM      7  C   UNL d   1      31.695  16.395 -23.659  0.00  0.00     0.042 A 
ATOM      8  C   UNL d   1      31.774  17.025 -24.178  0.00  0.00     0.042 A 
ATOM      9  C   UNL d   1      29.667  17.448 -24.647  0.00  0.00     0.004 A 
ATOM     10  C   UNL d   1      28.926  17.186 -24.470  0.00  0.00     0.008 A 
ATOM     11  O   UNL d   1      30.839  15.454 -22.922  0.00  0.00    -0.286 OA
ATOM     12  O   UNL d   1      31.160  18.040 -25.057  0.00  0.00    -0.287 OA
ATOM     13  N   UNL d   1      29.428  15.520 -23.055  0.00  0.00    -0.148 N 
ATOM     14  C   UNL d   1      32.360  16.039 -23.326  0.00  0.00     0.003 A 
ATOM     15  C   UNL d   1      32.519  17.315 -24.379  0.00  0.00     0.003 A 
ATOM     16  C   UNL d   1      33.104  16.306 -23.507  0.00  0.00     0.000 A 
ATOM     17  C   UNL d   1      33.185  16.959 -24.046  0.00  0.00     0.000 A 
ENDROOT
BRANCH   5  18
ATOM     18  C   UNL d   1      28.116  16.197 -23.691  0.00  0.00     0.212 C 
ATOM     19  O   UNL d   1      27.732  16.554 -23.072  0.00  0.00    -0.644 OA
ATOM     20  O   UNL d   1      27.802  15.542 -24.105  0.00  0.00    -0.644 OA
ENDBRANCH   5  18
TORSDOF 1
ENDMDL
MODEL 3
REMARK VINA RESULT:      -3.6      1.242      3.720
REMARK  1 active torsions:
REMARK  status: ('A' for Active; 'I' for Inactive)
REMARK    1  A    between atoms: C_9  and  C_5 
ROOT
ATOM      1  C   UNL d   1      30.843  16.680 -24.050  0.00  0.00     0.062 A 
ATOM      2  C   UNL d   1      30.463  16.135 -23.588  0.00  0.00     0.197 A 
ATOM      3  C   UNL d   1      30.379  17.206 -24.530  0.00  0.00     0.044 A 
ATOM      4  C   UNL d   1      31.676  16.715 -24.045  0.00  0.00     0.112 A 
ATOM      5  C   UNL d   1      32.031  17.288 -24.532  0.00  0.00     0.084 A 
ATOM      6  C   UNL d   1      29.556  17.163 -24.527  0.00  0.00     0.196 A 
ATOM      7  C   UNL d   1      29.614  16.079 -23.575  0.00  0.00     0.042 A 
ATOM      8  C   UNL d   1      29.167  16.586 -24.038  0.00  0.00     0.042 A 
ATOM      9  C   UNL d   1      30.744  17.771 -25.009  0.00  0.00     0.004 A 
ATOM     10  C   UNL d   1      31.547  17.837 -25.033  0.00  0.00     0.008 A 
ATOM     11  O   UNL d   1      30.927  15.609 -23.108  0.00  0.00    -0.286 OA
ATOM     12  O   UNL d   1      29.088  17.693 -25.012  0.00  0.00    -0.287 OA
ATOM     13  N   UNL d   1      32.115  16.217 -23.590  0.00  0.00    -0.148 N 
ATOM     14  C   UNL d   1      29.250  15.515 -23.096  0.00  0.00     0.003 A 
ATOM     15  C   UNL d   1      28.343  16.543 -24.035  0.00  0.00     0.003 A 
ATOM     16  C   UNL d   1      28.443  15.453 -23.076  0.00  0.00     0.000 A 
ATOM     17  C   UNL d   1      27.979  15.978 -23.556  0.00  0.00     0.000 A 
ENDROOT
BRANCH   5  18
ATOM     18  C   UNL d   1      32.848  17.308 -24.515  0.00  0.00     0.212 C 
ATOM     19  O   UNL d   1      33.241  16.883 -25.083  0.00  0.00    -0.644 OA
ATOM     20  O   UNL d   1      33.241  17.755 -23.927  0.00  0.00    -0.644 OA
ENDBRANCH   5  18
TORSDOF 1
ENDMDL
MODEL 4
REMARK VINA RESULT:      -3.3      1.297      3.370
REMARK  1 active torsions:
REMARK  status: ('A' for Active; 'I' for Inactive)
REMARK    1  A    between atoms: C_9  and  C_5 
ROOT
ATOM      1  C   UNL d   1      31.118  17.317 -24.116  0.00  0.00     0.062 A 
ATOM      2  C   UNL d   1      30.351  17.322 -24.374  0.00  0.00     0.197 A 
ATOM      3  C   UNL d   1      31.376  16.687 -23.608  0.00  0.00     0.044 A 
ATOM      4  C   UNL d   1      31.635  17.927 -24.351  0.00  0.00     0.112 A 
ATOM      5  C   UNL d   1      32.416  17.889 -24.065  0.00  0.00     0.084 A 
ATOM      6  C   UNL d   1      30.856  16.088 -23.381  0.00  0.00     0.196 A 
ATOM      7  C   UNL d   1      29.803  16.712 -24.149  0.00  0.00     0.042 A 
ATOM      8  C   UNL d   1      30.052  16.103 -23.659  0.00  0.00     0.042 A 
ATOM      9  C   UNL d   1      32.153  16.660 -23.331  0.00  0.00     0.004 A 
ATOM     10  C   UNL d   1      32.685  17.231 -23.535  0.00  0.00     0.008 A 
ATOM     11  O   UNL d   1      30.093  17.952 -24.882  0.00  0.00    -0.286 OA
ATOM     12  O   UNL d   1      31.116  15.453 -22.869  0.00  0.00    -0.287 OA
ATOM     13  N   UNL d   1      31.390  18.524 -24.832  0.00  0.00    -0.148 N 
ATOM     14  C   UNL d   1      29.027  16.738 -24.426  0.00  0.00     0.003 A 
ATOM     15  C   UNL d   1      29.531  15.505 -23.433  0.00  0.00     0.003 A 
ATOM     16  C   UNL d   1      28.496  16.162 -24.217  0.00  0.00     0.000 A 
ATOM     17  C   UNL d   1      28.754  15.531 -23.709  0.00  0.00     0.000 A 
ENDROOT
BRANCH   5  18
ATOM     18  C   UNL d   1      32.910  18.495 -24.306  0.00  0.00     0.212 C 
ATOM     19  O   UNL d   1      33.053  19.088 -23.772  0.00  0.00    -0.644 OA
ATOM     20  O   UNL d   1      33.241  18.481 -25.073  0.00  0.00    -0.644 OA
ENDBRANCH   5  18
TORSDOF 1
ENDMDL
MODEL 5
REMARK VINA RESULT:      -2.9      5.112      6.411
REMARK  1 active torsions:
REMARK  status: ('A' for Active; 'I' for Inactive)
REMARK    1  A    between atoms: C_9  and  C_5 
ROOT
ATOM      1  C   UNL d   1      32.845  21.589 -21.611  0.00  0.00     0.062 A 
ATOM      2  C   UNL d   1      32.846  20.784 -21.526  0.00  0.00     0.197 A 
ATOM      3  C   UNL d   1      32.978  21.920 -22.382  0.00  0.00     0.044 A 
ATOM      4  C   UNL d   1      32.714  22.072 -20.945  0.00  0.00     0.112 A 
ATOM      5  C   UNL d   1      32.720  22.895 -21.071  0.00  0.00     0.084 A 
ATOM      6  C   UNL d   1      33.107  21.432 -23.034  0.00  0.00     0.196 A 
ATOM      7  C   UNL d   1      32.977  20.267 -22.189  0.00  0.00     0.042 A 
ATOM      8  C   UNL d   1      33.106  20.587 -22.933  0.00  0.00     0.042 A 
ATOM      9  C   UNL d   1      32.981  22.738 -22.494  0.00  0.00     0.004 A 
ATOM     10  C   UNL d   1      32.859  23.241 -21.876  0.00  0.00     0.008 A 
ATOM     11  O   UNL d   1      32.713  20.452 -20.754  0.00  0.00    -0.286 OA
ATOM     12  O   UNL d   1      33.241  21.766 -23.811  0.00  0.00    -0.287 OA
ATOM     13  N   UNL d   1      32.588  21.758 -20.215  0.00  0.00    -0.148 N 
ATOM     14  C   UNL d   1      32.974  19.450 -22.076  0.00  0.00     0.003 A 
ATOM     15  C   UNL d   1      33.234  20.099 -23.584  0.00  0.00     0.003 A 
ATOM     16  C   UNL d   1      33.098  18.949 -22.701  0.00  0.00     0.000 A 
ATOM     17  C   UNL d   1      33.231  19.281 -23.472  0.00  0.00     0.000 A 
ENDROOT
BRANCH   5  18
ATOM     18  C   UNL d   1      32.590  23.355 -20.408  0.00  0.00     0.212 C 
ATOM     19  O   UNL d   1      31.827  23.593 -20.266  0.00  0.00    -0.644 OA
ATOM     20  O   UNL d   1      33.231  23.558 -19.911  0.00  0.00    -0.644 OA
ENDBRANCH   5  18
TORSDOF 1
ENDMDL
MODEL 6
REMARK VINA RESULT:      -2.4      4.893      5.999
REMARK  1 active torsions:
REMARK  status: ('A' for Active; 'I' for Inactive)
REMARK    1  A    between atoms: C_9  and  C_5 
ROOT
ATOM      1  C   UNL d   1      32.862  21.551 -22.003  0.00  0.00     0.062 A 
ATOM      2  C   UNL d   1      32.956  21.385 -22.790  0.00  0.00     0.197 A 
ATOM      3  C   UNL d   1      32.862  20.909 -21.446  0.00  0.00     0.044 A 
ATOM      4  C   UNL d   1      32.769  22.341 -21.758  0.00  0.00     0.112 A 
ATOM      5  C   UNL d   1      32.675  22.473 -20.942  0.00  0.00     0.084 A 
ATOM      6  C   UNL d   1      32.956  20.130 -21.700  0.00  0.00     0.196 A 
ATOM      7  C   UNL d   1      33.053  20.586 -23.067  0.00  0.00     0.042 A 
ATOM      8  C   UNL d   1      33.053  19.968 -22.529  0.00  0.00     0.042 A 
ATOM      9  C   UNL d   1      32.768  21.053 -20.638  0.00  0.00     0.004 A 
ATOM     10  C   UNL d   1      32.675  21.804 -20.360  0.00  0.00     0.008 A 
ATOM     11  O   UNL d   1      32.956  22.026 -23.348  0.00  0.00    -0.286 OA
ATOM     12  O   UNL d   1      32.956  19.483 -21.138  0.00  0.00    -0.287 OA
ATOM     13  N   UNL d   1      32.769  22.949 -22.286  0.00  0.00    -0.148 N 
ATOM     14  C   UNL d   1      33.147  20.443 -23.874  0.00  0.00     0.003 A 
ATOM     15  C   UNL d   1      33.147  19.189 -22.783  0.00  0.00     0.003 A 
ATOM     16  C   UNL d   1      33.241  19.686 -24.148  0.00  0.00     0.000 A 
ATOM     17  C   UNL d   1      33.241  19.045 -23.591  0.00  0.00     0.000 A 
ENDROOT
BRANCH   5  18
ATOM     18  C   UNL d   1      32.584  23.254 -20.718  0.00  0.00     0.212 C 
ATOM     19  O   UNL d   1      31.845  23.579 -20.799  0.00  0.00    -0.644 OA
ATOM     20  O   UNL d   1      33.240  23.680 -20.421  0.00  0.00    -0.644 OA
ENDBRANCH   5  18
TORSDOF 1
ENDMDL
MODEL 7
REMARK VINA RESULT:      -1.8      2.843      4.293
REMARK  1 active torsions:
REMARK  status: ('A' for Active; 'I' for Inactive)
REMARK    1  A    between atoms: C_9  and  C_5 
ROOT
ATOM      1  C   UNL d   1      32.896  18.940 -23.370  0.00  0.00     0.062 A 
ATOM      2  C   UNL d   1      32.913  19.121 -22.581  0.00  0.00     0.197 A 
ATOM      3  C   UNL d   1      32.987  19.566 -23.937  0.00  0.00     0.044 A 
ATOM      4  C   UNL d   1      32.789  18.148 -23.608  0.00  0.00     0.112 A 
ATOM      5  C   UNL d   1      32.777  18.000 -24.427  0.00  0.00     0.084 A 
ATOM      6  C   UNL d   1      33.092  20.346 -23.690  0.00  0.00     0.196 A 
ATOM      7  C   UNL d   1      33.020  19.920 -22.312  0.00  0.00     0.042 A 
ATOM      8  C   UNL d   1      33.108  20.525 -22.859  0.00  0.00     0.042 A 
ATOM      9  C   UNL d   1      32.974  19.407 -24.747  0.00  0.00     0.004 A 
ATOM     10  C   UNL d   1      32.873  18.654 -25.019  0.00  0.00     0.008 A 
ATOM     11  O   UNL d   1      32.821  18.494 -22.014  0.00  0.00    -0.286 OA
ATOM     12  O   UNL d   1      33.185  20.978 -24.262  0.00  0.00    -0.287 OA
ATOM     13  N   UNL d   1      32.703  17.555 -23.071  0.00  0.00    -0.148 N 
ATOM     14  C   UNL d   1      33.034  20.079 -21.503  0.00  0.00     0.003 A 
ATOM     15  C   UNL d   1      33.213  21.304 -22.611  0.00  0.00     0.003 A 
ATOM     16  C   UNL d   1      33.135  20.838 -21.235  0.00  0.00     0.000 A 
ATOM     17  C   UNL d   1      33.227  21.464 -21.802  0.00  0.00     0.000 A 
ENDROOT
BRANCH   5  18
ATOM     18  C   UNL d   1      32.672  17.219 -24.643  0.00  0.00     0.212 C 
ATOM     19  O   UNL d   1      33.236  16.689 -24.402  0.00  0.00    -0.644 OA
ATOM     20  O   UNL d   1      32.004  16.999 -25.095  0.00  0.00    -0.644 OA
ENDBRANCH   5  18
TORSDOF 1
ENDMDL
MODEL 8
REMARK VINA RESULT:      -1.6      4.906      6.144
REMARK  1 active torsions:
REMARK  status: ('A' for Active; 'I' for Inactive)
REMARK    1  A    between atoms: C_9  and  C_5 
ROOT
ATOM      1  C   UNL d   1      32.959  21.002 -21.934  0.00  0.00     0.062 A 
ATOM      2  C   UNL d   1      32.826  21.233 -21.170  0.00  0.00     0.197 A 
ATOM      3  C   UNL d   1      33.087  21.598 -22.526  0.00  0.00     0.044 A 
ATOM      4  C   UNL d   1      32.968  20.191 -22.124  0.00  0.00     0.112 A 
ATOM      5  C   UNL d   1      33.107  19.992 -22.920  0.00  0.00     0.084 A 
ATOM      6  C   UNL d   1      33.076  22.398 -22.327  0.00  0.00     0.196 A 
ATOM      7  C   UNL d   1      32.813  22.054 -20.950  0.00  0.00     0.042 A 
ATOM      8  C   UNL d   1      32.936  22.629 -21.521  0.00  0.00     0.042 A 
ATOM      9  C   UNL d   1      33.224  21.388 -23.313  0.00  0.00     0.004 A 
ATOM     10  C   UNL d   1      33.240  20.614 -23.538  0.00  0.00     0.008 A 
ATOM     11  O   UNL d   1      32.699  20.636 -20.577  0.00  0.00    -0.286 OA
ATOM     12  O   UNL d   1      33.205  23.000 -22.925  0.00  0.00    -0.287 OA
ATOM     13  N   UNL d   1      32.847  19.626 -21.563  0.00  0.00    -0.148 N 
ATOM     14  C   UNL d   1      32.675  22.264 -20.164  0.00  0.00     0.003 A 
ATOM     15  C   UNL d   1      32.925  23.429 -21.322  0.00  0.00     0.003 A 
ATOM     16  C   UNL d   1      32.660  23.043 -19.943  0.00  0.00     0.000 A 
ATOM     17  C   UNL d   1      32.788  23.640 -20.536  0.00  0.00     0.000 A 
ENDROOT
BRANCH   5  18
ATOM     18  C   UNL d   1      33.112  19.192 -23.088  0.00  0.00     0.212 C 
ATOM     19  O   UNL d   1      32.989  18.975 -23.860  0.00  0.00    -0.644 OA
ATOM     20  O   UNL d   1      33.241  18.639 -22.474  0.00  0.00    -0.644 OA
ENDBRANCH   5  18
TORSDOF 1
ENDMDL
MODEL 9
REMARK VINA RESULT:      -1.4      4.738      5.815
REMARK  1 active torsions:
REMARK  status: ('A' for Active; 'I' for Inactive)
REMARK    1  A    between atoms: C_9  and  C_5 
ROOT
ATOM      1  C   UNL d   1      33.228  20.931 -22.304  0.00  0.00     0.062 A 
ATOM      2  C   UNL d   1      33.228  21.739 -22.357  0.00  0.00     0.197 A 
ATOM      3  C   UNL d   1      33.232  20.570 -21.534  0.00  0.00     0.044 A 
ATOM      4  C   UNL d   1      33.223  20.473 -23.000  0.00  0.00     0.112 A 
ATOM      5  C   UNL d   1      33.223  19.646 -22.906  0.00  0.00     0.084 A 
ATOM      6  C   UNL d   1      33.236  21.034 -20.852  0.00  0.00     0.196 A 
ATOM      7  C   UNL d   1      33.232  22.230 -21.663  0.00  0.00     0.042 A 
ATOM      8  C   UNL d   1      33.236  21.882 -20.920  0.00  0.00     0.042 A 
ATOM      9  C   UNL d   1      33.232  19.749 -21.454  0.00  0.00     0.004 A 
ATOM     10  C   UNL d   1      33.227  19.270 -22.102  0.00  0.00     0.008 A 
ATOM     11  O   UNL d   1      33.224  22.099 -23.127  0.00  0.00    -0.286 OA
ATOM     12  O   UNL d   1      33.240  20.671 -20.076  0.00  0.00    -0.287 OA
ATOM     13  N   UNL d   1      33.219  20.814 -23.729  0.00  0.00    -0.148 N 
ATOM     14  C   UNL d   1      33.232  23.050 -21.743  0.00  0.00     0.003 A 
ATOM     15  C   UNL d   1      33.241  22.345 -20.238  0.00  0.00     0.003 A 
ATOM     16  C   UNL d   1      33.237  23.527 -21.088  0.00  0.00     0.000 A 
ATOM     17  C   UNL d   1      33.241  23.167 -20.318  0.00  0.00     0.000 A 
ENDROOT
BRANCH   5  18
ATOM     18  C   UNL d   1      33.219  19.212 -23.598  0.00  0.00     0.212 C 
ATOM     19  O   UNL d   1      33.238  18.404 -23.529  0.00  0.00    -0.644 OA
ATOM     20  O   UNL d   1      33.195  19.605 -24.336  0.00  0.00    -0.644 OA
ENDBRANCH   5  18
TORSDOF 1
ENDMDL
