MODEL 1
REMARK VINA RESULT:      -9.4      0.000      0.000
REMARK  6 active torsions:
REMARK  status: ('A' for Active; 'I' for Inactive)
REMARK    1  A    between atoms: S_10  and  C_3 
REMARK    2  A    between atoms: C_14  and  C_7 
REMARK    3  A    between atoms: C_18  and  S_10 
REMARK       I    between atoms: N_11  and  C_12 
REMARK    4  A    between atoms: C_13  and  N_11 
REMARK    5  A    between atoms: C_12  and  C_18 
REMARK    6  A    between atoms: O_20  and  C_16 
ROOT
ATOM      1  N   UNL d   1      52.687  33.450  53.465  0.00  0.00    -0.186 N 
ATOM      2  N   UNL d   1      52.620  32.648  53.317  0.00  0.00    -0.162 NA
ATOM      3  C   UNL d   1      52.171  34.082  53.324  0.00  0.00     0.217 A 
ATOM      4  C   UNL d   1      53.365  33.758  53.817  0.00  0.00     0.187 A 
ATOM      5  N   UNL d   1      52.537  34.764  53.590  0.00  0.00    -0.120 NA
ATOM      6  N   UNL d   1      53.277  34.565  53.896  0.00  0.00    -0.127 NA
ATOM      7  C   UNL d   1      53.242  32.142  53.524  0.00  0.00     0.103 A 
ATOM      8  C   UNL d   1      53.988  33.248  54.024  0.00  0.00     0.042 A 
ATOM      9  C   UNL d   1      53.926  32.448  53.878  0.00  0.00     0.024 A 
ENDROOT
BRANCH   3  10
ATOM     10  S   UNL d   1      51.421  34.051  52.981  0.00  0.00    -0.041 SA
BRANCH  10  11
ATOM     11  C   UNL d   1      50.833  34.559  53.225  0.00  0.00     0.101 C 
BRANCH  11  12
ATOM     12  C   UNL d   1      50.154  34.646  52.780  0.00  0.00     0.286 C 
ATOM     13  N   UNL d   1      49.580  35.206  52.983  0.00  0.00    -0.206 NA
ATOM     14  O   UNL d   1      50.030  34.173  52.116  0.00  0.00    -0.265 OA
BRANCH  13  15
ATOM     15  C   UNL d   1      48.892  35.293  52.532  0.00  0.00     0.107 A 
ATOM     16  C   UNL d   1      48.282  35.779  52.792  0.00  0.00     0.112 A 
ATOM     17  C   UNL d   1      47.595  35.861  52.333  0.00  0.00     0.026 A 
ATOM     18  C   UNL d   1      47.534  35.456  51.625  0.00  0.00     0.002 A 
ATOM     19  C   UNL d   1      48.136  34.969  51.355  0.00  0.00     0.002 A 
ATOM     20  C   UNL d   1      48.823  34.886  51.814  0.00  0.00     0.021 A 
BRANCH  16  21
ATOM     21  O   UNL d   1      48.359  36.185  53.516  0.00  0.00    -0.327 OA
ATOM     22  C   UNL d   1      47.763  36.709  53.761  0.00  0.00     0.181 C 
ENDBRANCH  16  21
ENDBRANCH  13  15
ENDBRANCH  11  12
ENDBRANCH  10  11
ENDBRANCH   3  10
BRANCH   7  23
ATOM     23  C   UNL d   1      53.167  31.332  53.371  0.00  0.00     0.039 A 
ATOM     24  C   UNL d   1      52.900  31.066  52.655  0.00  0.00     0.101 A 
ATOM     25  N   UNL d   1      52.829  30.269  52.511  0.00  0.00    -0.242 NA
ATOM     26  C   UNL d   1      53.030  29.720  53.096  0.00  0.00     0.099 A 
ATOM     27  C   UNL d   1      53.301  29.990  53.824  0.00  0.00     0.021 A 
ATOM     28  C   UNL d   1      53.373  30.801  53.969  0.00  0.00     0.005 A 
ENDBRANCH   7  23
TORSDOF 6
ENDMDL
MODEL 2
REMARK VINA RESULT:      -8.7      1.129      2.447
REMARK  6 active torsions:
REMARK  status: ('A' for Active; 'I' for Inactive)
REMARK    1  A    between atoms: S_10  and  C_3 
REMARK    2  A    between atoms: C_14  and  C_7 
REMARK    3  A    between atoms: C_18  and  S_10 
REMARK       I    between atoms: N_11  and  C_12 
REMARK    4  A    between atoms: C_13  and  N_11 
REMARK    5  A    between atoms: C_12  and  C_18 
REMARK    6  A    between atoms: O_20  and  C_16 
ROOT
ATOM      1  N   UNL d   1      52.689  32.713  53.241  0.00  0.00    -0.186 N 
ATOM      2  N   UNL d   1      53.181  33.105  53.764  0.00  0.00    -0.162 NA
ATOM      3  C   UNL d   1      51.970  32.929  52.892  0.00  0.00     0.217 A 
ATOM      4  C   UNL d   1      52.880  31.959  52.969  0.00  0.00     0.187 A 
ATOM      5  N   UNL d   1      51.731  32.309  52.413  0.00  0.00    -0.120 NA
ATOM      6  N   UNL d   1      52.294  31.707  52.460  0.00  0.00    -0.127 NA
ATOM      7  C   UNL d   1      53.877  32.739  54.020  0.00  0.00     0.103 A 
ATOM      8  C   UNL d   1      53.580  31.593  53.228  0.00  0.00     0.042 A 
ATOM      9  C   UNL d   1      54.073  31.981  53.749  0.00  0.00     0.024 A 
ENDROOT
BRANCH   3  10
ATOM     10  S   UNL d   1      51.554  33.635  52.994  0.00  0.00    -0.041 SA
BRANCH  10  11
ATOM     11  C   UNL d   1      50.961  33.844  52.477  0.00  0.00     0.101 C 
BRANCH  11  12
ATOM     12  C   UNL d   1      50.405  34.402  52.692  0.00  0.00     0.286 C 
ATOM     13  N   UNL d   1      49.665  34.432  52.324  0.00  0.00    -0.206 NA
ATOM     14  O   UNL d   1      50.576  34.950  53.285  0.00  0.00    -0.265 OA
BRANCH  13  15
ATOM     15  C   UNL d   1      49.103  34.997  52.542  0.00  0.00     0.107 A 
ATOM     16  C   UNL d   1      48.527  35.240  52.010  0.00  0.00     0.112 A 
ATOM     17  C   UNL d   1      47.966  35.809  52.237  0.00  0.00     0.026 A 
ATOM     18  C   UNL d   1      47.995  36.121  52.992  0.00  0.00     0.002 A 
ATOM     19  C   UNL d   1      48.566  35.888  53.533  0.00  0.00     0.002 A 
ATOM     20  C   UNL d   1      49.126  35.319  53.306  0.00  0.00     0.021 A 
BRANCH  16  21
ATOM     21  O   UNL d   1      48.510  34.913  51.244  0.00  0.00    -0.327 OA
ATOM     22  C   UNL d   1      47.828  34.989  50.776  0.00  0.00     0.181 C 
ENDBRANCH  16  21
ENDBRANCH  13  15
ENDBRANCH  11  12
ENDBRANCH  10  11
ENDBRANCH   3  10
BRANCH   7  23
ATOM     23  C   UNL d   1      54.371  33.142  54.549  0.00  0.00     0.039 A 
ATOM     24  C   UNL d   1      54.979  33.603  54.282  0.00  0.00     0.101 A 
ATOM     25  N   UNL d   1      55.461  33.997  54.806  0.00  0.00    -0.242 NA
ATOM     26  C   UNL d   1      55.333  33.930  55.620  0.00  0.00     0.099 A 
ATOM     27  C   UNL d   1      54.714  33.460  55.893  0.00  0.00     0.021 A 
ATOM     28  C   UNL d   1      54.226  33.061  55.358  0.00  0.00     0.005 A 
ENDBRANCH   7  23
TORSDOF 6
ENDMDL
MODEL 3
REMARK VINA RESULT:      -7.0      2.420      5.340
REMARK  6 active torsions:
REMARK  status: ('A' for Active; 'I' for Inactive)
REMARK    1  A    between atoms: S_10  and  C_3 
REMARK    2  A    between atoms: C_14  and  C_7 
REMARK    3  A    between atoms: C_18  and  S_10 
REMARK       I    between atoms: N_11  and  C_12 
REMARK    4  A    between atoms: C_13  and  N_11 
REMARK    5  A    between atoms: C_12  and  C_18 
REMARK    6  A    between atoms: O_20  and  C_16 
ROOT
ATOM      1  N   UNL d   1      53.419  34.078  54.158  0.00  0.00    -0.186 N 
ATOM      2  N   UNL d   1      52.824  33.983  53.604  0.00  0.00    -0.162 NA
ATOM      3  C   UNL d   1      54.071  33.606  54.355  0.00  0.00     0.217 A 
ATOM      4  C   UNL d   1      53.438  34.742  54.646  0.00  0.00     0.187 A 
ATOM      5  N   UNL d   1      54.477  33.984  54.956  0.00  0.00    -0.120 NA
ATOM      6  N   UNL d   1      54.087  34.688  55.138  0.00  0.00    -0.127 NA
ATOM      7  C   UNL d   1      52.237  34.562  53.535  0.00  0.00     0.103 A 
ATOM      8  C   UNL d   1      52.847  35.321  54.574  0.00  0.00     0.042 A 
ATOM      9  C   UNL d   1      52.252  35.231  54.023  0.00  0.00     0.024 A 
ENDROOT
BRANCH   3  10
ATOM     10  S   UNL d   1      54.287  32.884  54.019  0.00  0.00    -0.041 SA
BRANCH  10  11
ATOM     11  C   UNL d   1      54.123  32.184  54.402  0.00  0.00     0.101 C 
BRANCH  11  12
ATOM     12  C   UNL d   1      53.920  31.519  53.974  0.00  0.00     0.286 C 
ATOM     13  N   UNL d   1      53.379  30.968  54.270  0.00  0.00    -0.206 NA
ATOM     14  O   UNL d   1      54.255  31.385  53.232  0.00  0.00    -0.265 OA
BRANCH  13  15
ATOM     15  C   UNL d   1      53.175  30.295  53.837  0.00  0.00     0.107 A 
ATOM     16  C   UNL d   1      53.159  29.556  54.196  0.00  0.00     0.112 A 
ATOM     17  C   UNL d   1      52.952  28.885  53.753  0.00  0.00     0.026 A 
ATOM     18  C   UNL d   1      52.765  28.969  52.961  0.00  0.00     0.002 A 
ATOM     19  C   UNL d   1      52.777  29.701  52.591  0.00  0.00     0.002 A 
ATOM     20  C   UNL d   1      52.984  30.372  53.034  0.00  0.00     0.021 A 
BRANCH  16  21
ATOM     21  O   UNL d   1      53.351  29.486  55.004  0.00  0.00    -0.327 OA
ATOM     22  C   UNL d   1      53.362  28.738  55.364  0.00  0.00     0.181 C 
ENDBRANCH  16  21
ENDBRANCH  13  15
ENDBRANCH  11  12
ENDBRANCH  10  11
ENDBRANCH   3  10
BRANCH   7  23
ATOM     23  C   UNL d   1      51.638  34.459  52.973  0.00  0.00     0.039 A 
ATOM     24  C   UNL d   1      51.809  34.430  52.183  0.00  0.00     0.101 A 
ATOM     25  N   UNL d   1      51.217  34.330  51.635  0.00  0.00    -0.242 NA
ATOM     26  C   UNL d   1      50.430  34.256  51.880  0.00  0.00     0.099 A 
ATOM     27  C   UNL d   1      50.256  34.285  52.684  0.00  0.00     0.021 A 
ATOM     28  C   UNL d   1      50.860  34.388  53.239  0.00  0.00     0.005 A 
ENDBRANCH   7  23
TORSDOF 6
ENDMDL
