MODEL 1
REMARK VINA RESULT:      48.7      0.000      0.000
REMARK  4 active torsions:
REMARK  status: ('A' for Active; 'I' for Inactive)
REMARK    1  A    between atoms: C_7  and  C_2 
REMARK    2  A    between atoms: C_12  and  C_4 
REMARK    3  A    between atoms: C_11  and  C_7 
REMARK    4  A    between atoms: N_18  and  C_12 
ROOT
ATOM      1  C   UNL d   1     -50.769  25.274  33.310  0.00  0.00     0.108 A 
ATOM      2  C   UNL d   1     -50.544  26.595  33.309  0.00  0.00     0.141 A 
ATOM      3  C   UNL d   1     -51.500  25.656  33.309  0.00  0.00     0.064 A 
ATOM      4  C   UNL d   1     -50.734  24.452  33.310  0.00  0.00     0.079 A 
ATOM      5  O   UNL d   1     -50.175  25.852  33.309  0.00  0.00    -0.304 OA
ATOM      6  C   UNL d   1     -51.360  26.472  33.309  0.00  0.00     0.220 A 
ATOM      7  C   UNL d   1     -52.200  25.219  33.309  0.00  0.00     0.008 A 
ATOM      8  C   UNL d   1     -51.430  24.011  33.310  0.00  0.00     0.199 A 
ATOM      9  C   UNL d   1     -52.164  24.395  33.309  0.00  0.00     0.042 A 
ATOM     10  O   UNL d   1     -51.938  27.066  33.308  0.00  0.00    -0.284 OA
ATOM     11  O   UNL d   1     -51.398  23.191  33.310  0.00  0.00    -0.286 OA
ATOM     12  C   UNL d   1     -52.931  25.601  33.309  0.00  0.00     0.000 C 
ENDROOT
BRANCH   2  13
ATOM     13  C   UNL d   1     -50.162  27.326  33.309  0.00  0.00     0.053 C 
BRANCH  13  14
ATOM     14  C   UNL d   1     -49.577  27.486  33.877  0.00  0.00     0.102 A 
ATOM     15  O   UNL d   1     -48.981  26.972  34.115  0.00  0.00    -0.305 OA
ATOM     16  C   UNL d   1     -48.531  27.359  34.686  0.00  0.00     0.123 A 
ATOM     17  C   UNL d   1     -48.850  28.109  34.798  0.00  0.00     0.029 A 
ATOM     18  C   UNL d   1     -49.502  28.184  34.293  0.00  0.00     0.027 A 
ENDBRANCH  13  14
ENDBRANCH   2  13
BRANCH   4  19
ATOM     19  C   UNL d   1     -50.004  24.065  33.310  0.00  0.00     0.086 C 
BRANCH  19  20
ATOM     20  N   UNL d   1     -49.706  23.751  34.008  0.00  0.00    -0.300 N 
ATOM     21  C   UNL d   1     -50.192  23.313  34.510  0.00  0.00     0.100 C 
ATOM     22  C   UNL d   1     -48.910  23.870  34.217  0.00  0.00     0.100 C 
ENDBRANCH  19  20
ENDBRANCH   4  19
TORSDOF 4
ENDMDL
MODEL 2
REMARK VINA RESULT:      50.1      1.288      2.309
REMARK  4 active torsions:
REMARK  status: ('A' for Active; 'I' for Inactive)
REMARK    1  A    between atoms: C_7  and  C_2 
REMARK    2  A    between atoms: C_12  and  C_4 
REMARK    3  A    between atoms: C_11  and  C_7 
REMARK    4  A    between atoms: N_18  and  C_12 
ROOT
ATOM      1  C   UNL d   1     -51.441  25.237  33.308  0.00  0.00     0.108 A 
ATOM      2  C   UNL d   1     -50.196  25.733  33.308  0.00  0.00     0.141 A 
ATOM      3  C   UNL d   1     -50.914  24.602  33.307  0.00  0.00     0.064 A 
ATOM      4  C   UNL d   1     -52.252  25.099  33.308  0.00  0.00     0.079 A 
ATOM      5  O   UNL d   1     -50.999  25.938  33.308  0.00  0.00    -0.304 OA
ATOM      6  C   UNL d   1     -50.145  24.910  33.307  0.00  0.00     0.220 A 
ATOM      7  C   UNL d   1     -51.195  23.826  33.307  0.00  0.00     0.008 A 
ATOM      8  C   UNL d   1     -52.537  24.327  33.307  0.00  0.00     0.199 A 
ATOM      9  C   UNL d   1     -52.008  23.689  33.307  0.00  0.00     0.042 A 
ATOM     10  O   UNL d   1     -49.443  24.468  33.307  0.00  0.00    -0.284 OA
ATOM     11  O   UNL d   1     -53.346  24.186  33.307  0.00  0.00    -0.286 OA
ATOM     12  C   UNL d   1     -50.669  23.191  33.306  0.00  0.00     0.000 C 
ENDROOT
BRANCH   2  13
ATOM     13  C   UNL d   1     -49.561  26.260  33.308  0.00  0.00     0.053 C 
BRANCH  13  14
ATOM     14  C   UNL d   1     -49.565  26.912  33.823  0.00  0.00     0.102 A 
ATOM     15  O   UNL d   1     -49.767  27.684  33.622  0.00  0.00    -0.305 OA
ATOM     16  C   UNL d   1     -49.694  28.145  34.300  0.00  0.00     0.123 A 
ATOM     17  C   UNL d   1     -49.449  27.657  34.915  0.00  0.00     0.029 A 
ATOM     18  C   UNL d   1     -49.370  26.890  34.614  0.00  0.00     0.027 A 
ENDBRANCH  13  14
ENDBRANCH   2  13
BRANCH   4  19
ATOM     19  C   UNL d   1     -52.782  25.732  33.308  0.00  0.00     0.086 C 
BRANCH  19  20
ATOM     20  N   UNL d   1     -52.587  26.432  33.691  0.00  0.00    -0.300 N 
ATOM     21  C   UNL d   1     -52.292  26.417  34.461  0.00  0.00     0.100 C 
ATOM     22  C   UNL d   1     -52.685  27.163  33.308  0.00  0.00     0.100 C 
ENDBRANCH  19  20
ENDBRANCH   4  19
TORSDOF 4
ENDMDL
