MODEL 1
REMARK VINA RESULT:      40.1      0.000      0.000
REMARK  4 active torsions:
REMARK  status: ('A' for Active; 'I' for Inactive)
REMARK    1  A    between atoms: C_9  and  N_2 
REMARK    2  A    between atoms: C_7  and  O_10 
REMARK    3  A    between atoms: C_11  and  C_9 
REMARK    4  A    between atoms: O_10  and  C_11 
ROOT
ATOM      1  C   UNL d   1     -51.684  26.331  33.344  0.00  0.00     0.296 A 
ATOM      2  N   UNL d   1     -51.299  25.604  33.342  0.00  0.00    -0.266 N 
ATOM      3  S   UNL d   1     -51.097  26.928  33.383  0.00  0.00    -0.025 SA
ATOM      4  C   UNL d   1     -50.483  25.743  33.380  0.00  0.00     0.074 A 
ATOM      5  C   UNL d   1     -50.359  26.555  33.406  0.00  0.00     0.050 A 
ATOM      6  O   UNL d   1     -52.495  26.455  33.312  0.00  0.00    -0.259 OA
ATOM      7  C   UNL d   1     -49.841  25.222  33.395  0.00  0.00     0.018 A 
ATOM      8  C   UNL d   1     -49.590  26.863  33.446  0.00  0.00     0.008 A 
ATOM      9  C   UNL d   1     -49.072  25.526  33.435  0.00  0.00     0.002 A 
ATOM     10  C   UNL d   1     -48.948  26.338  33.460  0.00  0.00     0.001 A 
ENDROOT
BRANCH   2  11
ATOM     11  C   UNL d   1     -51.662  24.864  33.309  0.00  0.00     0.110 C 
BRANCH  11  12
ATOM     12  C   UNL d   1     -52.482  24.801  33.338  0.00  0.00     0.142 C 
BRANCH  12  13
ATOM     13  O   UNL d   1     -52.850  24.067  33.442  0.00  0.00    -0.304 OA
BRANCH  13  14
ATOM     14  C   UNL d   1     -53.139  23.846  34.182  0.00  0.00     0.100 A 
ATOM     15  C   UNL d   1     -53.838  23.411  34.238  0.00  0.00     0.023 A 
ATOM     16  C   UNL d   1     -54.248  23.197  33.553  0.00  0.00     0.002 C 
ATOM     17  C   UNL d   1     -54.124  23.192  34.975  0.00  0.00     0.002 A 
ATOM     18  C   UNL d   1     -53.711  23.408  35.656  0.00  0.00     0.000 A 
ATOM     19  C   UNL d   1     -53.010  23.845  35.595  0.00  0.00     0.002 A 
ATOM     20  C   UNL d   1     -52.730  24.060  34.853  0.00  0.00     0.025 A 
ENDBRANCH  13  14
ENDBRANCH  12  13
ENDBRANCH  11  12
ENDBRANCH   2  11
TORSDOF 4
ENDMDL
MODEL 2
REMARK VINA RESULT:      42.4      1.469      4.340
REMARK  4 active torsions:
REMARK  status: ('A' for Active; 'I' for Inactive)
REMARK    1  A    between atoms: C_9  and  N_2 
REMARK    2  A    between atoms: C_7  and  O_10 
REMARK    3  A    between atoms: C_11  and  C_9 
REMARK    4  A    between atoms: O_10  and  C_11 
ROOT
ATOM      1  C   UNL d   1     -52.192  25.943  33.309  0.00  0.00     0.296 A 
ATOM      2  N   UNL d   1     -51.533  25.452  33.309  0.00  0.00    -0.266 N 
ATOM      3  S   UNL d   1     -52.873  25.454  33.309  0.00  0.00    -0.025 SA
ATOM      4  C   UNL d   1     -51.796  24.665  33.309  0.00  0.00     0.074 A 
ATOM      5  C   UNL d   1     -52.617  24.667  33.309  0.00  0.00     0.050 A 
ATOM      6  O   UNL d   1     -52.191  26.764  33.310  0.00  0.00    -0.259 OA
ATOM      7  C   UNL d   1     -51.379  23.951  33.308  0.00  0.00     0.018 A 
ATOM      8  C   UNL d   1     -53.040  23.953  33.308  0.00  0.00     0.008 A 
ATOM      9  C   UNL d   1     -51.798  23.237  33.308  0.00  0.00     0.002 A 
ATOM     10  C   UNL d   1     -52.619  23.239  33.308  0.00  0.00     0.001 A 
ENDROOT
BRANCH   2  11
ATOM     11  C   UNL d   1     -50.745  25.698  33.309  0.00  0.00     0.110 C 
BRANCH  11  12
ATOM     12  C   UNL d   1     -50.506  26.327  33.783  0.00  0.00     0.142 C 
BRANCH  12  13
ATOM     13  O   UNL d   1     -50.003  26.915  33.489  0.00  0.00    -0.304 OA
BRANCH  13  14
ATOM     14  C   UNL d   1     -49.489  27.315  33.996  0.00  0.00     0.100 A 
ATOM     15  C   UNL d   1     -49.432  28.138  33.958  0.00  0.00     0.023 A 
ATOM     16  C   UNL d   1     -49.889  28.560  33.414  0.00  0.00     0.002 C 
ATOM     17  C   UNL d   1     -48.921  28.534  34.462  0.00  0.00     0.002 A 
ATOM     18  C   UNL d   1     -48.467  28.109  35.004  0.00  0.00     0.000 A 
ATOM     19  C   UNL d   1     -48.527  27.283  35.038  0.00  0.00     0.002 A 
ATOM     20  C   UNL d   1     -49.042  26.894  34.530  0.00  0.00     0.025 A 
ENDBRANCH  13  14
ENDBRANCH  12  13
ENDBRANCH  11  12
ENDBRANCH   2  11
TORSDOF 4
ENDMDL
