MODEL 1
REMARK VINA RESULT:      -8.5      0.000      0.000
REMARK  2 active torsions:
REMARK  status: ('A' for Active; 'I' for Inactive)
REMARK    1  A    between atoms: C_6  and  N_1 
REMARK    2  A    between atoms: C_7  and  C_6 
ROOT
ATOM      1  N   UNL d   1     -48.570  14.187  22.828  0.00  0.00    -0.268 N 
ATOM      2  C   UNL d   1     -49.126  13.314  23.078  0.00  0.00     0.265 A 
ATOM      3  C   UNL d   1     -47.809  13.935  22.899  0.00  0.00     0.067 A 
ATOM      4  C   UNL d   1     -48.548  12.777  23.231  0.00  0.00     0.058 A 
ATOM      5  C   UNL d   1     -47.830  13.141  23.126  0.00  0.00     0.021 A 
ATOM      6  O   UNL d   1     -49.928  13.099  23.141  0.00  0.00    -0.267 OA
ATOM      7  C   UNL d   1     -47.127  12.726  23.244  0.00  0.00     0.002 A 
ATOM      8  C   UNL d   1     -47.084  14.311  22.790  0.00  0.00     0.018 A 
ATOM      9  C   UNL d   1     -48.571  11.979  23.460  0.00  0.00     0.005 A 
ATOM     10  C   UNL d   1     -46.380  13.896  22.908  0.00  0.00     0.002 A 
ATOM     11  C   UNL d   1     -47.867  11.564  23.578  0.00  0.00     0.000 A 
ATOM     12  C   UNL d   1     -47.135  11.944  23.468  0.00  0.00     0.000 A 
ATOM     13  C   UNL d   1     -46.397  13.102  23.135  0.00  0.00     0.000 A 
ENDROOT
BRANCH   1  14
ATOM     14  C   UNL d   1     -48.734  14.972  22.603  0.00  0.00     0.154 C 
BRANCH  14  15
ATOM     15  C   UNL d   1     -49.450  15.310  22.850  0.00  0.00     0.230 C 
ATOM     16  O   UNL d   1     -50.046  15.381  22.303  0.00  0.00    -0.643 OA
ATOM     17  O   UNL d   1     -49.557  15.560  23.607  0.00  0.00    -0.643 OA
ENDBRANCH  14  15
ENDBRANCH   1  14
TORSDOF 2
ENDMDL
MODEL 2
REMARK VINA RESULT:      -8.3      1.355      1.755
REMARK  2 active torsions:
REMARK  status: ('A' for Active; 'I' for Inactive)
REMARK    1  A    between atoms: C_6  and  N_1 
REMARK    2  A    between atoms: C_7  and  C_6 
ROOT
ATOM      1  N   UNL d   1     -49.023  12.795  23.010  0.00  0.00    -0.268 N 
ATOM      2  C   UNL d   1     -48.761  11.818  23.345  0.00  0.00     0.265 A 
ATOM      3  C   UNL d   1     -48.310  13.166  22.983  0.00  0.00     0.067 A 
ATOM      4  C   UNL d   1     -47.963  11.871  23.427  0.00  0.00     0.058 A 
ATOM      5  C   UNL d   1     -47.736  12.622  23.222  0.00  0.00     0.021 A 
ATOM      6  O   UNL d   1     -49.156  11.106  23.517  0.00  0.00    -0.267 OA
ATOM      7  C   UNL d   1     -46.942  12.845  23.251  0.00  0.00     0.002 A 
ATOM      8  C   UNL d   1     -48.087  13.932  22.773  0.00  0.00     0.018 A 
ATOM      9  C   UNL d   1     -47.387  11.322  23.668  0.00  0.00     0.005 A 
ATOM     10  C   UNL d   1     -47.293  14.154  22.802  0.00  0.00     0.002 A 
ATOM     11  C   UNL d   1     -46.593  11.545  23.697  0.00  0.00     0.000 A 
ATOM     12  C   UNL d   1     -46.368  12.318  23.485  0.00  0.00     0.000 A 
ATOM     13  C   UNL d   1     -46.716  13.614  23.041  0.00  0.00     0.000 A 
ENDROOT
BRANCH   1  14
ATOM     14  C   UNL d   1     -49.718  13.202  22.798  0.00  0.00     0.154 C 
BRANCH  14  15
ATOM     15  C   UNL d   1     -50.327  12.774  22.432  0.00  0.00     0.230 C 
ATOM     16  O   UNL d   1     -50.959  12.546  22.888  0.00  0.00    -0.643 OA
ATOM     17  O   UNL d   1     -50.298  12.588  21.650  0.00  0.00    -0.643 OA
ENDBRANCH  14  15
ENDBRANCH   1  14
TORSDOF 2
ENDMDL
MODEL 3
REMARK VINA RESULT:      -8.3      0.992      2.302
REMARK  2 active torsions:
REMARK  status: ('A' for Active; 'I' for Inactive)
REMARK    1  A    between atoms: C_6  and  N_1 
REMARK    2  A    between atoms: C_7  and  C_6 
ROOT
ATOM      1  N   UNL d   1     -48.869  12.576  23.164  0.00  0.00    -0.268 N 
ATOM      2  C   UNL d   1     -48.673  13.576  22.854  0.00  0.00     0.265 A 
ATOM      3  C   UNL d   1     -48.132  12.296  23.321  0.00  0.00     0.067 A 
ATOM      4  C   UNL d   1     -47.873  13.622  22.910  0.00  0.00     0.058 A 
ATOM      5  C   UNL d   1     -47.595  12.905  23.170  0.00  0.00     0.021 A 
ATOM      6  O   UNL d   1     -49.117  14.233  22.599  0.00  0.00    -0.267 OA
ATOM      7  C   UNL d   1     -46.787  12.782  23.282  0.00  0.00     0.002 A 
ATOM      8  C   UNL d   1     -47.857  11.565  23.585  0.00  0.00     0.018 A 
ATOM      9  C   UNL d   1     -47.335  14.237  22.757  0.00  0.00     0.005 A 
ATOM     10  C   UNL d   1     -47.049  11.442  23.698  0.00  0.00     0.002 A 
ATOM     11  C   UNL d   1     -46.527  14.114  22.869  0.00  0.00     0.000 A 
ATOM     12  C   UNL d   1     -46.250  13.376  23.136  0.00  0.00     0.000 A 
ATOM     13  C   UNL d   1     -46.509  12.049  23.547  0.00  0.00     0.000 A 
ENDROOT
BRANCH   1  14
ATOM     14  C   UNL d   1     -49.536  12.087  23.264  0.00  0.00     0.154 C 
BRANCH  14  15
ATOM     15  C   UNL d   1     -50.199  12.223  22.784  0.00  0.00     0.230 C 
ATOM     16  O   UNL d   1     -50.854  12.558  23.127  0.00  0.00    -0.643 OA
ATOM     17  O   UNL d   1     -50.196  12.032  22.003  0.00  0.00    -0.643 OA
ENDBRANCH  14  15
ENDBRANCH   1  14
TORSDOF 2
ENDMDL
MODEL 4
REMARK VINA RESULT:      -8.1      1.942      3.203
REMARK  2 active torsions:
REMARK  status: ('A' for Active; 'I' for Inactive)
REMARK    1  A    between atoms: C_6  and  N_1 
REMARK    2  A    between atoms: C_7  and  C_6 
ROOT
ATOM      1  N   UNL d   1     -47.618  12.441  22.957  0.00  0.00    -0.268 N 
ATOM      2  C   UNL d   1     -47.786  13.072  22.116  0.00  0.00     0.265 A 
ATOM      3  C   UNL d   1     -48.353  12.155  23.110  0.00  0.00     0.067 A 
ATOM      4  C   UNL d   1     -48.577  12.993  21.994  0.00  0.00     0.058 A 
ATOM      5  C   UNL d   1     -48.869  12.483  22.553  0.00  0.00     0.021 A 
ATOM      6  O   UNL d   1     -47.331  13.566  21.623  0.00  0.00    -0.267 OA
ATOM      7  C   UNL d   1     -49.671  12.291  22.570  0.00  0.00     0.002 A 
ATOM      8  C   UNL d   1     -48.643  11.636  23.681  0.00  0.00     0.018 A 
ATOM      9  C   UNL d   1     -49.093  13.323  21.434  0.00  0.00     0.005 A 
ATOM     10  C   UNL d   1     -49.446  11.444  23.697  0.00  0.00     0.002 A 
ATOM     11  C   UNL d   1     -49.895  13.131  21.450  0.00  0.00     0.000 A 
ATOM     12  C   UNL d   1     -50.188  12.607  22.027  0.00  0.00     0.000 A 
ATOM     13  C   UNL d   1     -49.965  11.769  23.143  0.00  0.00     0.000 A 
ENDROOT
BRANCH   1  14
ATOM     14  C   UNL d   1     -46.970  12.211  23.428  0.00  0.00     0.154 C 
BRANCH  14  15
ATOM     15  C   UNL d   1     -46.264  12.642  23.363  0.00  0.00     0.230 C 
ATOM     16  O   UNL d   1     -45.647  12.302  22.958  0.00  0.00    -0.643 OA
ATOM     17  O   UNL d   1     -46.188  13.374  23.688  0.00  0.00    -0.643 OA
ENDBRANCH  14  15
ENDBRANCH   1  14
TORSDOF 2
ENDMDL
MODEL 5
REMARK VINA RESULT:      -8.1      1.860      2.757
REMARK  2 active torsions:
REMARK  status: ('A' for Active; 'I' for Inactive)
REMARK    1  A    between atoms: C_6  and  N_1 
REMARK    2  A    between atoms: C_7  and  C_6 
ROOT
ATOM      1  N   UNL d   1     -47.524  12.876  22.742  0.00  0.00    -0.268 N 
ATOM      2  C   UNL d   1     -47.737  12.002  23.313  0.00  0.00     0.265 A 
ATOM      3  C   UNL d   1     -48.259  13.157  22.574  0.00  0.00     0.067 A 
ATOM      4  C   UNL d   1     -48.540  11.998  23.331  0.00  0.00     0.058 A 
ATOM      5  C   UNL d   1     -48.807  12.643  22.918  0.00  0.00     0.021 A 
ATOM      6  O   UNL d   1     -47.303  11.403  23.694  0.00  0.00    -0.267 OA
ATOM      7  C   UNL d   1     -49.615  12.788  22.839  0.00  0.00     0.002 A 
ATOM      8  C   UNL d   1     -48.522  13.814  22.152  0.00  0.00     0.018 A 
ATOM      9  C   UNL d   1     -49.090  11.480  23.678  0.00  0.00     0.005 A 
ATOM     10  C   UNL d   1     -49.331  13.959  22.073  0.00  0.00     0.002 A 
ATOM     11  C   UNL d   1     -49.898  11.625  23.599  0.00  0.00     0.000 A 
ATOM     12  C   UNL d   1     -50.164  12.289  23.173  0.00  0.00     0.000 A 
ATOM     13  C   UNL d   1     -49.882  13.448  22.415  0.00  0.00     0.000 A 
ENDROOT
BRANCH   1  14
ATOM     14  C   UNL d   1     -46.847  13.278  22.469  0.00  0.00     0.154 C 
BRANCH  14  15
ATOM     15  C   UNL d   1     -46.155  13.235  22.924  0.00  0.00     0.230 C 
ATOM     16  O   UNL d   1     -45.530  12.811  22.627  0.00  0.00    -0.643 OA
ATOM     17  O   UNL d   1     -46.100  13.601  23.638  0.00  0.00    -0.643 OA
ENDBRANCH  14  15
ENDBRANCH   1  14
TORSDOF 2
ENDMDL
MODEL 6
REMARK VINA RESULT:      -6.5      1.006      2.652
REMARK  2 active torsions:
REMARK  status: ('A' for Active; 'I' for Inactive)
REMARK    1  A    between atoms: C_6  and  N_1 
REMARK    2  A    between atoms: C_7  and  C_6 
ROOT
ATOM      1  N   UNL d   1     -48.224  12.623  23.237  0.00  0.00    -0.268 N 
ATOM      2  C   UNL d   1     -49.005  13.330  23.081  0.00  0.00     0.265 A 
ATOM      3  C   UNL d   1     -47.563  13.061  23.105  0.00  0.00     0.067 A 
ATOM      4  C   UNL d   1     -48.599  14.000  22.898  0.00  0.00     0.058 A 
ATOM      5  C   UNL d   1     -47.806  13.828  22.917  0.00  0.00     0.021 A 
ATOM      6  O   UNL d   1     -49.837  13.335  23.106  0.00  0.00    -0.267 OA
ATOM      7  C   UNL d   1     -47.245  14.411  22.752  0.00  0.00     0.002 A 
ATOM      8  C   UNL d   1     -46.759  12.880  23.126  0.00  0.00     0.018 A 
ATOM      9  C   UNL d   1     -48.845  14.770  22.710  0.00  0.00     0.005 A 
ATOM     10  C   UNL d   1     -46.198  13.462  22.960  0.00  0.00     0.002 A 
ATOM     11  C   UNL d   1     -48.285  15.353  22.544  0.00  0.00     0.000 A 
ATOM     12  C   UNL d   1     -47.473  15.169  22.566  0.00  0.00     0.000 A 
ATOM     13  C   UNL d   1     -46.437  14.231  22.772  0.00  0.00     0.000 A 
ENDROOT
BRANCH   1  14
ATOM     14  C   UNL d   1     -48.161  11.817  23.440  0.00  0.00     0.154 C 
BRANCH  14  15
ATOM     15  C   UNL d   1     -48.748  11.297  23.168  0.00  0.00     0.230 C 
ATOM     16  O   UNL d   1     -49.309  11.046  23.698  0.00  0.00    -0.643 OA
ATOM     17  O   UNL d   1     -48.764  11.047  22.404  0.00  0.00    -0.643 OA
ENDBRANCH  14  15
ENDBRANCH   1  14
TORSDOF 2
ENDMDL
