MODEL 1
REMARK VINA RESULT:       7.6      0.000      0.000
REMARK  3 active torsions:
REMARK  status: ('A' for Active; 'I' for Inactive)
REMARK    1  A    between atoms: S_2  and  C_5 
REMARK    2  A    between atoms: C_7  and  S_2 
REMARK    3  A    between atoms: C_3  and  C_7 
ROOT
ATOM      1  C   UNL d   1      46.438 -19.040  43.419  0.00  0.00     0.087 A 
ATOM      2  N   UNL d   1      46.384 -18.636  42.700  0.00  0.00    -0.244 NA
ATOM      3  C   UNL d   1      46.364 -18.635  44.131  0.00  0.00     0.043 A 
ATOM      4  C   UNL d   1      46.568 -19.855  43.413  0.00  0.00     0.018 A 
ATOM      5  C   UNL d   1      46.548 -19.850  44.845  0.00  0.00     0.001 A 
ATOM      6  C   UNL d   1      46.460 -19.049  41.987  0.00  0.00     0.099 A 
ATOM      7  C   UNL d   1      46.418 -19.039  44.851  0.00  0.00     0.008 A 
ATOM      8  C   UNL d   1      46.623 -20.259  44.133  0.00  0.00     0.002 A 
ATOM      9  C   UNL d   1      46.644 -20.268  42.714  0.00  0.00     0.003 A 
ATOM     10  C   UNL d   1      46.590 -19.868  41.994  0.00  0.00     0.021 A 
ENDROOT
BRANCH   3  11
ATOM     11  S   UNL d   1      46.233 -17.816  44.124  0.00  0.00    -0.101 SA
BRANCH  11  12
ATOM     12  C   UNL d   1      45.980 -17.254  44.687  0.00  0.00     0.160 C 
BRANCH  12  13
ATOM     13  C   UNL d   1      45.795 -16.446  44.666  0.00  0.00     0.197 C 
ATOM     14  O   UNL d   1      45.029 -16.193  44.844  0.00  0.00    -0.647 OA
ATOM     15  O   UNL d   1      46.377 -15.893  44.468  0.00  0.00    -0.647 OA
ENDBRANCH  12  13
ENDBRANCH  11  12
ENDBRANCH   3  11
TORSDOF 3
ENDMDL
MODEL 2
REMARK VINA RESULT:       8.5      3.807      5.759
REMARK  3 active torsions:
REMARK  status: ('A' for Active; 'I' for Inactive)
REMARK    1  A    between atoms: S_2  and  C_5 
REMARK    2  A    between atoms: C_7  and  S_2 
REMARK    3  A    between atoms: C_3  and  C_7 
ROOT
ATOM      1  C   UNL d   1      45.164 -13.185  43.969  0.00  0.00     0.087 A 
ATOM      2  N   UNL d   1      44.511 -13.547  43.613  0.00  0.00    -0.244 NA
ATOM      3  C   UNL d   1      45.552 -13.549  44.596  0.00  0.00     0.043 A 
ATOM      4  C   UNL d   1      45.420 -12.453  43.686  0.00  0.00     0.018 A 
ATOM      5  C   UNL d   1      46.460 -12.459  44.671  0.00  0.00     0.001 A 
ATOM      6  C   UNL d   1      44.125 -13.176  42.983  0.00  0.00     0.099 A 
ATOM      7  C   UNL d   1      46.205 -13.187  44.952  0.00  0.00     0.008 A 
ATOM      8  C   UNL d   1      46.073 -12.091  44.042  0.00  0.00     0.002 A 
ATOM      9  C   UNL d   1      45.044 -12.082  43.065  0.00  0.00     0.003 A 
ATOM     10  C   UNL d   1      44.393 -12.441  42.708  0.00  0.00     0.021 A 
ENDROOT
BRANCH   3  11
ATOM     11  S   UNL d   1      45.285 -14.285  44.871  0.00  0.00    -0.101 SA
BRANCH  11  12
ATOM     12  C   UNL d   1      45.615 -15.049  44.928  0.00  0.00     0.160 C 
BRANCH  12  13
ATOM     13  C   UNL d   1      45.311 -15.820  44.931  0.00  0.00     0.197 C 
ATOM     14  O   UNL d   1      44.493 -15.943  44.915  0.00  0.00    -0.647 OA
ATOM     15  O   UNL d   1      45.825 -16.468  44.951  0.00  0.00    -0.647 OA
ENDBRANCH  12  13
ENDBRANCH  11  12
ENDBRANCH   3  11
TORSDOF 3
ENDMDL
