MODEL 1
REMARK VINA RESULT:       6.5      0.000      0.000
REMARK  4 active torsions:
REMARK  status: ('A' for Active; 'I' for Inactive)
REMARK    1  A    between atoms: N_2  and  S_1 
REMARK    2  A    between atoms: N_3  and  S_1 
REMARK    3  A    between atoms: C_8  and  N_3 
REMARK    4  A    between atoms: C_6  and  C_8 
ROOT
ATOM      1  S   UNL d   1      13.531  11.785  -2.262  0.00  0.00     0.351 S 
ATOM      2  O   UNL d   1      14.257  11.787  -2.656  0.00  0.00    -0.180 OA
ATOM      3  O   UNL d   1      12.808  11.783  -1.871  0.00  0.00    -0.180 OA
ENDROOT
BRANCH   1   4
ATOM      4  N   UNL d   1      13.929  11.786  -1.538  0.00  0.00    -0.211 N 
ATOM      5  C   UNL d   1      13.489  11.790  -0.839  0.00  0.00     0.120 C 
ATOM      6  C   UNL d   1      13.886  11.791  -0.120  0.00  0.00     0.142 C 
ATOM      7  O   UNL d   1      14.704  11.900  -0.095  0.00  0.00    -0.300 OA
ATOM      8  C   UNL d   1      15.123  12.007  -0.792  0.00  0.00     0.142 C 
ATOM      9  C   UNL d   1      14.726  12.007  -1.516  0.00  0.00     0.120 C 
ENDBRANCH   1   4
BRANCH   1  10
ATOM     10  N   UNL d   1      13.079  11.784  -2.948  0.00  0.00    -0.144 NA
BRANCH  10  11
ATOM     11  C   UNL d   1      13.155  12.398  -3.508  0.00  0.00     0.121 C 
BRANCH  11  12
ATOM     12  C   UNL d   1      12.991  12.256  -4.318  0.00  0.00     0.185 C 
ATOM     13  O   UNL d   1      13.540  11.779  -4.790  0.00  0.00    -0.321 OA
ATOM     14  C   UNL d   1      13.371  11.932  -5.582  0.00  0.00     0.117 C 
ATOM     15  C   UNL d   1      12.943  12.637  -5.627  0.00  0.00     0.025 C 
ATOM     16  C   UNL d   1      12.846  12.922  -4.857  0.00  0.00     0.012 C 
ENDBRANCH  11  12
ENDBRANCH  10  11
ENDBRANCH   1  10
TORSDOF 4
ENDMDL
