MODEL 1
REMARK VINA RESULT:      -4.2      0.000      0.000
REMARK  5 active torsions:
REMARK  status: ('A' for Active; 'I' for Inactive)
REMARK    1  A    between atoms: N_2  and  S_1 
REMARK    2  A    between atoms: C_10  and  S_1 
REMARK    3  A    between atoms: C_4  and  C_3 
REMARK       I    between atoms: N_5  and  C_4 
REMARK    4  A    between atoms: C_6  and  N_5 
REMARK    5  A    between atoms: O_24  and  C_21 
ROOT
ATOM      1  N   UNL d   1     -46.836  12.949  22.516  0.00  0.00    -0.226 N 
ATOM      2  C   UNL d   1     -46.771  13.777  22.614  0.00  0.00     0.133 A 
ATOM      3  C   UNL d   1     -46.182  12.510  22.281  0.00  0.00     0.092 A 
ATOM      4  C   UNL d   1     -46.052  14.157  22.477  0.00  0.00     0.023 A 
ATOM      5  C   UNL d   1     -45.459  12.885  22.141  0.00  0.00     0.018 A 
ATOM      6  C   UNL d   1     -45.398  13.713  22.241  0.00  0.00     0.003 A 
ATOM      7  C   UNL d   1     -44.803  12.451  21.906  0.00  0.00     0.002 A 
ATOM      8  C   UNL d   1     -44.674  14.088  22.101  0.00  0.00     0.000 A 
ATOM      9  C   UNL d   1     -44.089  12.826  21.769  0.00  0.00     0.000 A 
ATOM     10  C   UNL d   1     -44.025  13.640  21.866  0.00  0.00     0.000 A 
ENDROOT
BRANCH   1  11
ATOM     11  S   UNL d   1     -47.569  12.575  22.658  0.00  0.00     0.271 S 
ATOM     12  O   UNL d   1     -47.731  12.607  21.857  0.00  0.00    -0.200 OA
ATOM     13  O   UNL d   1     -47.396  12.550  23.455  0.00  0.00    -0.200 OA
BRANCH  11  14
ATOM     14  C   UNL d   1     -48.289  12.208  22.795  0.00  0.00     0.104 A 
ATOM     15  C   UNL d   1     -48.753  11.961  22.156  0.00  0.00     0.015 A 
ATOM     16  C   UNL d   1     -49.474  11.594  22.294  0.00  0.00     0.025 A 
ATOM     17  C   UNL d   1     -49.738  11.468  23.066  0.00  0.00     0.094 A 
ATOM     18  C   UNL d   1     -49.272  11.716  23.698  0.00  0.00     0.025 A 
ATOM     19  C   UNL d   1     -48.544  12.087  23.567  0.00  0.00     0.015 A 
BRANCH  17  20
ATOM     20  O   UNL d   1     -50.459  11.101  23.204  0.00  0.00    -0.328 OA
ATOM     21  C   UNL d   1     -51.016  11.462  23.696  0.00  0.00     0.181 C 
ENDBRANCH  17  20
ENDBRANCH  11  14
ENDBRANCH   1  11
BRANCH   2  22
ATOM     22  C   UNL d   1     -47.435  14.216  22.852  0.00  0.00     0.298 C 
ATOM     23  N   UNL d   1     -47.813  14.708  22.311  0.00  0.00    -0.181 NA
ATOM     24  O   UNL d   1     -47.712  14.156  23.630  0.00  0.00    -0.264 OA
BRANCH  23  25
ATOM     25  C   UNL d   1     -48.471  15.145  22.543  0.00  0.00     0.197 A 
ATOM     26  N   UNL d   1     -48.748  15.496  23.340  0.00  0.00    -0.219 NA
ATOM     27  C   UNL d   1     -49.520  15.911  23.200  0.00  0.00     0.108 A 
ATOM     28  C   UNL d   1     -49.736  15.828  22.326  0.00  0.00     0.059 A 
ATOM     29  S   UNL d   1     -49.090  15.356  21.919  0.00  0.00    -0.046 SA
ENDBRANCH  23  25
ENDBRANCH   2  22
TORSDOF 5
ENDMDL
MODEL 2
REMARK VINA RESULT:      -3.6      1.173      2.841
REMARK  5 active torsions:
REMARK  status: ('A' for Active; 'I' for Inactive)
REMARK    1  A    between atoms: N_2  and  S_1 
REMARK    2  A    between atoms: C_10  and  S_1 
REMARK    3  A    between atoms: C_4  and  C_3 
REMARK       I    between atoms: N_5  and  C_4 
REMARK    4  A    between atoms: C_6  and  N_5 
REMARK    5  A    between atoms: O_24  and  C_21 
ROOT
ATOM      1  N   UNL d   1     -46.766  13.577  22.495  0.00  0.00    -0.226 N 
ATOM      2  C   UNL d   1     -46.804  12.776  22.731  0.00  0.00     0.133 A 
ATOM      3  C   UNL d   1     -46.058  13.892  22.220  0.00  0.00     0.092 A 
ATOM      4  C   UNL d   1     -46.133  12.298  22.690  0.00  0.00     0.023 A 
ATOM      5  C   UNL d   1     -45.382  13.418  22.176  0.00  0.00     0.018 A 
ATOM      6  C   UNL d   1     -45.424  12.617  22.413  0.00  0.00     0.003 A 
ATOM      7  C   UNL d   1     -44.673  13.728  21.902  0.00  0.00     0.002 A 
ATOM      8  C   UNL d   1     -44.748  12.144  22.369  0.00  0.00     0.000 A 
ATOM      9  C   UNL d   1     -44.006  13.255  21.860  0.00  0.00     0.000 A 
ATOM     10  C   UNL d   1     -44.043  12.467  22.092  0.00  0.00     0.000 A 
ENDROOT
BRANCH   1  11
ATOM     11  S   UNL d   1     -47.451  14.052  22.541  0.00  0.00     0.271 S 
ATOM     12  O   UNL d   1     -47.628  13.857  21.766  0.00  0.00    -0.200 OA
ATOM     13  O   UNL d   1     -47.264  14.239  23.313  0.00  0.00    -0.200 OA
BRANCH  11  14
ATOM     14  C   UNL d   1     -48.125  14.517  22.583  0.00  0.00     0.104 A 
ATOM     15  C   UNL d   1     -48.564  14.669  21.899  0.00  0.00     0.015 A 
ATOM     16  C   UNL d   1     -49.237  15.135  21.942  0.00  0.00     0.025 A 
ATOM     17  C   UNL d   1     -49.481  15.453  22.664  0.00  0.00     0.094 A 
ATOM     18  C   UNL d   1     -49.039  15.298  23.342  0.00  0.00     0.025 A 
ATOM     19  C   UNL d   1     -48.359  14.830  23.307  0.00  0.00     0.015 A 
BRANCH  17  20
ATOM     20  O   UNL d   1     -50.154  15.919  22.707  0.00  0.00    -0.328 OA
ATOM     21  C   UNL d   1     -50.887  15.568  22.865  0.00  0.00     0.181 C 
ENDBRANCH  17  20
ENDBRANCH  11  14
ENDBRANCH   1  11
BRANCH   2  22
ATOM     22  C   UNL d   1     -47.521  12.463  23.009  0.00  0.00     0.298 C 
ATOM     23  N   UNL d   1     -47.885  11.851  22.596  0.00  0.00    -0.181 NA
ATOM     24  O   UNL d   1     -47.865  12.767  23.698  0.00  0.00    -0.264 OA
BRANCH  23  25
ATOM     25  C   UNL d   1     -48.596  11.538  22.867  0.00  0.00     0.197 A 
ATOM     26  N   UNL d   1     -48.955  11.412  23.698  0.00  0.00    -0.219 NA
ATOM     27  C   UNL d   1     -49.755  11.041  23.595  0.00  0.00     0.108 A 
ATOM     28  C   UNL d   1     -49.908  10.930  22.711  0.00  0.00     0.059 A 
ATOM     29  S   UNL d   1     -49.195  11.236  22.260  0.00  0.00    -0.046 SA
ENDBRANCH  23  25
ENDBRANCH   2  22
TORSDOF 5
ENDMDL
MODEL 3
REMARK VINA RESULT:      -3.6      6.552      8.837
REMARK  5 active torsions:
REMARK  status: ('A' for Active; 'I' for Inactive)
REMARK    1  A    between atoms: N_2  and  S_1 
REMARK    2  A    between atoms: C_10  and  S_1 
REMARK    3  A    between atoms: C_4  and  C_3 
REMARK       I    between atoms: N_5  and  C_4 
REMARK    4  A    between atoms: C_6  and  N_5 
REMARK    5  A    between atoms: O_24  and  C_21 
ROOT
ATOM      1  N   UNL d   1     -39.750  15.069  19.156  0.00  0.00    -0.226 N 
ATOM      2  C   UNL d   1     -39.047  15.374  19.491  0.00  0.00     0.133 A 
ATOM      3  C   UNL d   1     -39.842  15.050  18.340  0.00  0.00     0.092 A 
ATOM      4  C   UNL d   1     -38.444  15.658  19.005  0.00  0.00     0.023 A 
ATOM      5  C   UNL d   1     -39.241  15.332  17.847  0.00  0.00     0.018 A 
ATOM      6  C   UNL d   1     -38.540  15.637  18.185  0.00  0.00     0.003 A 
ATOM      7  C   UNL d   1     -39.329  15.316  17.032  0.00  0.00     0.002 A 
ATOM      8  C   UNL d   1     -37.940  15.920  17.693  0.00  0.00     0.000 A 
ATOM      9  C   UNL d   1     -38.731  15.596  16.547  0.00  0.00     0.000 A 
ATOM     10  C   UNL d   1     -38.041  15.897  16.876  0.00  0.00     0.000 A 
ENDROOT
BRANCH   1  11
ATOM     11  S   UNL d   1     -40.354  14.784  19.658  0.00  0.00     0.271 S 
ATOM     12  O   UNL d   1     -40.051  14.028  19.579  0.00  0.00    -0.200 OA
ATOM     13  O   UNL d   1     -40.646  15.543  19.728  0.00  0.00    -0.200 OA
BRANCH  11  14
ATOM     14  C   UNL d   1     -40.946  14.503  20.150  0.00  0.00     0.104 A 
ATOM     15  C   UNL d   1     -41.415  15.035  20.576  0.00  0.00     0.015 A 
ATOM     16  C   UNL d   1     -42.007  14.752  21.068  0.00  0.00     0.025 A 
ATOM     17  C   UNL d   1     -42.138  13.940  21.141  0.00  0.00     0.094 A 
ATOM     18  C   UNL d   1     -41.667  13.415  20.715  0.00  0.00     0.025 A 
ATOM     19  C   UNL d   1     -41.069  13.693  20.216  0.00  0.00     0.015 A 
BRANCH  17  20
ATOM     20  O   UNL d   1     -42.730  13.657  21.633  0.00  0.00    -0.328 OA
ATOM     21  C   UNL d   1     -43.081  12.925  21.474  0.00  0.00     0.181 C 
ENDBRANCH  17  20
ENDBRANCH  11  14
ENDBRANCH   1  11
BRANCH   2  22
ATOM     22  C   UNL d   1     -38.959  15.391  20.317  0.00  0.00     0.298 C 
ATOM     23  N   UNL d   1     -38.387  14.920  20.675  0.00  0.00    -0.181 NA
ATOM     24  O   UNL d   1     -39.445  15.881  20.773  0.00  0.00    -0.264 OA
BRANCH  23  25
ATOM     25  C   UNL d   1     -38.296  14.934  21.493  0.00  0.00     0.197 A 
ATOM     26  N   UNL d   1     -38.449  15.565  22.135  0.00  0.00    -0.219 NA
ATOM     27  C   UNL d   1     -38.230  15.213  22.920  0.00  0.00     0.108 A 
ATOM     28  C   UNL d   1     -37.940  14.368  22.784  0.00  0.00     0.059 A 
ATOM     29  S   UNL d   1     -37.980  14.193  21.904  0.00  0.00    -0.046 SA
ENDBRANCH  23  25
ENDBRANCH   2  22
TORSDOF 5
ENDMDL
MODEL 4
REMARK VINA RESULT:      -3.5      7.173      9.430
REMARK  5 active torsions:
REMARK  status: ('A' for Active; 'I' for Inactive)
REMARK    1  A    between atoms: N_2  and  S_1 
REMARK    2  A    between atoms: C_10  and  S_1 
REMARK    3  A    between atoms: C_4  and  C_3 
REMARK       I    between atoms: N_5  and  C_4 
REMARK    4  A    between atoms: C_6  and  N_5 
REMARK    5  A    between atoms: O_24  and  C_21 
ROOT
ATOM      1  N   UNL d   1     -38.710  14.124  18.890  0.00  0.00    -0.226 N 
ATOM      2  C   UNL d   1     -39.340  14.619  18.651  0.00  0.00     0.133 A 
ATOM      3  C   UNL d   1     -38.249  13.744  18.325  0.00  0.00     0.092 A 
ATOM      4  C   UNL d   1     -39.501  14.730  17.850  0.00  0.00     0.023 A 
ATOM      5  C   UNL d   1     -38.406  13.851  17.520  0.00  0.00     0.018 A 
ATOM      6  C   UNL d   1     -39.036  14.348  17.285  0.00  0.00     0.003 A 
ATOM      7  C   UNL d   1     -37.948  13.474  16.953  0.00  0.00     0.002 A 
ATOM      8  C   UNL d   1     -39.193  14.454  16.481  0.00  0.00     0.000 A 
ATOM      9  C   UNL d   1     -38.106  13.583  16.157  0.00  0.00     0.000 A 
ATOM     10  C   UNL d   1     -38.725  14.070  15.923  0.00  0.00     0.000 A 
ENDROOT
BRANCH   1  11
ATOM     11  S   UNL d   1     -38.556  14.019  19.704  0.00  0.00     0.271 S 
ATOM     12  O   UNL d   1     -38.103  14.701  19.696  0.00  0.00    -0.200 OA
ATOM     13  O   UNL d   1     -39.010  13.341  19.697  0.00  0.00    -0.200 OA
BRANCH  11  14
ATOM     14  C   UNL d   1     -38.403  13.918  20.503  0.00  0.00     0.104 A 
ATOM     15  C   UNL d   1     -38.556  13.189  20.862  0.00  0.00     0.015 A 
ATOM     16  C   UNL d   1     -38.402  13.089  21.662  0.00  0.00     0.025 A 
ATOM     17  C   UNL d   1     -38.096  13.712  22.110  0.00  0.00     0.094 A 
ATOM     18  C   UNL d   1     -37.946  14.435  21.746  0.00  0.00     0.025 A 
ATOM     19  C   UNL d   1     -38.098  14.544  20.941  0.00  0.00     0.015 A 
BRANCH  17  20
ATOM     20  O   UNL d   1     -37.942  13.612  22.909  0.00  0.00    -0.328 OA
ATOM     21  C   UNL d   1     -38.514  13.265  23.397  0.00  0.00     0.181 C 
ENDBRANCH  17  20
ENDBRANCH  11  14
ENDBRANCH   1  11
BRANCH   2  22
ATOM     22  C   UNL d   1     -39.803  15.001  19.225  0.00  0.00     0.298 C 
ATOM     23  N   UNL d   1     -40.531  14.681  19.439  0.00  0.00    -0.181 NA
ATOM     24  O   UNL d   1     -39.531  15.698  19.578  0.00  0.00    -0.264 OA
BRANCH  23  25
ATOM     25  C   UNL d   1     -40.993  15.056  20.008  0.00  0.00     0.197 A 
ATOM     26  N   UNL d   1     -40.931  15.855  20.446  0.00  0.00    -0.219 NA
ATOM     27  C   UNL d   1     -41.625  15.918  20.997  0.00  0.00     0.108 A 
ATOM     28  C   UNL d   1     -42.125  15.170  20.914  0.00  0.00     0.059 A 
ATOM     29  S   UNL d   1     -41.737  14.637  20.304  0.00  0.00    -0.046 SA
ENDBRANCH  23  25
ENDBRANCH   2  22
TORSDOF 5
ENDMDL
MODEL 5
REMARK VINA RESULT:      -3.1      1.478      2.014
REMARK  5 active torsions:
REMARK  status: ('A' for Active; 'I' for Inactive)
REMARK    1  A    between atoms: N_2  and  S_1 
REMARK    2  A    between atoms: C_10  and  S_1 
REMARK    3  A    between atoms: C_4  and  C_3 
REMARK       I    between atoms: N_5  and  C_4 
REMARK    4  A    between atoms: C_6  and  N_5 
REMARK    5  A    between atoms: O_24  and  C_21 
ROOT
ATOM      1  N   UNL d   1     -46.617  11.527  23.039  0.00  0.00    -0.226 N 
ATOM      2  C   UNL d   1     -46.136  12.147  22.749  0.00  0.00     0.133 A 
ATOM      3  C   UNL d   1     -46.271  10.848  23.346  0.00  0.00     0.092 A 
ATOM      4  C   UNL d   1     -45.314  12.080  22.770  0.00  0.00     0.023 A 
ATOM      5  C   UNL d   1     -45.448  10.775  23.370  0.00  0.00     0.018 A 
ATOM      6  C   UNL d   1     -44.971  11.396  23.079  0.00  0.00     0.003 A 
ATOM      7  C   UNL d   1     -45.099  10.098  23.675  0.00  0.00     0.002 A 
ATOM      8  C   UNL d   1     -44.148  11.324  23.103  0.00  0.00     0.000 A 
ATOM      9  C   UNL d   1     -44.283  10.030  23.697  0.00  0.00     0.000 A 
ATOM     10  C   UNL d   1     -43.810  10.639  23.412  0.00  0.00     0.000 A 
ENDROOT
BRANCH   1  11
ATOM     11  S   UNL d   1     -47.448  11.606  23.013  0.00  0.00     0.271 S 
ATOM     12  O   UNL d   1     -47.459  11.160  22.326  0.00  0.00    -0.200 OA
ATOM     13  O   UNL d   1     -47.423  12.048  23.698  0.00  0.00    -0.200 OA
BRANCH  11  14
ATOM     14  C   UNL d   1     -48.264  11.681  22.984  0.00  0.00     0.104 A 
ATOM     15  C   UNL d   1     -48.644  11.766  22.254  0.00  0.00     0.015 A 
ATOM     16  C   UNL d   1     -49.460  11.841  22.227  0.00  0.00     0.025 A 
ATOM     17  C   UNL d   1     -49.905  11.832  22.923  0.00  0.00     0.094 A 
ATOM     18  C   UNL d   1     -49.520  11.747  23.646  0.00  0.00     0.025 A 
ATOM     19  C   UNL d   1     -48.698  11.670  23.682  0.00  0.00     0.015 A 
BRANCH  17  20
ATOM     20  O   UNL d   1     -50.721  11.907  22.896  0.00  0.00    -0.328 OA
ATOM     21  C   UNL d   1     -51.060  12.639  22.710  0.00  0.00     0.181 C 
ENDBRANCH  17  20
ENDBRANCH  11  14
ENDBRANCH   1  11
BRANCH   2  22
ATOM     22  C   UNL d   1     -46.490  12.832  22.440  0.00  0.00     0.298 C 
ATOM     23  N   UNL d   1     -46.430  13.542  22.851  0.00  0.00    -0.181 NA
ATOM     24  O   UNL d   1     -46.900  12.795  21.722  0.00  0.00    -0.264 OA
BRANCH  23  25
ATOM     25  C   UNL d   1     -46.780  14.223  22.548  0.00  0.00     0.197 A 
ATOM     26  N   UNL d   1     -47.273  14.401  21.799  0.00  0.00    -0.219 NA
ATOM     27  C   UNL d   1     -47.479  15.264  21.809  0.00  0.00     0.108 A 
ATOM     28  C   UNL d   1     -47.124  15.636  22.552  0.00  0.00     0.059 A 
ATOM     29  S   UNL d   1     -46.692  14.996  23.010  0.00  0.00    -0.046 SA
ENDBRANCH  23  25
ENDBRANCH   2  22
TORSDOF 5
ENDMDL
MODEL 6
REMARK VINA RESULT:      -2.1      5.721      8.282
REMARK  5 active torsions:
REMARK  status: ('A' for Active; 'I' for Inactive)
REMARK    1  A    between atoms: N_2  and  S_1 
REMARK    2  A    between atoms: C_10  and  S_1 
REMARK    3  A    between atoms: C_4  and  C_3 
REMARK       I    between atoms: N_5  and  C_4 
REMARK    4  A    between atoms: C_6  and  N_5 
REMARK    5  A    between atoms: O_24  and  C_21 
ROOT
ATOM      1  N   UNL d   1     -39.833  15.026  20.624  0.00  0.00    -0.226 N 
ATOM      2  C   UNL d   1     -40.185  14.521  21.189  0.00  0.00     0.133 A 
ATOM      3  C   UNL d   1     -39.187  15.490  20.833  0.00  0.00     0.092 A 
ATOM      4  C   UNL d   1     -39.887  14.484  21.957  0.00  0.00     0.023 A 
ATOM      5  C   UNL d   1     -38.883  15.458  21.601  0.00  0.00     0.018 A 
ATOM      6  C   UNL d   1     -39.238  14.951  22.163  0.00  0.00     0.003 A 
ATOM      7  C   UNL d   1     -38.239  15.919  21.814  0.00  0.00     0.002 A 
ATOM      8  C   UNL d   1     -38.935  14.920  22.932  0.00  0.00     0.000 A 
ATOM      9  C   UNL d   1     -37.942  15.885  22.576  0.00  0.00     0.000 A 
ATOM     10  C   UNL d   1     -38.288  15.388  23.132  0.00  0.00     0.000 A 
ENDROOT
BRANCH   1  11
ATOM     11  S   UNL d   1     -40.142  15.055  19.849  0.00  0.00     0.271 S 
ATOM     12  O   UNL d   1     -39.621  14.463  19.629  0.00  0.00    -0.200 OA
ATOM     13  O   UNL d   1     -40.657  15.644  20.082  0.00  0.00    -0.200 OA
BRANCH  11  14
ATOM     14  C   UNL d   1     -40.444  15.080  19.087  0.00  0.00     0.104 A 
ATOM     15  C   UNL d   1     -40.954  15.694  18.867  0.00  0.00     0.015 A 
ATOM     16  C   UNL d   1     -41.256  15.720  18.105  0.00  0.00     0.025 A 
ATOM     17  C   UNL d   1     -41.055  15.136  17.556  0.00  0.00     0.094 A 
ATOM     18  C   UNL d   1     -40.547  14.528  17.781  0.00  0.00     0.025 A 
ATOM     19  C   UNL d   1     -40.239  14.496  18.547  0.00  0.00     0.015 A 
BRANCH  17  20
ATOM     20  O   UNL d   1     -41.356  15.162  16.794  0.00  0.00    -0.328 OA
ATOM     21  C   UNL d   1     -40.937  15.555  16.199  0.00  0.00     0.181 C 
ENDBRANCH  17  20
ENDBRANCH  11  14
ENDBRANCH   1  11
BRANCH   2  22
ATOM     22  C   UNL d   1     -40.837  14.054  20.973  0.00  0.00     0.298 C 
ATOM     23  N   UNL d   1     -41.530  14.094  21.415  0.00  0.00    -0.181 NA
ATOM     24  O   UNL d   1     -40.786  13.552  20.317  0.00  0.00    -0.264 OA
BRANCH  23  25
ATOM     25  C   UNL d   1     -42.179  13.634  21.205  0.00  0.00     0.197 A 
ATOM     26  N   UNL d   1     -42.303  12.950  20.612  0.00  0.00    -0.219 NA
ATOM     27  C   UNL d   1     -43.153  12.697  20.661  0.00  0.00     0.108 A 
ATOM     28  C   UNL d   1     -43.569  13.211  21.277  0.00  0.00     0.059 A 
ATOM     29  S   UNL d   1     -42.970  13.790  21.614  0.00  0.00    -0.046 SA
ENDBRANCH  23  25
ENDBRANCH   2  22
TORSDOF 5
ENDMDL
MODEL 7
REMARK VINA RESULT:      -1.9      8.072      9.533
REMARK  5 active torsions:
REMARK  status: ('A' for Active; 'I' for Inactive)
REMARK    1  A    between atoms: N_2  and  S_1 
REMARK    2  A    between atoms: C_10  and  S_1 
REMARK    3  A    between atoms: C_4  and  C_3 
REMARK       I    between atoms: N_5  and  C_4 
REMARK    4  A    between atoms: C_6  and  N_5 
REMARK    5  A    between atoms: O_24  and  C_21 
ROOT
ATOM      1  N   UNL d   1     -40.663  14.974  18.158  0.00  0.00    -0.226 N 
ATOM      2  C   UNL d   1     -40.237  14.501  17.616  0.00  0.00     0.133 A 
ATOM      3  C   UNL d   1     -41.284  15.445  17.893  0.00  0.00     0.092 A 
ATOM      4  C   UNL d   1     -40.436  14.503  16.816  0.00  0.00     0.023 A 
ATOM      5  C   UNL d   1     -41.488  15.451  17.092  0.00  0.00     0.018 A 
ATOM      6  C   UNL d   1     -41.059  14.976  16.554  0.00  0.00     0.003 A 
ATOM      7  C   UNL d   1     -42.106  15.918  16.824  0.00  0.00     0.002 A 
ATOM      8  C   UNL d   1     -41.263  14.983  15.753  0.00  0.00     0.000 A 
ATOM      9  C   UNL d   1     -42.305  15.922  16.030  0.00  0.00     0.000 A 
ATOM     10  C   UNL d   1     -41.886  15.457  15.497  0.00  0.00     0.000 A 
ENDROOT
BRANCH   1  11
ATOM     11  S   UNL d   1     -40.453  14.965  18.966  0.00  0.00     0.271 S 
ATOM     12  O   UNL d   1     -40.838  14.247  19.047  0.00  0.00    -0.200 OA
ATOM     13  O   UNL d   1     -40.073  15.681  18.870  0.00  0.00    -0.200 OA
BRANCH  11  14
ATOM     14  C   UNL d   1     -40.249  14.952  19.759  0.00  0.00     0.104 A 
ATOM     15  C   UNL d   1     -39.773  15.553  20.071  0.00  0.00     0.015 A 
ATOM     16  C   UNL d   1     -39.568  15.540  20.865  0.00  0.00     0.025 A 
ATOM     17  C   UNL d   1     -39.835  14.932  21.356  0.00  0.00     0.094 A 
ATOM     18  C   UNL d   1     -40.308  14.336  21.040  0.00  0.00     0.025 A 
ATOM     19  C   UNL d   1     -40.518  14.342  20.240  0.00  0.00     0.015 A 
BRANCH  17  20
ATOM     20  O   UNL d   1     -39.630  14.919  22.150  0.00  0.00    -0.328 OA
ATOM     21  C   UNL d   1     -39.331  15.602  22.508  0.00  0.00     0.181 C 
ENDBRANCH  17  20
ENDBRANCH  11  14
ENDBRANCH   1  11
BRANCH   2  22
ATOM     22  C   UNL d   1     -39.611  14.028  17.888  0.00  0.00     0.298 C 
ATOM     23  N   UNL d   1     -39.611  13.221  17.727  0.00  0.00    -0.181 NA
ATOM     24  O   UNL d   1     -38.992  14.370  18.318  0.00  0.00    -0.264 OA
BRANCH  23  25
ATOM     25  C   UNL d   1     -38.992  12.748  17.994  0.00  0.00     0.197 A 
ATOM     26  N   UNL d   1     -38.572  12.654  18.800  0.00  0.00    -0.219 NA
ATOM     27  C   UNL d   1     -37.940  12.038  18.707  0.00  0.00     0.108 A 
ATOM     28  C   UNL d   1     -37.954  11.740  17.854  0.00  0.00     0.059 A 
ATOM     29  S   UNL d   1     -38.603  12.177  17.412  0.00  0.00    -0.046 SA
ENDBRANCH  23  25
ENDBRANCH   2  22
TORSDOF 5
ENDMDL
MODEL 8
REMARK VINA RESULT:      -1.3      1.900      3.590
REMARK  5 active torsions:
REMARK  status: ('A' for Active; 'I' for Inactive)
REMARK    1  A    between atoms: N_2  and  S_1 
REMARK    2  A    between atoms: C_10  and  S_1 
REMARK    3  A    between atoms: C_4  and  C_3 
REMARK       I    between atoms: N_5  and  C_4 
REMARK    4  A    between atoms: C_6  and  N_5 
REMARK    5  A    between atoms: O_24  and  C_21 
ROOT
ATOM      1  N   UNL d   1     -45.575  12.034  23.061  0.00  0.00    -0.226 N 
ATOM      2  C   UNL d   1     -46.084  11.415  23.299  0.00  0.00     0.133 A 
ATOM      3  C   UNL d   1     -44.763  11.907  23.026  0.00  0.00     0.092 A 
ATOM      4  C   UNL d   1     -45.777  10.677  23.500  0.00  0.00     0.023 A 
ATOM      5  C   UNL d   1     -44.449  11.169  23.226  0.00  0.00     0.018 A 
ATOM      6  C   UNL d   1     -44.962  10.553  23.464  0.00  0.00     0.003 A 
ATOM      7  C   UNL d   1     -43.640  11.038  23.193  0.00  0.00     0.002 A 
ATOM      8  C   UNL d   1     -44.647   9.816  23.664  0.00  0.00     0.000 A 
ATOM      9  C   UNL d   1     -43.332  10.306  23.392  0.00  0.00     0.000 A 
ATOM     10  C   UNL d   1     -43.833   9.698  23.626  0.00  0.00     0.000 A 
ENDROOT
BRANCH   1  11
ATOM     11  S   UNL d   1     -45.897  12.777  22.859  0.00  0.00     0.271 S 
ATOM     12  O   UNL d   1     -45.879  12.561  22.070  0.00  0.00    -0.200 OA
ATOM     13  O   UNL d   1     -45.909  12.980  23.650  0.00  0.00    -0.200 OA
BRANCH  11  14
ATOM     14  C   UNL d   1     -46.213  13.507  22.659  0.00  0.00     0.104 A 
ATOM     15  C   UNL d   1     -46.412  14.046  23.254  0.00  0.00     0.015 A 
ATOM     16  C   UNL d   1     -46.729  14.776  23.052  0.00  0.00     0.025 A 
ATOM     17  C   UNL d   1     -46.850  14.975  22.260  0.00  0.00     0.094 A 
ATOM     18  C   UNL d   1     -46.649  14.433  21.673  0.00  0.00     0.025 A 
ATOM     19  C   UNL d   1     -46.330  13.696  21.868  0.00  0.00     0.015 A 
BRANCH  17  20
ATOM     20  O   UNL d   1     -47.166  15.704  22.059  0.00  0.00    -0.328 OA
ATOM     21  C   UNL d   1     -47.931  15.902  22.305  0.00  0.00     0.181 C 
ENDBRANCH  17  20
ENDBRANCH  11  14
ENDBRANCH   1  11
BRANCH   2  22
ATOM     22  C   UNL d   1     -46.904  11.548  23.333  0.00  0.00     0.298 C 
ATOM     23  N   UNL d   1     -47.420  10.986  23.025  0.00  0.00    -0.181 NA
ATOM     24  O   UNL d   1     -47.195  12.243  23.675  0.00  0.00    -0.264 OA
BRANCH  23  25
ATOM     25  C   UNL d   1     -48.233  11.114  23.056  0.00  0.00     0.197 A 
ATOM     26  N   UNL d   1     -48.869  10.979  23.698  0.00  0.00    -0.219 NA
ATOM     27  C   UNL d   1     -49.650  11.240  23.365  0.00  0.00     0.108 A 
ATOM     28  C   UNL d   1     -49.517  11.538  22.522  0.00  0.00     0.059 A 
ATOM     29  S   UNL d   1     -48.643  11.461  22.330  0.00  0.00    -0.046 SA
ENDBRANCH  23  25
ENDBRANCH   2  22
TORSDOF 5
ENDMDL
