MODEL 1
REMARK VINA RESULT:      13.5      0.000      0.000
REMARK  3 active torsions:
REMARK  status: ('A' for Active; 'I' for Inactive)
REMARK    1  A    between atoms: C_6  and  C_1 
REMARK    2  A    between atoms: C_7  and  C_6 
REMARK    3  A    between atoms: O_17  and  C_15 
ROOT
ATOM      1  C   UNL d   1      13.811  12.090  -2.459  0.00  0.00     0.141 A 
ATOM      2  C   UNL d   1      14.074  12.455  -1.203  0.00  0.00     0.064 A 
ATOM      3  C   UNL d   1      13.518  12.093  -1.688  0.00  0.00     0.220 A 
ATOM      4  C   UNL d   1      14.716  12.680  -1.672  0.00  0.00     0.105 A 
ATOM      5  O   UNL d   1      14.556  12.454  -2.456  0.00  0.00    -0.304 OA
ATOM      6  C   UNL d   1      15.358  13.058  -1.332  0.00  0.00     0.049 A 
ATOM      7  C   UNL d   1      14.078  12.611  -0.393  0.00  0.00     0.007 A 
ATOM      8  O   UNL d   1      12.787  11.781  -1.449  0.00  0.00    -0.284 OA
ATOM      9  C   UNL d   1      15.363  13.213  -0.522  0.00  0.00     0.096 A 
ATOM     10  C   UNL d   1      14.724  12.990  -0.056  0.00  0.00     0.024 A 
ENDROOT
BRANCH   1  11
ATOM     11  C   UNL d   1      13.433  11.780  -3.125  0.00  0.00     0.053 C 
BRANCH  11  12
ATOM     12  C   UNL d   1      13.220  12.273  -3.757  0.00  0.00     0.102 A 
ATOM     13  O   UNL d   1      13.173  13.095  -3.745  0.00  0.00    -0.305 OA
ATOM     14  C   UNL d   1      12.941  13.352  -4.494  0.00  0.00     0.123 A 
ATOM     15  C   UNL d   1      12.841  12.687  -4.979  0.00  0.00     0.029 A 
ATOM     16  C   UNL d   1      13.013  12.016  -4.525  0.00  0.00     0.027 A 
ENDBRANCH  11  12
ENDBRANCH   1  11
BRANCH   9  17
ATOM     17  O   UNL d   1      16.011  13.594  -0.181  0.00  0.00    -0.328 OA
ATOM     18  C   UNL d   1      15.976  14.399  -0.014  0.00  0.00     0.181 C 
ENDBRANCH   9  17
TORSDOF 3
ENDMDL
