MODEL 1
REMARK VINA RESULT:      64.2      0.000      0.000
REMARK  5 active torsions:
REMARK  status: ('A' for Active; 'I' for Inactive)
REMARK    1  A    between atoms: C_7  and  S_1 
REMARK    2  A    between atoms: N_8  and  S_1 
REMARK    3  A    between atoms: S_2  and  N_4 
REMARK    4  A    between atoms: C_12  and  S_2 
REMARK    5  A    between atoms: N_4  and  C_3 
ROOT
ATOM      1  C   UNL d   1     -50.490  26.349  33.584  0.00  0.00     0.206 A 
ATOM      2  N   UNL d   1     -50.603  27.121  33.306  0.00  0.00    -0.220 NA
ATOM      3  S   UNL d   1     -49.930  26.382  34.194  0.00  0.00    -0.046 SA
ATOM      4  C   UNL d   1     -49.046  28.352  34.771  0.00  0.00     0.105 A 
ATOM      5  C   UNL d   1     -49.701  27.174  34.287  0.00  0.00     0.051 A 
ATOM      6  C   UNL d   1     -50.116  27.628  33.739  0.00  0.00     0.090 A 
ATOM      7  C   UNL d   1     -49.163  27.536  34.805  0.00  0.00     0.021 A 
ATOM      8  C   UNL d   1     -49.470  28.804  34.214  0.00  0.00     0.015 A 
ATOM      9  C   UNL d   1     -49.999  28.444  33.704  0.00  0.00     0.020 A 
ENDROOT
BRANCH   1  10
ATOM     10  N   UNL d   1     -50.866  25.669  33.307  0.00  0.00    -0.132 NA
BRANCH  10  11
ATOM     11  S   UNL d   1     -51.234  24.947  33.451  0.00  0.00     0.287 S 
ATOM     12  O   UNL d   1     -50.499  24.591  33.549  0.00  0.00    -0.198 OA
ATOM     13  O   UNL d   1     -51.850  25.483  33.317  0.00  0.00    -0.198 OA
BRANCH  11  14
ATOM     14  C   UNL d   1     -51.922  24.500  33.526  0.00  0.00     0.105 A 
ATOM     15  C   UNL d   1     -52.652  24.837  33.316  0.00  0.00     0.015 A 
ATOM     16  C   UNL d   1     -53.348  24.399  33.387  0.00  0.00     0.030 A 
ATOM     17  C   UNL d   1     -53.324  23.626  33.667  0.00  0.00     0.140 A 
ATOM     18  C   UNL d   1     -52.600  23.285  33.879  0.00  0.00     0.030 A 
ATOM     19  F   UNL d   1     -54.019  23.189  33.739  0.00  0.00    -0.204 F 
ATOM     20  C   UNL d   1     -51.900  23.731  33.805  0.00  0.00     0.015 A 
ENDBRANCH  11  14
ENDBRANCH  10  11
ENDBRANCH   1  10
BRANCH   4  21
ATOM     21  S   UNL d   1     -48.518  28.714  35.278  0.00  0.00     0.271 S 
ATOM     22  O   UNL d   1     -48.334  27.982  35.919  0.00  0.00    -0.200 OA
ATOM     23  O   UNL d   1     -48.651  29.515  34.669  0.00  0.00    -0.200 OA
BRANCH  21  24
ATOM     24  N   UNL d   1     -48.010  29.258  35.662  0.00  0.00    -0.229 N 
ATOM     25  C   UNL d   1     -47.720  29.198  36.433  0.00  0.00     0.092 A 
ATOM     26  C   UNL d   1     -47.244  29.857  36.570  0.00  0.00     0.021 A 
ATOM     27  C   UNL d   1     -47.236  30.324  35.891  0.00  0.00     0.021 A 
ATOM     28  C   UNL d   1     -47.711  29.955  35.325  0.00  0.00     0.092 A 
ENDBRANCH  21  24
ENDBRANCH   4  21
TORSDOF 5
ENDMDL
MODEL 2
REMARK VINA RESULT:      66.6      1.252      1.692
REMARK  5 active torsions:
REMARK  status: ('A' for Active; 'I' for Inactive)
REMARK    1  A    between atoms: C_7  and  S_1 
REMARK    2  A    between atoms: N_8  and  S_1 
REMARK    3  A    between atoms: S_2  and  N_4 
REMARK    4  A    between atoms: C_12  and  S_2 
REMARK    5  A    between atoms: N_4  and  C_3 
ROOT
ATOM      1  C   UNL d   1     -49.823  27.141  33.935  0.00  0.00     0.206 A 
ATOM      2  N   UNL d   1     -49.257  26.999  34.523  0.00  0.00    -0.220 NA
ATOM      3  S   UNL d   1     -49.781  27.943  33.734  0.00  0.00    -0.046 SA
ATOM      4  C   UNL d   1     -48.300  29.260  34.768  0.00  0.00     0.105 A 
ATOM      5  C   UNL d   1     -49.190  28.292  34.200  0.00  0.00     0.051 A 
ATOM      6  C   UNL d   1     -48.868  27.709  34.686  0.00  0.00     0.090 A 
ATOM      7  C   UNL d   1     -48.906  29.070  34.241  0.00  0.00     0.021 A 
ATOM      8  C   UNL d   1     -47.980  28.665  35.256  0.00  0.00     0.015 A 
ATOM      9  C   UNL d   1     -48.262  27.898  35.213  0.00  0.00     0.020 A 
ENDROOT
BRANCH   1  10
ATOM     10  N   UNL d   1     -50.336  26.584  33.606  0.00  0.00    -0.132 NA
BRANCH  10  11
ATOM     11  S   UNL d   1     -50.563  25.801  33.494  0.00  0.00     0.287 S 
ATOM     12  O   UNL d   1     -49.775  25.587  33.390  0.00  0.00    -0.198 OA
ATOM     13  O   UNL d   1     -51.267  26.215  33.624  0.00  0.00    -0.198 OA
BRANCH  11  14
ATOM     14  C   UNL d   1     -51.155  25.230  33.448  0.00  0.00     0.105 A 
ATOM     15  C   UNL d   1     -50.945  24.431  33.352  0.00  0.00     0.015 A 
ATOM     16  C   UNL d   1     -51.528  23.850  33.306  0.00  0.00     0.030 A 
ATOM     17  C   UNL d   1     -52.323  24.057  33.353  0.00  0.00     0.140 A 
ATOM     18  C   UNL d   1     -52.539  24.850  33.448  0.00  0.00     0.030 A 
ATOM     19  F   UNL d   1     -52.907  23.477  33.306  0.00  0.00    -0.204 F 
ATOM     20  C   UNL d   1     -51.946  25.433  33.495  0.00  0.00     0.015 A 
ENDBRANCH  11  14
ENDBRANCH  10  11
ENDBRANCH   1  10
BRANCH   4  21
ATOM     21  S   UNL d   1     -48.017  30.024  34.813  0.00  0.00     0.271 S 
ATOM     22  O   UNL d   1     -47.134  29.877  35.236  0.00  0.00    -0.200 OA
ATOM     23  O   UNL d   1     -48.902  30.263  34.379  0.00  0.00    -0.200 OA
BRANCH  21  24
ATOM     24  N   UNL d   1     -47.920  30.854  34.764  0.00  0.00    -0.229 N 
ATOM     25  C   UNL d   1     -47.599  31.347  35.345  0.00  0.00     0.092 A 
ATOM     26  C   UNL d   1     -47.616  32.118  35.053  0.00  0.00     0.021 A 
ATOM     27  C   UNL d   1     -47.946  32.108  34.297  0.00  0.00     0.021 A 
ATOM     28  C   UNL d   1     -48.135  31.325  34.115  0.00  0.00     0.092 A 
ENDBRANCH  21  24
ENDBRANCH   4  21
TORSDOF 5
ENDMDL
