MODEL 1
REMARK VINA RESULT:      47.1      0.000      0.000
REMARK  6 active torsions:
REMARK  status: ('A' for Active; 'I' for Inactive)
REMARK    1  A    between atoms: C_2  and  C_1 
REMARK    2  A    between atoms: N_13  and  C_8 
REMARK    3  A    between atoms: C_12  and  C_20 
REMARK    4  A    between atoms: C_20  and  N_13 
REMARK    5  A    between atoms: O_21  and  C_16 
REMARK    6  A    between atoms: C_25  and  O_21 
ROOT
ATOM      1  C   UNL d   1     -50.409  26.474  33.614  0.00  0.00     0.089 A 
ATOM      2  C   UNL d   1     -51.233  26.469  33.605  0.00  0.00     0.302 A 
ATOM      3  O   UNL d   1     -51.644  25.749  33.526  0.00  0.00    -0.271 OA
ATOM      4  C   UNL d   1     -49.992  25.760  33.542  0.00  0.00     0.009 A 
ATOM      5  C   UNL d   1     -51.222  25.043  33.456  0.00  0.00     0.126 A 
ATOM      6  C   UNL d   1     -50.398  25.049  33.464  0.00  0.00     0.025 A 
ATOM      7  O   UNL d   1     -51.668  27.182  33.676  0.00  0.00    -0.259 OA
ATOM      8  C   UNL d   1     -51.633  24.332  33.377  0.00  0.00     0.123 A 
ATOM      9  C   UNL d   1     -49.981  24.343  33.394  0.00  0.00     0.002 A 
ATOM     10  C   UNL d   1     -50.395  23.623  33.314  0.00  0.00     0.002 A 
ATOM     11  C   UNL d   1     -51.211  23.617  33.306  0.00  0.00     0.027 A 
ENDROOT
BRANCH   1  12
ATOM     12  C   UNL d   1     -50.003  27.185  33.692  0.00  0.00     0.140 A 
ATOM     13  S   UNL d   1     -49.324  27.347  34.150  0.00  0.00    -0.026 SA
ATOM     14  C   UNL d   1     -49.128  28.142  34.045  0.00  0.00     0.216 A 
ATOM     15  N   UNL d   1     -49.687  28.466  33.522  0.00  0.00    -0.121 NA
ATOM     16  N   UNL d   1     -50.225  27.877  33.306  0.00  0.00    -0.139 NA
BRANCH  14  17
ATOM     17  N   UNL d   1     -48.497  28.546  34.390  0.00  0.00    -0.216 NA
BRANCH  17  18
ATOM     18  C   UNL d   1     -48.578  28.865  35.151  0.00  0.00     0.126 C 
BRANCH  18  19
ATOM     19  C   UNL d   1     -48.048  29.437  35.420  0.00  0.00     0.119 A 
ATOM     20  O   UNL d   1     -48.068  30.259  35.417  0.00  0.00    -0.304 OA
ATOM     21  C   UNL d   1     -47.376  30.535  35.764  0.00  0.00     0.123 A 
ATOM     22  C   UNL d   1     -46.924  29.891  35.983  0.00  0.00     0.029 A 
ATOM     23  C   UNL d   1     -47.336  29.203  35.772  0.00  0.00     0.028 A 
ENDBRANCH  18  19
ENDBRANCH  17  18
ENDBRANCH  14  17
ENDBRANCH   1  12
BRANCH   8  24
ATOM     24  O   UNL d   1     -52.458  24.334  33.370  0.00  0.00    -0.303 OA
BRANCH  24  25
ATOM     25  C   UNL d   1     -52.868  23.644  33.586  0.00  0.00     0.123 C 
ATOM     26  C   UNL d   1     -53.693  23.651  33.598  0.00  0.00     0.029 C 
ENDBRANCH  24  25
ENDBRANCH   8  24
TORSDOF 6
ENDMDL
