MODEL 1
REMARK VINA RESULT:      -5.4      0.000      0.000
REMARK  1 active torsions:
REMARK  status: ('A' for Active; 'I' for Inactive)
REMARK    1  A    between atoms: C_6  and  C_1 
ROOT
ATOM      1  C   UNL d   1      56.865  -0.356  31.761  0.00  0.00     0.168 A 
ATOM      2  N   UNL d   1      56.894  -1.187  31.620  0.00  0.00    -0.142 NA
ATOM      3  C   UNL d   1      56.345  -0.215  32.377  0.00  0.00     0.045 A 
ATOM      4  N   UNL d   1      56.374  -1.552  32.170  0.00  0.00    -0.148 NA
ATOM      5  C   UNL d   1      56.034  -0.954  32.639  0.00  0.00     0.105 A 
ATOM      6  C   UNL d   1      56.007   0.371  32.841  0.00  0.00     0.003 A 
ATOM      7  C   UNL d   1      55.504  -0.810  33.266  0.00  0.00     0.021 A 
ATOM      8  C   UNL d   1      55.493   0.039  33.389  0.00  0.00     0.002 A 
ENDROOT
BRANCH   1   9
ATOM      9  C   UNL d   1      57.283   0.207  31.352  0.00  0.00     0.231 C 
ATOM     10  O   UNL d   1      57.019   0.488  30.623  0.00  0.00    -0.643 OA
ATOM     11  O   UNL d   1      57.993   0.541  31.626  0.00  0.00    -0.643 OA
ENDBRANCH   1   9
TORSDOF 1
ENDMDL
MODEL 2
REMARK VINA RESULT:      -5.3      1.651      2.245
REMARK  1 active torsions:
REMARK  status: ('A' for Active; 'I' for Inactive)
REMARK    1  A    between atoms: C_6  and  C_1 
ROOT
ATOM      1  C   UNL d   1      55.793  -0.453  33.147  0.00  0.00     0.168 A 
ATOM      2  N   UNL d   1      55.753  -1.295  33.146  0.00  0.00    -0.142 NA
ATOM      3  C   UNL d   1      56.274  -0.215  32.530  0.00  0.00     0.045 A 
ATOM      4  N   UNL d   1      56.226  -1.567  32.508  0.00  0.00    -0.148 NA
ATOM      5  C   UNL d   1      56.550  -0.902  32.125  0.00  0.00     0.105 A 
ATOM      6  C   UNL d   1      56.596   0.438  32.150  0.00  0.00     0.003 A 
ATOM      7  C   UNL d   1      57.041  -0.659  31.497  0.00  0.00     0.021 A 
ATOM      8  C   UNL d   1      57.064   0.198  31.520  0.00  0.00     0.002 A 
ENDROOT
BRANCH   1   9
ATOM      9  C   UNL d   1      55.416   0.038  33.673  0.00  0.00     0.231 C 
ATOM     10  O   UNL d   1      54.624   0.245  33.569  0.00  0.00    -0.643 OA
ATOM     11  O   UNL d   1      55.784   0.364  34.342  0.00  0.00    -0.643 OA
ENDBRANCH   1   9
TORSDOF 1
ENDMDL
MODEL 3
REMARK VINA RESULT:      -4.4      1.567      1.921
REMARK  1 active torsions:
REMARK  status: ('A' for Active; 'I' for Inactive)
REMARK    1  A    between atoms: C_6  and  C_1 
ROOT
ATOM      1  C   UNL d   1      56.403  -0.251  33.023  0.00  0.00     0.168 A 
ATOM      2  N   UNL d   1      57.069   0.071  33.428  0.00  0.00    -0.142 NA
ATOM      3  C   UNL d   1      55.723  -0.022  33.417  0.00  0.00     0.045 A 
ATOM      4  N   UNL d   1      56.776   0.505  34.084  0.00  0.00    -0.148 NA
ATOM      5  C   UNL d   1      55.944   0.449  34.081  0.00  0.00     0.105 A 
ATOM      6  C   UNL d   1      54.904  -0.074  33.417  0.00  0.00     0.003 A 
ATOM      7  C   UNL d   1      55.253   0.682  34.482  0.00  0.00     0.021 A 
ATOM      8  C   UNL d   1      54.592   0.343  34.051  0.00  0.00     0.002 A 
ENDROOT
BRANCH   1   9
ATOM      9  C   UNL d   1      56.433  -0.710  32.354  0.00  0.00     0.231 C 
ATOM     10  O   UNL d   1      56.465  -1.533  32.403  0.00  0.00    -0.643 OA
ATOM     11  O   UNL d   1      56.435  -0.400  31.583  0.00  0.00    -0.643 OA
ENDBRANCH   1   9
TORSDOF 1
ENDMDL
MODEL 4
REMARK VINA RESULT:      -4.3      1.772      2.499
REMARK  1 active torsions:
REMARK  status: ('A' for Active; 'I' for Inactive)
REMARK    1  A    between atoms: C_6  and  C_1 
ROOT
ATOM      1  C   UNL d   1      56.537  -0.360  32.853  0.00  0.00     0.168 A 
ATOM      2  N   UNL d   1      56.808   0.153  33.466  0.00  0.00    -0.142 NA
ATOM      3  C   UNL d   1      56.923  -0.162  32.159  0.00  0.00     0.045 A 
ATOM      4  N   UNL d   1      57.373   0.672  33.125  0.00  0.00    -0.148 NA
ATOM      5  C   UNL d   1      57.447   0.480  32.318  0.00  0.00     0.105 A 
ATOM      6  C   UNL d   1      57.000  -0.348  31.363  0.00  0.00     0.003 A 
ATOM      7  C   UNL d   1      57.840   0.682  31.611  0.00  0.00     0.021 A 
ATOM      8  C   UNL d   1      57.548   0.148  31.007  0.00  0.00     0.002 A 
ENDROOT
BRANCH   1   9
ATOM      9  C   UNL d   1      55.986  -0.950  32.939  0.00  0.00     0.231 C 
ATOM     10  O   UNL d   1      55.196  -0.775  33.097  0.00  0.00    -0.643 OA
ATOM     11  O   UNL d   1      56.166  -1.759  32.877  0.00  0.00    -0.643 OA
ENDBRANCH   1   9
TORSDOF 1
ENDMDL
MODEL 5
REMARK VINA RESULT:      -4.0      1.038      1.424
REMARK  1 active torsions:
REMARK  status: ('A' for Active; 'I' for Inactive)
REMARK    1  A    between atoms: C_6  and  C_1 
ROOT
ATOM      1  C   UNL d   1      57.641  -0.414  30.695  0.00  0.00     0.168 A 
ATOM      2  N   UNL d   1      57.426  -1.229  30.704  0.00  0.00    -0.142 NA
ATOM      3  C   UNL d   1      57.280  -0.043  31.328  0.00  0.00     0.045 A 
ATOM      4  N   UNL d   1      56.920  -1.347  31.364  0.00  0.00    -0.148 NA
ATOM      5  C   UNL d   1      56.828  -0.615  31.752  0.00  0.00     0.105 A 
ATOM      6  C   UNL d   1      57.187   0.676  31.714  0.00  0.00     0.003 A 
ATOM      7  C   UNL d   1      56.460  -0.238  32.397  0.00  0.00     0.021 A 
ATOM      8  C   UNL d   1      56.695   0.587  32.365  0.00  0.00     0.002 A 
ENDROOT
BRANCH   1   9
ATOM      9  C   UNL d   1      58.126  -0.059  30.149  0.00  0.00     0.231 C 
ATOM     10  O   UNL d   1      57.835   0.186  29.417  0.00  0.00    -0.643 OA
ATOM     11  O   UNL d   1      58.935   0.084  30.276  0.00  0.00    -0.643 OA
ENDBRANCH   1   9
TORSDOF 1
ENDMDL
MODEL 6
REMARK VINA RESULT:      -3.9      1.578      2.226
REMARK  1 active torsions:
REMARK  status: ('A' for Active; 'I' for Inactive)
REMARK    1  A    between atoms: C_6  and  C_1 
ROOT
ATOM      1  C   UNL d   1      56.369  -1.054  32.315  0.00  0.00     0.168 A 
ATOM      2  N   UNL d   1      56.458  -1.557  31.643  0.00  0.00    -0.142 NA
ATOM      3  C   UNL d   1      56.851  -0.401  32.216  0.00  0.00     0.045 A 
ATOM      4  N   UNL d   1      57.012  -1.191  31.129  0.00  0.00    -0.148 NA
ATOM      5  C   UNL d   1      57.257  -0.476  31.480  0.00  0.00     0.105 A 
ATOM      6  C   UNL d   1      57.096   0.304  32.559  0.00  0.00     0.003 A 
ATOM      7  C   UNL d   1      57.748   0.189  31.380  0.00  0.00     0.021 A 
ATOM      8  C   UNL d   1      57.639   0.682  32.074  0.00  0.00     0.002 A 
ENDROOT
BRANCH   1   9
ATOM      9  C   UNL d   1      55.884  -1.197  32.951  0.00  0.00     0.231 C 
ATOM     10  O   UNL d   1      55.290  -0.664  33.161  0.00  0.00    -0.643 OA
ATOM     11  O   UNL d   1      55.943  -1.872  33.431  0.00  0.00    -0.643 OA
ENDBRANCH   1   9
TORSDOF 1
ENDMDL
MODEL 7
REMARK VINA RESULT:      -2.8      9.221      9.658
REMARK  1 active torsions:
REMARK  status: ('A' for Active; 'I' for Inactive)
REMARK    1  A    between atoms: C_6  and  C_1 
ROOT
ATOM      1  C   UNL d   1      59.768  -9.250  34.659  0.00  0.00     0.168 A 
ATOM      2  N   UNL d   1      59.185  -9.759  34.996  0.00  0.00    -0.142 NA
ATOM      3  C   UNL d   1      59.837  -8.585  35.130  0.00  0.00     0.045 A 
ATOM      4  N   UNL d   1      58.898  -9.383  35.689  0.00  0.00    -0.148 NA
ATOM      5  C   UNL d   1      59.298  -8.657  35.775  0.00  0.00     0.105 A 
ATOM      6  C   UNL d   1      60.229  -7.869  35.219  0.00  0.00     0.003 A 
ATOM      7  C   UNL d   1      59.368  -7.980  36.255  0.00  0.00     0.021 A 
ATOM      8  C   UNL d   1      59.965  -7.482  35.892  0.00  0.00     0.002 A 
ENDROOT
BRANCH   1   9
ATOM      9  C   UNL d   1      60.190  -9.399  33.981  0.00  0.00     0.231 C 
ATOM     10  O   UNL d   1      60.928  -9.767  34.010  0.00  0.00    -0.643 OA
ATOM     11  O   UNL d   1      59.923  -9.199  33.220  0.00  0.00    -0.643 OA
ENDBRANCH   1   9
TORSDOF 1
ENDMDL
MODEL 8
REMARK VINA RESULT:      -2.5      3.951      4.760
REMARK  1 active torsions:
REMARK  status: ('A' for Active; 'I' for Inactive)
REMARK    1  A    between atoms: C_6  and  C_1 
ROOT
ATOM      1  C   UNL d   1      59.211  -1.137  29.124  0.00  0.00     0.168 A 
ATOM      2  N   UNL d   1      59.993  -0.828  29.186  0.00  0.00    -0.142 NA
ATOM      3  C   UNL d   1      59.259  -1.950  29.045  0.00  0.00     0.045 A 
ATOM      4  N   UNL d   1      60.523  -1.478  29.142  0.00  0.00    -0.148 NA
ATOM      5  C   UNL d   1      60.072  -2.173  29.055  0.00  0.00     0.105 A 
ATOM      6  C   UNL d   1      58.819  -2.638  28.959  0.00  0.00     0.003 A 
ATOM      7  C   UNL d   1      60.121  -3.001  28.975  0.00  0.00     0.021 A 
ATOM      8  C   UNL d   1      59.315  -3.290  28.915  0.00  0.00     0.002 A 
ENDROOT
BRANCH   1   9
ATOM      9  C   UNL d   1      58.527  -0.700  29.140  0.00  0.00     0.231 C 
ATOM     10  O   UNL d   1      58.230  -0.349  28.455  0.00  0.00    -0.643 OA
ATOM     11  O   UNL d   1      58.079  -0.572  29.828  0.00  0.00    -0.643 OA
ENDBRANCH   1   9
TORSDOF 1
ENDMDL
