MODEL 1
REMARK VINA RESULT:      32.8      0.000      0.000
REMARK  3 active torsions:
REMARK  status: ('A' for Active; 'I' for Inactive)
REMARK    1  A    between atoms: C_6  and  C_1 
REMARK    2  A    between atoms: C_8  and  C_4 
REMARK    3  A    between atoms: O_17  and  C_14 
ROOT
ATOM      1  C   UNL d   1      14.934  14.788  -1.181  0.00  0.00     0.122 A 
ATOM      2  C   UNL d   1      14.685  14.024  -0.959  0.00  0.00     0.285 A 
ATOM      3  N   UNL d   1      14.330  13.528  -1.512  0.00  0.00    -0.208 NA
ATOM      4  C   UNL d   1      14.221  13.789  -2.285  0.00  0.00     0.085 A 
ATOM      5  C   UNL d   1      14.825  15.048  -1.955  0.00  0.00     0.013 A 
ATOM      6  C   UNL d   1      14.468  14.545  -2.506  0.00  0.00     0.020 A 
ATOM      7  O   UNL d   1      14.797  13.765  -0.177  0.00  0.00    -0.265 OA
ENDROOT
BRANCH   4   8
ATOM      8  C   UNL d   1      13.864  13.292  -2.843  0.00  0.00     0.018 A 
ATOM      9  C   UNL d   1      13.992  12.475  -2.802  0.00  0.00     0.004 A 
ATOM     10  C   UNL d   1      13.637  11.983  -3.356  0.00  0.00     0.024 A 
ATOM     11  C   UNL d   1      13.158  12.303  -3.947  0.00  0.00     0.094 A 
ATOM     12  C   UNL d   1      13.036  13.121  -3.981  0.00  0.00     0.024 A 
ATOM     13  C   UNL d   1      13.392  13.613  -3.425  0.00  0.00     0.004 A 
BRANCH  11  14
ATOM     14  O   UNL d   1      12.801  11.803  -4.506  0.00  0.00    -0.328 OA
ATOM     15  C   UNL d   1      13.072  11.780  -5.278  0.00  0.00     0.181 C 
ENDBRANCH  11  14
ENDBRANCH   4   8
BRANCH   1  16
ATOM     16  C   UNL d   1      15.289  15.284  -0.628  0.00  0.00     0.216 C 
ATOM     17  O   UNL d   1      14.933  16.000  -0.426  0.00  0.00    -0.644 OA
ATOM     18  O   UNL d   1      16.005  15.068  -0.271  0.00  0.00    -0.644 OA
ENDBRANCH   1  16
TORSDOF 3
ENDMDL
MODEL 2
REMARK VINA RESULT:      34.2      0.998      4.096
REMARK  3 active torsions:
REMARK  status: ('A' for Active; 'I' for Inactive)
REMARK    1  A    between atoms: C_6  and  C_1 
REMARK    2  A    between atoms: C_8  and  C_4 
REMARK    3  A    between atoms: O_17  and  C_14 
ROOT
ATOM      1  C   UNL d   1      13.405  12.951  -4.563  0.00  0.00     0.122 A 
ATOM      2  C   UNL d   1      13.241  12.454  -3.915  0.00  0.00     0.285 A 
ATOM      3  N   UNL d   1      13.547  12.632  -3.171  0.00  0.00    -0.208 NA
ATOM      4  C   UNL d   1      14.014  13.302  -3.070  0.00  0.00     0.085 A 
ATOM      5  C   UNL d   1      13.874  13.622  -4.462  0.00  0.00     0.013 A 
ATOM      6  C   UNL d   1      14.177  13.794  -3.712  0.00  0.00     0.020 A 
ATOM      7  O   UNL d   1      12.769  11.779  -4.022  0.00  0.00    -0.265 OA
ENDROOT
BRANCH   4   8
ATOM      8  C   UNL d   1      14.322  13.482  -2.323  0.00  0.00     0.018 A 
ATOM      9  C   UNL d   1      14.421  12.877  -1.766  0.00  0.00     0.004 A 
ATOM     10  C   UNL d   1      14.727  13.057  -1.024  0.00  0.00     0.024 A 
ATOM     11  C   UNL d   1      14.932  13.835  -0.840  0.00  0.00     0.094 A 
ATOM     12  C   UNL d   1      14.830  14.433  -1.402  0.00  0.00     0.024 A 
ATOM     13  C   UNL d   1      14.524  14.252  -2.144  0.00  0.00     0.004 A 
BRANCH  11  14
ATOM     14  O   UNL d   1      15.241  14.014  -0.090  0.00  0.00    -0.328 OA
ATOM     15  C   UNL d   1      15.964  14.390  -0.016  0.00  0.00     0.181 C 
ENDBRANCH  11  14
ENDBRANCH   4   8
BRANCH   1  16
ATOM     16  C   UNL d   1      13.100  12.774  -5.307  0.00  0.00     0.216 C 
ATOM     17  O   UNL d   1      12.836  13.380  -5.801  0.00  0.00    -0.644 OA
ATOM     18  O   UNL d   1      13.057  11.989  -5.566  0.00  0.00    -0.644 OA
ENDBRANCH   1  16
TORSDOF 3
ENDMDL
MODEL 3
REMARK VINA RESULT:      35.0      1.933      3.772
REMARK  3 active torsions:
REMARK  status: ('A' for Active; 'I' for Inactive)
REMARK    1  A    between atoms: C_6  and  C_1 
REMARK    2  A    between atoms: C_8  and  C_4 
REMARK    3  A    between atoms: O_17  and  C_14 
ROOT
ATOM      1  C   UNL d   1      13.398  14.138  -4.698  0.00  0.00     0.122 A 
ATOM      2  C   UNL d   1      13.212  13.331  -4.610  0.00  0.00     0.285 A 
ATOM      3  N   UNL d   1      13.393  12.940  -3.908  0.00  0.00    -0.208 NA
ATOM      4  C   UNL d   1      13.757  13.349  -3.293  0.00  0.00     0.085 A 
ATOM      5  C   UNL d   1      13.762  14.548  -4.083  0.00  0.00     0.013 A 
ATOM      6  C   UNL d   1      13.940  14.149  -3.380  0.00  0.00     0.020 A 
ATOM      7  O   UNL d   1      12.845  12.922  -5.233  0.00  0.00    -0.265 OA
ENDROOT
BRANCH   4   8
ATOM      8  C   UNL d   1      13.938  12.958  -2.587  0.00  0.00     0.018 A 
ATOM      9  C   UNL d   1      14.557  13.238  -2.114  0.00  0.00     0.004 A 
ATOM     10  C   UNL d   1      14.737  12.849  -1.412  0.00  0.00     0.024 A 
ATOM     11  C   UNL d   1      14.303  12.185  -1.185  0.00  0.00     0.094 A 
ATOM     12  C   UNL d   1      13.686  11.912  -1.664  0.00  0.00     0.024 A 
ATOM     13  C   UNL d   1      13.506  12.302  -2.366  0.00  0.00     0.004 A 
BRANCH  11  14
ATOM     14  O   UNL d   1      14.487  11.794  -0.476  0.00  0.00    -0.328 OA
ATOM     15  C   UNL d   1      15.116  12.042  -0.014  0.00  0.00     0.181 C 
ENDBRANCH  11  14
ENDBRANCH   4   8
BRANCH   1  16
ATOM     16  C   UNL d   1      13.218  14.530  -5.400  0.00  0.00     0.216 C 
ATOM     17  O   UNL d   1      13.481  14.228  -6.121  0.00  0.00    -0.644 OA
ATOM     18  O   UNL d   1      12.772  15.228  -5.388  0.00  0.00    -0.644 OA
ENDBRANCH   1  16
TORSDOF 3
ENDMDL
