MODEL 1
REMARK VINA RESULT:      56.9      0.000      0.000
REMARK  4 active torsions:
REMARK  status: ('A' for Active; 'I' for Inactive)
REMARK    1  A    between atoms: N_2  and  S_1 
REMARK    2  A    between atoms: C_3  and  S_1 
REMARK    3  A    between atoms: C_18  and  N_6 
REMARK    4  A    between atoms: C_19  and  C_18 
ROOT
ATOM      1  N   UNL d   1      13.488  13.740  -3.752  0.00  0.00    -0.226 N 
ATOM      2  N   UNL d   1      13.554  12.435  -2.726  0.00  0.00    -0.300 N 
ATOM      3  C   UNL d   1      13.068  13.040  -3.940  0.00  0.00     0.111 A 
ATOM      4  C   UNL d   1      13.923  13.768  -3.068  0.00  0.00     0.111 A 
ATOM      5  C   UNL d   1      13.957  13.113  -2.553  0.00  0.00     0.100 A 
ATOM      6  C   UNL d   1      13.101  12.385  -3.425  0.00  0.00     0.100 A 
ENDROOT
BRANCH   1   7
ATOM      7  S   UNL d   1      13.455  14.389  -4.262  0.00  0.00     0.272 S 
ATOM      8  O   UNL d   1      13.815  14.861  -3.683  0.00  0.00    -0.200 OA
ATOM      9  O   UNL d   1      13.094  13.913  -4.844  0.00  0.00    -0.200 OA
BRANCH   7  10
ATOM     10  C   UNL d   1      13.422  15.040  -4.774  0.00  0.00     0.106 A 
ATOM     11  C   UNL d   1      13.997  15.611  -4.756  0.00  0.00     0.040 A 
ATOM     12  C   UNL d   1      13.965  16.246  -5.255  0.00  0.00     0.123 A 
ATOM     13  O   UNL d   1      14.569  16.825  -5.222  0.00  0.00    -0.301 OA
ATOM     14  C   UNL d   1      13.357  16.324  -5.782  0.00  0.00     0.123 A 
ATOM     15  C   UNL d   1      14.536  17.477  -5.734  0.00  0.00     0.149 A 
ATOM     16  C   UNL d   1      13.899  17.545  -6.276  0.00  0.00     0.149 A 
ATOM     17  O   UNL d   1      13.324  16.975  -6.294  0.00  0.00    -0.301 OA
ATOM     18  C   UNL d   1      12.770  15.771  -5.823  0.00  0.00     0.028 A 
ATOM     19  C   UNL d   1      12.789  15.111  -5.315  0.00  0.00     0.015 A 
ENDBRANCH   7  10
ENDBRANCH   1   7
BRANCH   2  20
ATOM     20  C   UNL d   1      13.587  11.780  -2.212  0.00  0.00     0.080 C 
BRANCH  20  21
ATOM     21  C   UNL d   1      13.973  11.833  -1.504  0.00  0.00     0.018 A 
ATOM     22  C   UNL d   1      14.808  11.904  -1.485  0.00  0.00     0.002 A 
ATOM     23  C   UNL d   1      15.194  11.957  -0.777  0.00  0.00     0.000 A 
ATOM     24  C   UNL d   1      14.773  11.942  -0.068  0.00  0.00     0.000 A 
ATOM     25  C   UNL d   1      13.964  11.873  -0.063  0.00  0.00     0.000 A 
ATOM     26  C   UNL d   1      13.552  11.817  -0.795  0.00  0.00     0.002 A 
ENDBRANCH  20  21
ENDBRANCH   2  20
TORSDOF 4
ENDMDL
