MODEL 1
REMARK VINA RESULT:      36.0      0.000      0.000
REMARK  4 active torsions:
REMARK  status: ('A' for Active; 'I' for Inactive)
REMARK    1  A    between atoms: S_4  and  C_8 
REMARK    2  A    between atoms: N_9  and  S_4 
REMARK    3  A    between atoms: C_16  and  N_9 
REMARK    4  A    between atoms: C_12  and  C_16 
ROOT
ATOM      1  C   UNL d   1     -54.830 -99.553 -44.607  0.00  0.00     0.339 A 
ATOM      2  N   UNL d   1     -54.852 -99.624 -43.791  0.00  0.00    -0.256 N 
ATOM      3  N   UNL d   1     -54.774-100.310 -44.935  0.00  0.00    -0.256 N 
ATOM      4  C   UNL d   1     -54.810-100.437 -43.610  0.00  0.00     0.085 A 
ATOM      5  C   UNL d   1     -54.762-100.856 -44.319  0.00  0.00     0.085 A 
ATOM      6  C   UNL d   1     -54.810-100.845 -42.882  0.00  0.00     0.033 A 
ATOM      7  C   UNL d   1     -54.761-101.668 -42.869  0.00  0.00     0.118 A 
ATOM      8  C   UNL d   1     -54.714-101.683 -44.298  0.00  0.00     0.020 A 
ATOM      9  O   UNL d   1     -54.858 -98.835 -45.037  0.00  0.00    -0.245 OA
ATOM     10  C   UNL d   1     -54.713-102.087 -43.577  0.00  0.00     0.016 A 
ATOM     11  C   UNL d   1     -54.907 -98.988 -43.257  0.00  0.00     0.104 C 
ATOM     12  C   UNL d   1     -54.737-100.478 -45.742  0.00  0.00     0.104 C 
ENDROOT
BRANCH   7  13
ATOM     13  S   UNL d   1     -54.761-102.072 -42.148  0.00  0.00     0.327 S 
ATOM     14  O   UNL d   1     -54.762-101.351 -41.744  0.00  0.00    -0.186 OA
ATOM     15  O   UNL d   1     -54.760-102.793 -42.552  0.00  0.00    -0.186 OA
BRANCH  13  16
ATOM     16  N   UNL d   1     -54.761-102.476 -41.427  0.00  0.00    -0.312 NA
BRANCH  16  17
ATOM     17  C   UNL d   1     -54.760-102.880 -40.707  0.00  0.00     0.200 C 
BRANCH  17  18
ATOM     18  C   UNL d   1     -54.757-102.459 -39.997  0.00  0.00     0.133 A 
ATOM     19  O   UNL d   1     -54.716-101.634 -39.916  0.00  0.00    -0.302 OA
ATOM     20  C   UNL d   1     -54.726-101.443 -39.121  0.00  0.00     0.123 A 
ATOM     21  C   UNL d   1     -54.774-102.155 -38.693  0.00  0.00     0.029 A 
ATOM     22  C   UNL d   1     -54.792-102.774 -39.236  0.00  0.00     0.029 A 
ENDBRANCH  17  18
ENDBRANCH  16  17
ENDBRANCH  13  16
ENDBRANCH   7  13
TORSDOF 4
ENDMDL
