MODEL 1
REMARK VINA RESULT:      16.3      0.000      0.000
REMARK  1 active torsions:
REMARK  status: ('A' for Active; 'I' for Inactive)
REMARK    1  A    between atoms: C_8  and  C_2 
ROOT
ATOM      1  N   UNL d   1      15.067  12.661  -2.203  0.00  0.00    -0.191 NA
ATOM      2  C   UNL d   1      14.290  12.443  -2.161  0.00  0.00     0.087 A 
ATOM      3  C   UNL d   1      15.529  12.663  -1.506  0.00  0.00     0.369 A 
ATOM      4  N   UNL d   1      15.206  12.446  -0.779  0.00  0.00    -0.191 NA
ATOM      5  C   UNL d   1      13.940  12.222  -1.456  0.00  0.00     0.036 A 
ATOM      6  C   UNL d   1      14.402  12.224  -0.758  0.00  0.00     0.088 A 
ATOM      7  O   UNL d   1      16.330  12.884  -1.524  0.00  0.00    -0.242 OA
ATOM      8  C   UNL d   1      13.163  12.004  -1.413  0.00  0.00     0.003 A 
ATOM      9  C   UNL d   1      14.079  12.007  -0.031  0.00  0.00     0.019 A 
ATOM     10  C   UNL d   1      12.821  11.787  -0.713  0.00  0.00     0.000 A 
ATOM     11  C   UNL d   1      13.284  11.788  -0.015  0.00  0.00     0.002 A 
ENDROOT
BRANCH   2  12
ATOM     12  C   UNL d   1      13.827  12.441  -2.859  0.00  0.00     0.018 A 
ATOM     13  C   UNL d   1      13.387  11.787  -3.039  0.00  0.00     0.002 A 
ATOM     14  C   UNL d   1      12.919  11.785  -3.746  0.00  0.00     0.000 A 
ATOM     15  C   UNL d   1      12.923  12.438  -4.223  0.00  0.00     0.000 A 
ATOM     16  C   UNL d   1      13.366  13.102  -4.045  0.00  0.00     0.000 A 
ATOM     17  C   UNL d   1      13.834  13.103  -3.338  0.00  0.00     0.002 A 
ENDBRANCH   2  12
TORSDOF 1
ENDMDL
