MODEL 1
REMARK VINA RESULT:      11.3      0.000      0.000
REMARK  2 active torsions:
REMARK  status: ('A' for Active; 'I' for Inactive)
REMARK    1  A    between atoms: C_4  and  C_1 
REMARK    2  A    between atoms: N_6  and  C_5 
ROOT
ATOM      1  C   UNL d   1     -52.277  24.858  33.344  0.00  0.00     0.024 A 
ATOM      2  C   UNL d   1     -51.019  25.928  33.334  0.00  0.00     0.064 A 
ATOM      3  C   UNL d   1     -51.495  24.584  33.355  0.00  0.00     0.004 A 
ATOM      4  C   UNL d   1     -52.427  25.669  33.328  0.00  0.00     0.004 A 
ATOM      5  C   UNL d   1     -50.869  25.117  33.351  0.00  0.00     0.018 A 
ATOM      6  C   UNL d   1     -51.795  26.206  33.323  0.00  0.00     0.018 A 
ENDROOT
BRANCH   1   7
ATOM      7  C   UNL d   1     -52.904  24.328  33.348  0.00  0.00     0.111 A 
ATOM      8  N   UNL d   1     -53.703  24.501  33.323  0.00  0.00    -0.237 NA
ATOM      9  C   UNL d   1     -54.106  23.781  33.340  0.00  0.00     0.106 A 
ATOM     10  C   UNL d   1     -53.571  23.188  33.375  0.00  0.00     0.058 A 
ATOM     11  S   UNL d   1     -52.828  23.520  33.381  0.00  0.00    -0.066 SA
ENDBRANCH   1   7
BRANCH   2  12
ATOM     12  N   UNL d   1     -50.373  26.443  33.330  0.00  0.00    -0.301 N 
ATOM     13  C   UNL d   1     -49.616  26.128  33.316  0.00  0.00     0.100 C 
ATOM     14  C   UNL d   1     -50.490  27.252  33.340  0.00  0.00     0.100 C 
ENDBRANCH   2  12
TORSDOF 2
ENDMDL
