MODEL 1
REMARK VINA RESULT:      -6.0      0.000      0.000
REMARK  1 active torsions:
REMARK  status: ('A' for Active; 'I' for Inactive)
REMARK    1  A    between atoms: N_2  and  C_1 
ROOT
ATOM      1  C   UNL d   1     -41.632-123.022 -50.836  0.00  0.00     0.110 A 
ATOM      2  C   UNL d   1     -42.270-122.681 -50.411  0.00  0.00     0.212 A 
ATOM      3  C   UNL d   1     -41.125-123.558 -50.457  0.00  0.00     0.056 A 
ATOM      4  C   UNL d   1     -42.388-122.882 -49.624  0.00  0.00     0.046 A 
ATOM      5  S   UNL d   1     -41.256-123.754 -49.654  0.00  0.00    -0.085 SA
ATOM      6  C   UNL d   1     -41.884-123.417 -49.240  0.00  0.00     0.033 A 
ATOM      7  O   UNL d   1     -42.773-122.150 -50.786  0.00  0.00    -0.285 OA
ATOM      8  C   UNL d   1     -43.013-122.549 -49.203  0.00  0.00     0.004 A 
ATOM      9  C   UNL d   1     -42.006-123.614 -48.451  0.00  0.00     0.007 A 
ATOM     10  C   UNL d   1     -43.140-122.741 -48.416  0.00  0.00     0.000 A 
ATOM     11  C   UNL d   1     -42.634-123.277 -48.038  0.00  0.00     0.001 A 
ENDROOT
BRANCH   1  12
ATOM     12  N   UNL d   1     -41.507-122.826 -51.629  0.00  0.00    -0.301 N 
ATOM     13  C   UNL d   1     -41.571-123.396 -52.207  0.00  0.00     0.080 A 
ATOM     14  C   UNL d   1     -41.447-123.203 -53.004  0.00  0.00     0.018 A 
ATOM     15  C   UNL d   1     -41.511-123.778 -53.585  0.00  0.00     0.002 A 
ATOM     16  C   UNL d   1     -41.258-122.430 -53.211  0.00  0.00     0.003 A 
ATOM     17  C   UNL d   1     -41.387-123.584 -54.378  0.00  0.00     0.000 A 
ATOM     18  C   UNL d   1     -41.197-122.809 -54.585  0.00  0.00     0.000 A 
ATOM     19  C   UNL d   1     -41.132-122.229 -53.999  0.00  0.00     0.000 A 
ATOM     20  C   UNL d   1     -41.190-121.840 -52.623  0.00  0.00     0.019 A 
ATOM     21  C   UNL d   1     -41.316-122.046 -51.838  0.00  0.00     0.080 A 
ENDBRANCH   1  12
TORSDOF 1
ENDMDL
MODEL 2
REMARK VINA RESULT:      -6.0      1.125      1.731
REMARK  1 active torsions:
REMARK  status: ('A' for Active; 'I' for Inactive)
REMARK    1  A    between atoms: N_2  and  C_1 
ROOT
ATOM      1  C   UNL d   1     -41.544-122.589 -51.970  0.00  0.00     0.110 A 
ATOM      2  C   UNL d   1     -41.902-123.197 -51.516  0.00  0.00     0.212 A 
ATOM      3  C   UNL d   1     -41.156-121.964 -51.589  0.00  0.00     0.056 A 
ATOM      4  C   UNL d   1     -41.866-123.167 -50.697  0.00  0.00     0.046 A 
ATOM      5  S   UNL d   1     -41.126-121.946 -50.752  0.00  0.00    -0.085 SA
ATOM      6  C   UNL d   1     -41.479-122.545 -50.309  0.00  0.00     0.033 A 
ATOM      7  O   UNL d   1     -42.287-123.817 -51.895  0.00  0.00    -0.285 OA
ATOM      8  C   UNL d   1     -42.216-123.762 -50.248  0.00  0.00     0.004 A 
ATOM      9  C   UNL d   1     -41.446-122.519 -49.489  0.00  0.00     0.007 A 
ATOM     10  C   UNL d   1     -42.187-123.743 -49.428  0.00  0.00     0.000 A 
ATOM     11  C   UNL d   1     -41.799-123.118 -49.046  0.00  0.00     0.001 A 
ENDROOT
BRANCH   1  12
ATOM     12  N   UNL d   1     -41.576-122.612 -52.797  0.00  0.00    -0.301 N 
ATOM     13  C   UNL d   1     -42.052-122.091 -53.202  0.00  0.00     0.080 A 
ATOM     14  C   UNL d   1     -42.088-122.110 -54.031  0.00  0.00     0.018 A 
ATOM     15  C   UNL d   1     -42.568-121.584 -54.437  0.00  0.00     0.002 A 
ATOM     16  C   UNL d   1     -41.638-122.660 -54.444  0.00  0.00     0.003 A 
ATOM     17  C   UNL d   1     -42.602-121.605 -55.262  0.00  0.00     0.000 A 
ATOM     18  C   UNL d   1     -42.150-122.157 -55.677  0.00  0.00     0.000 A 
ATOM     19  C   UNL d   1     -41.666-122.688 -55.266  0.00  0.00     0.000 A 
ATOM     20  C   UNL d   1     -41.147-123.199 -54.034  0.00  0.00     0.019 A 
ATOM     21  C   UNL d   1     -41.123-123.167 -53.213  0.00  0.00     0.080 A 
ENDBRANCH   1  12
TORSDOF 1
ENDMDL
MODEL 3
REMARK VINA RESULT:      -5.9      1.296      4.255
REMARK  1 active torsions:
REMARK  status: ('A' for Active; 'I' for Inactive)
REMARK    1  A    between atoms: N_2  and  C_1 
ROOT
ATOM      1  C   UNL d   1     -41.537-122.828 -52.651  0.00  0.00     0.110 A 
ATOM      2  C   UNL d   1     -41.917-122.242 -53.115  0.00  0.00     0.212 A 
ATOM      3  C   UNL d   1     -41.139-123.453 -53.023  0.00  0.00     0.056 A 
ATOM      4  C   UNL d   1     -41.894-122.293 -53.934  0.00  0.00     0.046 A 
ATOM      5  S   UNL d   1     -41.123-123.493 -53.859  0.00  0.00    -0.085 SA
ATOM      6  C   UNL d   1     -41.498-122.915 -54.312  0.00  0.00     0.033 A 
ATOM      7  O   UNL d   1     -42.311-121.621 -52.746  0.00  0.00    -0.285 OA
ATOM      8  C   UNL d   1     -42.267-121.719 -54.393  0.00  0.00     0.004 A 
ATOM      9  C   UNL d   1     -41.477-122.962 -55.132  0.00  0.00     0.007 A 
ATOM     10  C   UNL d   1     -42.249-121.759 -55.212  0.00  0.00     0.000 A 
ATOM     11  C   UNL d   1     -41.852-122.384 -55.584  0.00  0.00     0.001 A 
ENDROOT
BRANCH   1  12
ATOM     12  N   UNL d   1     -41.556-122.784 -51.825  0.00  0.00    -0.301 N 
ATOM     13  C   UNL d   1     -41.998-123.318 -51.397  0.00  0.00     0.080 A 
ATOM     14  C   UNL d   1     -42.020-123.277 -50.569  0.00  0.00     0.018 A 
ATOM     15  C   UNL d   1     -42.465-123.815 -50.140  0.00  0.00     0.002 A 
ATOM     16  C   UNL d   1     -41.593-122.693 -50.179  0.00  0.00     0.003 A 
ATOM     17  C   UNL d   1     -42.486-123.773 -49.315  0.00  0.00     0.000 A 
ATOM     18  C   UNL d   1     -42.057-123.187 -48.924  0.00  0.00     0.000 A 
ATOM     19  C   UNL d   1     -41.608-122.645 -49.358  0.00  0.00     0.000 A 
ATOM     20  C   UNL d   1     -41.137-122.142 -50.612  0.00  0.00     0.019 A 
ATOM     21  C   UNL d   1     -41.125-122.195 -51.432  0.00  0.00     0.080 A 
ENDBRANCH   1  12
TORSDOF 1
ENDMDL
MODEL 4
REMARK VINA RESULT:      -5.1      0.998      4.371
REMARK  1 active torsions:
REMARK  status: ('A' for Active; 'I' for Inactive)
REMARK    1  A    between atoms: N_2  and  C_1 
ROOT
ATOM      1  C   UNL d   1     -41.772-123.187 -50.508  0.00  0.00     0.110 A 
ATOM      2  C   UNL d   1     -41.906-122.458 -50.901  0.00  0.00     0.212 A 
ATOM      3  C   UNL d   1     -41.421-123.817 -50.917  0.00  0.00     0.056 A 
ATOM      4  C   UNL d   1     -41.689-122.375 -51.688  0.00  0.00     0.046 A 
ATOM      5  S   UNL d   1     -41.205-123.719 -51.720  0.00  0.00    -0.085 SA
ATOM      6  C   UNL d   1     -41.338-123.001 -52.103  0.00  0.00     0.033 A 
ATOM      7  O   UNL d   1     -42.254-121.833 -50.496  0.00  0.00    -0.285 OA
ATOM      8  C   UNL d   1     -41.819-121.661 -52.078  0.00  0.00     0.004 A 
ATOM      9  C   UNL d   1     -41.123-122.914 -52.891  0.00  0.00     0.007 A 
ATOM     10  C   UNL d   1     -41.607-121.566 -52.865  0.00  0.00     0.000 A 
ATOM     11  C   UNL d   1     -41.256-122.196 -53.273  0.00  0.00     0.001 A 
ENDROOT
BRANCH   1  12
ATOM     12  N   UNL d   1     -41.988-123.279 -49.715  0.00  0.00    -0.301 N 
ATOM     13  C   UNL d   1     -41.453-123.113 -49.123  0.00  0.00     0.080 A 
ATOM     14  C   UNL d   1     -41.665-123.204 -48.327  0.00  0.00     0.018 A 
ATOM     15  C   UNL d   1     -41.126-123.037 -47.732  0.00  0.00     0.002 A 
ATOM     16  C   UNL d   1     -42.421-123.463 -48.134  0.00  0.00     0.003 A 
ATOM     17  C   UNL d   1     -41.339-123.128 -46.939  0.00  0.00     0.000 A 
ATOM     18  C   UNL d   1     -42.098-123.388 -46.747  0.00  0.00     0.000 A 
ATOM     19  C   UNL d   1     -42.642-123.556 -47.347  0.00  0.00     0.000 A 
ATOM     20  C   UNL d   1     -42.975-123.635 -48.736  0.00  0.00     0.019 A 
ATOM     21  C   UNL d   1     -42.750-123.540 -49.521  0.00  0.00     0.080 A 
ENDBRANCH   1  12
TORSDOF 1
ENDMDL
