MODEL 1
REMARK VINA RESULT:      54.1      0.000      0.000
REMARK  9 active torsions:
REMARK  status: ('A' for Active; 'I' for Inactive)
REMARK    1  A    between atoms: C_27  and  N_1 
REMARK    2  A    between atoms: S_11  and  C_2 
REMARK    3  A    between atoms: C_28  and  S_11 
REMARK    4  A    between atoms: C_18  and  C_28 
REMARK    5  A    between atoms: C_19  and  C_35 
REMARK       I    between atoms: N_23  and  C_19 
REMARK    6  A    between atoms: C_32  and  N_23 
REMARK    7  A    between atoms: C_34  and  C_27 
REMARK    8  A    between atoms: C_30  and  C_32 
REMARK    9  A    between atoms: C_35  and  C_34 
ROOT
ATOM      1  N   UNL d   1      13.480  13.703  -3.666  0.00  0.00    -0.253 N 
ATOM      2  C   UNL d   1      13.306  12.909  -3.793  0.00  0.00     0.182 A 
ATOM      3  C   UNL d   1      13.883  13.931  -2.974  0.00  0.00     0.268 A 
ATOM      4  C   UNL d   1      14.108  13.366  -2.417  0.00  0.00     0.076 A 
ATOM      5  N   UNL d   1      13.538  12.354  -3.227  0.00  0.00    -0.222 NA
ATOM      6  C   UNL d   1      13.934  12.571  -2.544  0.00  0.00     0.090 A 
ATOM      7  C   UNL d   1      14.509  13.594  -1.729  0.00  0.00     0.033 A 
ATOM      8  C   UNL d   1      14.169  12.014  -1.970  0.00  0.00     0.046 A 
ATOM      9  C   UNL d   1      14.743  13.024  -1.153  0.00  0.00     0.119 A 
ATOM     10  C   UNL d   1      14.569  12.230  -1.280  0.00  0.00     0.121 A 
ATOM     11  O   UNL d   1      14.056  14.725  -2.847  0.00  0.00    -0.267 OA
ATOM     12  O   UNL d   1      15.146  13.077  -0.417  0.00  0.00    -0.300 OA
ATOM     13  O   UNL d   1      14.866  11.806  -0.625  0.00  0.00    -0.299 OA
ATOM     14  C   UNL d   1      15.224  12.322  -0.087  0.00  0.00     0.304 A 
ENDROOT
BRANCH   1  15
ATOM     15  C   UNL d   1      13.246  14.274  -4.241  0.00  0.00     0.085 C 
BRANCH  15  16
ATOM     16  C   UNL d   1      13.449  15.055  -4.133  0.00  0.00     0.024 C 
BRANCH  16  17
ATOM     17  C   UNL d   1      13.358  15.590  -4.760  0.00  0.00     0.064 C 
BRANCH  17  18
ATOM     18  C   UNL d   1      13.991  15.756  -5.260  0.00  0.00     0.279 C 
ATOM     19  N   UNL d   1      14.183  16.540  -5.434  0.00  0.00    -0.206 NA
ATOM     20  O   UNL d   1      14.432  15.144  -5.584  0.00  0.00    -0.265 OA
BRANCH  19  21
ATOM     21  C   UNL d   1      13.741  17.155  -5.109  0.00  0.00     0.102 C 
BRANCH  21  22
ATOM     22  C   UNL d   1      13.808  17.912  -5.422  0.00  0.00     0.021 A 
ATOM     23  C   UNL d   1      14.336  18.446  -5.080  0.00  0.00     0.028 A 
ATOM     24  C   UNL d   1      14.402  19.202  -5.392  0.00  0.00     0.119 A 
ATOM     25  O   UNL d   1      14.871  19.848  -5.178  0.00  0.00    -0.300 OA
ATOM     26  C   UNL d   1      13.947  19.425  -6.040  0.00  0.00     0.119 A 
ATOM     27  C   UNL d   1      14.701  20.465  -5.695  0.00  0.00     0.304 A 
ATOM     28  O   UNL d   1      14.129  20.205  -6.229  0.00  0.00    -0.300 OA
ATOM     29  C   UNL d   1      13.421  18.884  -6.376  0.00  0.00     0.026 A 
ATOM     30  C   UNL d   1      13.354  18.133  -6.067  0.00  0.00     0.004 A 
ENDBRANCH  21  22
ENDBRANCH  19  21
ENDBRANCH  17  18
ENDBRANCH  16  17
ENDBRANCH  15  16
ENDBRANCH   1  15
BRANCH   2  31
ATOM     31  S   UNL d   1      12.901  12.697  -4.494  0.00  0.00    -0.044 SA
BRANCH  31  32
ATOM     32  C   UNL d   1      13.013  11.938  -4.815  0.00  0.00     0.102 C 
BRANCH  32  33
ATOM     33  C   UNL d   1      13.306  11.859  -5.584  0.00  0.00     0.303 C 
ATOM     34  O   UNL d   1      14.117  11.791  -5.707  0.00  0.00    -0.263 OA
ATOM     35  N   UNL d   1      12.781  11.849  -6.216  0.00  0.00    -0.102 N 
ENDBRANCH  32  33
ENDBRANCH  31  32
ENDBRANCH   2  31
TORSDOF 9
ENDMDL
