MODEL 1
REMARK VINA RESULT:      -4.9      0.000      0.000
REMARK  2 active torsions:
REMARK  status: ('A' for Active; 'I' for Inactive)
REMARK    1  A    between atoms: CA_3  and  C_1 
REMARK    2  A    between atoms: C_2  and  CA_3 
ROOT
ATOM      1  C   UNL d   1     -41.459-122.719 -53.935  0.00  0.00     0.026 A 
ATOM      2  C   UNL d   1     -41.381-122.195 -53.295  0.00  0.00     0.013 A 
ATOM      3  C   UNL d   1     -41.213-122.485 -52.543  0.00  0.00     0.058 A 
ATOM      4 CL   UNL d   1     -41.136-121.962 -51.911  0.00  0.00    -0.082 Cl
ATOM      5  C   UNL d   1     -41.369-123.530 -53.814  0.00  0.00     0.002 A 
ATOM      6  C   UNL d   1     -41.200-123.817 -53.054  0.00  0.00     0.001 A 
ATOM      7  C   UNL d   1     -41.123-123.296 -52.422  0.00  0.00     0.011 A 
ENDROOT
BRANCH   1   8
ATOM      8  CA  UNL d   1     -41.627-122.426 -54.689  0.00  0.00     0.167 C 
ATOM      9  N   UNL d   1     -41.123-122.587 -55.318  0.00  0.00    -0.142 N 
BRANCH   8  10
ATOM     10  C   UNL d   1     -42.304-121.970 -54.808  0.00  0.00     0.231 C 
ATOM     11  O   UNL d   1     -43.044-122.324 -54.878  0.00  0.00    -0.643 OA
ATOM     12  OXT UNL d   1     -42.244-121.146 -54.859  0.00  0.00    -0.643 OA
ENDBRANCH   8  10
ENDBRANCH   1   8
TORSDOF 2
ENDMDL
MODEL 2
REMARK VINA RESULT:      -4.1      3.149      3.852
REMARK  2 active torsions:
REMARK  status: ('A' for Active; 'I' for Inactive)
REMARK    1  A    between atoms: CA_3  and  C_1 
REMARK    2  A    between atoms: C_2  and  CA_3 
ROOT
ATOM      1  C   UNL d   1     -41.633-122.842 -50.755  0.00  0.00     0.026 A 
ATOM      2  C   UNL d   1     -41.504-123.395 -51.362  0.00  0.00     0.013 A 
ATOM      3  C   UNL d   1     -41.250-123.142 -52.103  0.00  0.00     0.058 A 
ATOM      4 CL   UNL d   1     -41.124-123.694 -52.702  0.00  0.00    -0.082 Cl
ATOM      5  C   UNL d   1     -41.505-122.040 -50.897  0.00  0.00     0.002 A 
ATOM      6  C   UNL d   1     -41.249-121.790 -51.647  0.00  0.00     0.001 A 
ATOM      7  C   UNL d   1     -41.123-122.340 -52.245  0.00  0.00     0.011 A 
ENDROOT
BRANCH   1   8
ATOM      8  CA  UNL d   1     -41.888-123.098 -50.012  0.00  0.00     0.167 C 
ATOM      9  N   UNL d   1     -41.341-123.334 -49.445  0.00  0.00    -0.142 N 
BRANCH   8  10
ATOM     10  C   UNL d   1     -42.695-123.117 -49.841  0.00  0.00     0.231 C 
ATOM     11  O   UNL d   1     -43.148-123.780 -50.021  0.00  0.00    -0.643 OA
ATOM     12  OXT UNL d   1     -43.056-122.463 -49.484  0.00  0.00    -0.643 OA
ENDBRANCH   8  10
ENDBRANCH   1   8
TORSDOF 2
ENDMDL
MODEL 3
REMARK VINA RESULT:      -3.9      3.386      4.073
REMARK  2 active torsions:
REMARK  status: ('A' for Active; 'I' for Inactive)
REMARK    1  A    between atoms: CA_3  and  C_1 
REMARK    2  A    between atoms: C_2  and  CA_3 
ROOT
ATOM      1  C   UNL d   1     -41.712-123.183 -50.381  0.00  0.00     0.026 A 
ATOM      2  C   UNL d   1     -41.577-122.400 -50.627  0.00  0.00     0.013 A 
ATOM      3  C   UNL d   1     -41.284-122.250 -51.381  0.00  0.00     0.058 A 
ATOM      4 CL   UNL d   1     -41.151-121.473 -51.622  0.00  0.00    -0.082 Cl
ATOM      5  C   UNL d   1     -41.551-123.808 -50.895  0.00  0.00     0.002 A 
ATOM      6  C   UNL d   1     -41.255-123.650 -51.655  0.00  0.00     0.001 A 
ATOM      7  C   UNL d   1     -41.123-122.875 -51.895  0.00  0.00     0.011 A 
ENDROOT
BRANCH   1   8
ATOM      8  CA  UNL d   1     -42.007-123.331 -49.624  0.00  0.00     0.167 C 
ATOM      9  N   UNL d   1     -41.502-123.582 -49.025  0.00  0.00    -0.142 N 
BRANCH   8  10
ATOM     10  C   UNL d   1     -42.810-123.226 -49.470  0.00  0.00     0.231 C 
ATOM     11  O   UNL d   1     -43.079-122.557 -49.073  0.00  0.00    -0.643 OA
ATOM     12  OXT UNL d   1     -43.356-123.798 -49.717  0.00  0.00    -0.643 OA
ENDBRANCH   8  10
ENDBRANCH   1   8
TORSDOF 2
ENDMDL
MODEL 4
REMARK VINA RESULT:      -3.9      2.619      3.162
REMARK  2 active torsions:
REMARK  status: ('A' for Active; 'I' for Inactive)
REMARK    1  A    between atoms: CA_3  and  C_1 
REMARK    2  A    between atoms: C_2  and  CA_3 
ROOT
ATOM      1  C   UNL d   1     -41.623-122.571 -50.829  0.00  0.00     0.026 A 
ATOM      2  C   UNL d   1     -42.304-122.405 -50.382  0.00  0.00     0.013 A 
ATOM      3  C   UNL d   1     -42.484-122.860 -49.720  0.00  0.00     0.058 A 
ATOM      4 CL   UNL d   1     -43.160-122.692 -49.280  0.00  0.00    -0.082 Cl
ATOM      5  C   UNL d   1     -41.129-123.193 -50.607  0.00  0.00     0.002 A 
ATOM      6  C   UNL d   1     -41.315-123.649 -49.938  0.00  0.00     0.001 A 
ATOM      7  C   UNL d   1     -41.989-123.481 -49.498  0.00  0.00     0.011 A 
ENDROOT
BRANCH   1   8
ATOM      8  CA  UNL d   1     -41.445-122.113 -51.493  0.00  0.00     0.167 C 
ATOM      9  N   UNL d   1     -41.126-121.361 -51.404  0.00  0.00    -0.142 N 
BRANCH   8  10
ATOM     10  C   UNL d   1     -41.589-122.414 -52.248  0.00  0.00     0.231 C 
ATOM     11  O   UNL d   1     -42.192-122.106 -52.715  0.00  0.00    -0.643 OA
ATOM     12  OXT UNL d   1     -41.124-123.033 -52.541  0.00  0.00    -0.643 OA
ENDBRANCH   8  10
ENDBRANCH   1   8
TORSDOF 2
ENDMDL
MODEL 5
REMARK VINA RESULT:      -3.7      3.342      3.986
REMARK  2 active torsions:
REMARK  status: ('A' for Active; 'I' for Inactive)
REMARK    1  A    between atoms: CA_3  and  C_1 
REMARK    2  A    between atoms: C_2  and  CA_3 
ROOT
ATOM      1  C   UNL d   1     -41.861-123.009 -50.074  0.00  0.00     0.026 A 
ATOM      2  C   UNL d   1     -41.362-123.069 -49.413  0.00  0.00     0.013 A 
ATOM      3  C   UNL d   1     -41.683-123.107 -48.656  0.00  0.00     0.058 A 
ATOM      4 CL   UNL d   1     -41.184-123.166 -48.002  0.00  0.00    -0.082 Cl
ATOM      5  C   UNL d   1     -42.679-122.988 -49.970  0.00  0.00     0.002 A 
ATOM      6  C   UNL d   1     -42.998-123.027 -49.204  0.00  0.00     0.001 A 
ATOM      7  C   UNL d   1     -42.501-123.086 -48.552  0.00  0.00     0.011 A 
ENDROOT
BRANCH   1   8
ATOM      8  CA  UNL d   1     -41.536-122.971 -50.833  0.00  0.00     0.167 C 
ATOM      9  N   UNL d   1     -41.123-123.612 -51.139  0.00  0.00    -0.142 N 
BRANCH   8  10
ATOM     10  C   UNL d   1     -41.627-122.285 -51.282  0.00  0.00     0.231 C 
ATOM     11  O   UNL d   1     -41.123-121.643 -51.179  0.00  0.00    -0.643 OA
ATOM     12  OXT UNL d   1     -42.232-122.238 -51.846  0.00  0.00    -0.643 OA
ENDBRANCH   8  10
ENDBRANCH   1   8
TORSDOF 2
ENDMDL
