MODEL 1
REMARK VINA RESULT:      74.7      0.000      0.000
REMARK  8 active torsions:
REMARK  status: ('A' for Active; 'I' for Inactive)
REMARK    1  A    between atoms: C_9  and  N_1 
REMARK    2  A    between atoms: S_10  and  C_6 
REMARK    3  A    between atoms: C_19  and  S_10 
REMARK    4  A    between atoms: C_12  and  C_19 
REMARK       I    between atoms: N_14  and  C_12 
REMARK    5  A    between atoms: C_13  and  C_20 
REMARK    6  A    between atoms: O_24  and  C_13 
REMARK    7  A    between atoms: C_20  and  N_14 
REMARK    8  A    between atoms: C_26  and  O_24 
ROOT
ATOM      1  N   UNL d   1      61.846  46.397  49.562  0.00  0.00    -0.212 N 
ATOM      2  C   UNL d   1      61.437  46.710  50.202  0.00  0.00     0.169 A 
ATOM      3  N   UNL d   1      62.169  47.004  49.134  0.00  0.00    -0.162 NA
ATOM      4  C   UNL d   1      61.511  47.531  50.168  0.00  0.00     0.081 A 
ATOM      5  C   UNL d   1      61.964  47.716  49.507  0.00  0.00     0.126 A 
ATOM      6  C   UNL d   1      61.157  48.000  50.741  0.00  0.00     0.117 A 
ATOM      7  N   UNL d   1      61.009  46.358  50.810  0.00  0.00    -0.205 NA
ATOM      8  N   UNL d   1      60.726  47.650  51.353  0.00  0.00    -0.217 NA
ATOM      9  C   UNL d   1      60.653  46.829  51.387  0.00  0.00     0.201 A 
ENDROOT
BRANCH   6  10
ATOM     10  S   UNL d   1      61.230  48.821  50.707  0.00  0.00    -0.062 SA
BRANCH  10  11
ATOM     11  C   UNL d   1      60.564  49.289  50.666  0.00  0.00     0.099 C 
BRANCH  11  12
ATOM     12  C   UNL d   1      60.151  49.482  51.354  0.00  0.00     0.286 C 
ATOM     13  N   UNL d   1      59.353  49.691  51.312  0.00  0.00    -0.200 NA
ATOM     14  O   UNL d   1      60.536  49.465  52.084  0.00  0.00    -0.265 OA
BRANCH  13  15
ATOM     15  C   UNL d   1      58.969  49.708  50.582  0.00  0.00     0.171 C 
BRANCH  15  16
ATOM     16  C   UNL d   1      58.198  49.420  50.514  0.00  0.00     0.320 C 
ATOM     17  O   UNL d   1      57.755  49.265  51.194  0.00  0.00    -0.257 OA
BRANCH  16  18
ATOM     18  O   UNL d   1      57.871  49.286  49.769  0.00  0.00    -0.270 OA
BRANCH  18  19
ATOM     19  C   UNL d   1      57.053  49.214  49.684  0.00  0.00     0.126 C 
ATOM     20  C   UNL d   1      56.550  49.678  50.145  0.00  0.00     0.029 C 
ENDBRANCH  18  19
ENDBRANCH  16  18
ENDBRANCH  15  16
ENDBRANCH  13  15
ENDBRANCH  11  12
ENDBRANCH  10  11
ENDBRANCH   6  10
BRANCH   1  21
ATOM     21  C   UNL d   1      61.872  45.575  49.447  0.00  0.00     0.085 A 
ATOM     22  C   UNL d   1      62.483  45.241  49.010  0.00  0.00     0.020 A 
ATOM     23  C   UNL d   1      62.511  44.432  48.895  0.00  0.00     0.013 A 
ATOM     24  C   UNL d   1      61.927  43.944  49.217  0.00  0.00     0.058 A 
ATOM     25  C   UNL d   1      61.311  44.293  49.659  0.00  0.00     0.013 A 
ATOM     26 CL   UNL d   1      61.952  43.122  49.103  0.00  0.00    -0.082 Cl
ATOM     27  C   UNL d   1      61.290  45.101  49.769  0.00  0.00     0.020 A 
ENDBRANCH   1  21
TORSDOF 8
ENDMDL
