MODEL 1
REMARK VINA RESULT:      23.2      0.000      0.000
REMARK  6 active torsions:
REMARK  status: ('A' for Active; 'I' for Inactive)
REMARK       I    between atoms: N_3  and  C_1 
REMARK    1  A    between atoms: O_10  and  C_1 
REMARK    2  A    between atoms: N_2  and  C_4 
REMARK    3  A    between atoms: C_9  and  N_3 
REMARK    4  A    between atoms: C_17  and  O_10 
REMARK    5  A    between atoms: C_18  and  C_17 
REMARK    6  A    between atoms: C_19  and  C_18 
ROOT
ATOM      1  C   UNL d   1     -54.972-102.153 -39.151  0.00  0.00     0.064 A 
ATOM      2  C   UNL d   1     -55.142-102.841 -39.583  0.00  0.00     0.020 A 
ATOM      3  C   UNL d   1     -54.760-101.460 -39.545  0.00  0.00     0.020 A 
ATOM      4  C   UNL d   1     -54.888-102.145 -40.803  0.00  0.00     0.137 A 
ATOM      5  C   UNL d   1     -54.717-101.454 -40.368  0.00  0.00     0.034 A 
ATOM      6  C   UNL d   1     -55.100-102.836 -40.405  0.00  0.00     0.034 A 
ENDROOT
BRANCH   4   7
ATOM      7  N   UNL d   1     -54.847-102.145 -41.621  0.00  0.00    -0.344 NA
ATOM      8  C   UNL d   1     -54.807-102.151 -42.444  0.00  0.00     0.445 C 
ATOM      9  O   UNL d   1     -54.860-102.864 -42.855  0.00  0.00    -0.220 OA
BRANCH   8  10
ATOM     10  O   UNL d   1     -54.712-101.443 -42.858  0.00  0.00    -0.246 OA
BRANCH  10  11
ATOM     11  C   UNL d   1     -54.832-101.422 -43.673  0.00  0.00     0.129 C 
BRANCH  11  12
ATOM     12  C   UNL d   1     -55.185-100.759 -44.027  0.00  0.00     0.027 C 
BRANCH  12  13
ATOM     13  C   UNL d   1     -54.718-100.150 -44.323  0.00  0.00     0.002 C 
ATOM     14  C   UNL d   1     -55.071 -99.460 -44.602  0.00  0.00     0.000 C 
ENDBRANCH  12  13
ENDBRANCH  11  12
ENDBRANCH  10  11
ENDBRANCH   8  10
ENDBRANCH   4   7
BRANCH   1  15
ATOM     15  N   UNL d   1     -55.017-102.165 -38.325  0.00  0.00    -0.300 N 
ATOM     16  C   UNL d   1     -54.799-101.499 -37.891  0.00  0.00     0.107 A 
ATOM     17  C   UNL d   1     -54.844-101.515 -37.072  0.00  0.00     0.142 A 
ATOM     18  O   UNL d   1     -55.107-102.195 -36.686  0.00  0.00    -0.300 OA
ATOM     19  C   UNL d   1     -55.325-102.861 -37.121  0.00  0.00     0.142 A 
ATOM     20  C   UNL d   1     -55.280-102.846 -37.945  0.00  0.00     0.107 A 
ENDBRANCH   1  15
TORSDOF 6
ENDMDL
