MODEL 1
REMARK VINA RESULT:      -4.7      0.000      0.000
REMARK  6 active torsions:
REMARK  status: ('A' for Active; 'I' for Inactive)
REMARK    1  A    between atoms: C_5  and  C_4 
REMARK    2  A    between atoms: C_6  and  C_5 
REMARK       I    between atoms: N_9  and  C_6 
REMARK    3  A    between atoms: C_10  and  N_9 
REMARK    4  A    between atoms: O_14  and  C_13 
REMARK    5  A    between atoms: C_19  and  O_14 
REMARK    6  A    between atoms: C_20  and  C_19 
ROOT
ATOM      1  C   UNL d   1      58.077   0.113  30.689  0.00  0.00     0.281 C 
ATOM      2  N   UNL d   1      58.456  -0.095  30.007  0.00  0.00    -0.206 NA
ATOM      3  O   UNL d   1      58.511   0.371  31.329  0.00  0.00    -0.265 OA
ENDROOT
BRANCH   1   4
ATOM      4  C   UNL d   1      57.267   0.060  30.726  0.00  0.00     0.086 C 
BRANCH   4   5
ATOM      5  C   UNL d   1      56.892  -0.191  31.419  0.00  0.00     0.144 A 
ATOM      6  C   UNL d   1      56.767  -0.995  31.557  0.00  0.00     0.297 A 
ATOM      7  N   UNL d   1      56.393  -1.253  32.247  0.00  0.00    -0.205 NA
ATOM      8  O   UNL d   1      57.015  -1.563  31.005  0.00  0.00    -0.264 OA
ATOM      9  C   UNL d   1      56.142  -0.683  32.806  0.00  0.00     0.102 A 
ATOM     10  C   UNL d   1      56.266   0.121  32.667  0.00  0.00     0.099 A 
ATOM     11  C   UNL d   1      55.768  -0.941  33.495  0.00  0.00     0.021 A 
ATOM     12  N   UNL d   1      56.644   0.370  31.968  0.00  0.00    -0.239 NA
ATOM     13  C   UNL d   1      56.020   0.682  33.216  0.00  0.00     0.021 A 
ATOM     14  C   UNL d   1      55.647   0.430  33.905  0.00  0.00     0.002 A 
ATOM     15  C   UNL d   1      55.522  -0.374  34.043  0.00  0.00     0.002 A 
ENDBRANCH   4   5
ENDBRANCH   1   4
BRANCH   2  16
ATOM     16  C   UNL d   1      59.383  -0.075  29.850  0.00  0.00     0.107 A 
ATOM     17  C   UNL d   1      59.823  -0.614  29.395  0.00  0.00     0.118 A 
ATOM     18  C   UNL d   1      60.633  -0.476  29.342  0.00  0.00     0.026 A 
ATOM     19  C   UNL d   1      61.006   0.188  29.735  0.00  0.00     0.002 A 
ATOM     20  C   UNL d   1      60.551   0.682  30.161  0.00  0.00     0.002 A 
ATOM     21  C   UNL d   1      59.742   0.564  30.228  0.00  0.00     0.021 A 
BRANCH  17  22
ATOM     22  O   UNL d   1      59.480  -1.268  29.003  0.00  0.00    -0.304 OA
BRANCH  22  23
ATOM     23  C   UNL d   1      59.925  -1.962  28.887  0.00  0.00     0.123 C 
BRANCH  23  24
ATOM     24  C   UNL d   1      59.603  -2.732  29.060  0.00  0.00     0.027 C 
ATOM     25  C   UNL d   1      59.324  -3.250  28.458  0.00  0.00     0.002 C 
ENDBRANCH  23  24
ENDBRANCH  22  23
ENDBRANCH  17  22
ENDBRANCH   2  16
TORSDOF 6
ENDMDL
MODEL 2
REMARK VINA RESULT:      -3.7      1.244      2.083
REMARK  6 active torsions:
REMARK  status: ('A' for Active; 'I' for Inactive)
REMARK    1  A    between atoms: C_5  and  C_4 
REMARK    2  A    between atoms: C_6  and  C_5 
REMARK       I    between atoms: N_9  and  C_6 
REMARK    3  A    between atoms: C_10  and  N_9 
REMARK    4  A    between atoms: O_14  and  C_13 
REMARK    5  A    between atoms: C_19  and  O_14 
REMARK    6  A    between atoms: C_20  and  C_19 
ROOT
ATOM      1  C   UNL d   1      58.544  -1.251  29.897  0.00  0.00     0.281 C 
ATOM      2  N   UNL d   1      58.796  -1.532  29.183  0.00  0.00    -0.206 NA
ATOM      3  O   UNL d   1      58.970  -1.423  30.571  0.00  0.00    -0.265 OA
ENDROOT
BRANCH   1   4
ATOM      4  C   UNL d   1      57.869  -0.800  29.932  0.00  0.00     0.086 C 
BRANCH   4   5
ATOM      5  C   UNL d   1      57.578  -0.532  30.658  0.00  0.00     0.144 A 
ATOM      6  C   UNL d   1      57.812   0.203  30.954  0.00  0.00     0.297 A 
ATOM      7  N   UNL d   1      57.525   0.477  31.680  0.00  0.00    -0.205 NA
ATOM      8  O   UNL d   1      58.340   0.682  30.529  0.00  0.00    -0.264 OA
ATOM      9  C   UNL d   1      56.994  -0.003  32.110  0.00  0.00     0.102 A 
ATOM     10  C   UNL d   1      56.760  -0.738  31.814  0.00  0.00     0.099 A 
ATOM     11  C   UNL d   1      56.708   0.271  32.834  0.00  0.00     0.021 A 
ATOM     12  N   UNL d   1      57.055  -1.005  31.082  0.00  0.00    -0.239 NA
ATOM     13  C   UNL d   1      56.237  -1.211  32.237  0.00  0.00     0.021 A 
ATOM     14  C   UNL d   1      55.949  -0.942  32.959  0.00  0.00     0.002 A 
ATOM     15  C   UNL d   1      56.183  -0.208  33.255  0.00  0.00     0.002 A 
ENDBRANCH   4   5
ENDBRANCH   1   4
BRANCH   2  16
ATOM     16  C   UNL d   1      59.557  -2.060  29.022  0.00  0.00     0.107 A 
ATOM     17  C   UNL d   1      59.574  -2.824  28.694  0.00  0.00     0.118 A 
ATOM     18  C   UNL d   1      60.315  -3.172  28.609  0.00  0.00     0.026 A 
ATOM     19  C   UNL d   1      61.034  -2.770  28.847  0.00  0.00     0.002 A 
ATOM     20  C   UNL d   1      60.976  -2.040  29.157  0.00  0.00     0.002 A 
ATOM     21  C   UNL d   1      60.248  -1.674  29.251  0.00  0.00     0.021 A 
BRANCH  17  22
ATOM     22  O   UNL d   1      58.885  -3.234  28.455  0.00  0.00    -0.304 OA
BRANCH  22  23
ATOM     23  C   UNL d   1      58.866  -4.065  28.487  0.00  0.00     0.123 C 
BRANCH  23  24
ATOM     24  C   UNL d   1      58.128  -4.491  28.538  0.00  0.00     0.027 C 
ATOM     25  C   UNL d   1      58.085  -5.328  28.464  0.00  0.00     0.002 C 
ENDBRANCH  23  24
ENDBRANCH  22  23
ENDBRANCH  17  22
ENDBRANCH   2  16
TORSDOF 6
ENDMDL
MODEL 3
REMARK VINA RESULT:      -3.0      1.415      4.758
REMARK  6 active torsions:
REMARK  status: ('A' for Active; 'I' for Inactive)
REMARK    1  A    between atoms: C_5  and  C_4 
REMARK    2  A    between atoms: C_6  and  C_5 
REMARK       I    between atoms: N_9  and  C_6 
REMARK    3  A    between atoms: C_10  and  N_9 
REMARK    4  A    between atoms: O_14  and  C_13 
REMARK    5  A    between atoms: C_19  and  O_14 
REMARK    6  A    between atoms: C_20  and  C_19 
ROOT
ATOM      1  C   UNL d   1      58.151   0.416  30.959  0.00  0.00     0.281 C 
ATOM      2  N   UNL d   1      57.561   0.361  31.509  0.00  0.00    -0.206 NA
ATOM      3  O   UNL d   1      58.911   0.587  31.200  0.00  0.00    -0.265 OA
ENDROOT
BRANCH   1   4
ATOM      4  C   UNL d   1      57.975   0.300  30.175  0.00  0.00     0.086 C 
BRANCH   4   5
ATOM      5  C   UNL d   1      58.346  -0.301  29.744  0.00  0.00     0.144 A 
ATOM      6  C   UNL d   1      58.840  -0.114  29.109  0.00  0.00     0.297 A 
ATOM      7  N   UNL d   1      59.214  -0.710  28.675  0.00  0.00    -0.205 NA
ATOM      8  O   UNL d   1      58.972   0.676  28.894  0.00  0.00    -0.264 OA
ATOM      9  C   UNL d   1      59.083  -1.507  28.889  0.00  0.00     0.102 A 
ATOM     10  C   UNL d   1      58.588  -1.694  29.524  0.00  0.00     0.099 A 
ATOM     11  C   UNL d   1      59.456  -2.102  28.455  0.00  0.00     0.021 A 
ATOM     12  N   UNL d   1      58.216  -1.086  29.956  0.00  0.00    -0.239 NA
ATOM     13  C   UNL d   1      58.459  -2.478  29.736  0.00  0.00     0.021 A 
ATOM     14  C   UNL d   1      58.829  -3.074  29.306  0.00  0.00     0.002 A 
ATOM     15  C   UNL d   1      59.323  -2.888  28.671  0.00  0.00     0.002 A 
ENDBRANCH   4   5
ENDBRANCH   1   4
BRANCH   2  16
ATOM     16  C   UNL d   1      57.646   0.475  32.438  0.00  0.00     0.107 A 
ATOM     17  C   UNL d   1      57.029   0.511  32.995  0.00  0.00     0.118 A 
ATOM     18  C   UNL d   1      57.248   0.614  33.782  0.00  0.00     0.026 A 
ATOM     19  C   UNL d   1      58.069   0.681  34.018  0.00  0.00     0.002 A 
ATOM     20  C   UNL d   1      58.630   0.641  33.457  0.00  0.00     0.002 A 
ATOM     21  C   UNL d   1      58.436   0.539  32.666  0.00  0.00     0.021 A 
BRANCH  17  22
ATOM     22  O   UNL d   1      56.221   0.448  32.786  0.00  0.00    -0.304 OA
BRANCH  22  23
ATOM     23  C   UNL d   1      55.642   0.403  33.381  0.00  0.00     0.123 C 
BRANCH  23  24
ATOM     24  C   UNL d   1      54.918  -0.033  33.264  0.00  0.00     0.027 C 
ATOM     25  C   UNL d   1      54.228   0.107  33.725  0.00  0.00     0.002 C 
ENDBRANCH  23  24
ENDBRANCH  22  23
ENDBRANCH  17  22
ENDBRANCH   2  16
TORSDOF 6
ENDMDL
MODEL 4
REMARK VINA RESULT:      -2.6      0.895      2.080
REMARK  6 active torsions:
REMARK  status: ('A' for Active; 'I' for Inactive)
REMARK    1  A    between atoms: C_5  and  C_4 
REMARK    2  A    between atoms: C_6  and  C_5 
REMARK       I    between atoms: N_9  and  C_6 
REMARK    3  A    between atoms: C_10  and  N_9 
REMARK    4  A    between atoms: O_14  and  C_13 
REMARK    5  A    between atoms: C_19  and  O_14 
REMARK    6  A    between atoms: C_20  and  C_19 
ROOT
ATOM      1  C   UNL d   1      57.765  -0.808  30.444  0.00  0.00     0.281 C 
ATOM      2  N   UNL d   1      58.271  -0.793  29.815  0.00  0.00    -0.206 NA
ATOM      3  O   UNL d   1      57.605  -1.516  30.816  0.00  0.00    -0.265 OA
ENDROOT
BRANCH   1   4
ATOM      4  C   UNL d   1      57.424  -0.115  30.697  0.00  0.00     0.086 C 
BRANCH   4   5
ATOM      5  C   UNL d   1      57.208  -0.017  31.490  0.00  0.00     0.144 A 
ATOM      6  C   UNL d   1      57.711   0.378  32.013  0.00  0.00     0.297 A 
ATOM      7  N   UNL d   1      57.501   0.480  32.805  0.00  0.00    -0.205 NA
ATOM      8  O   UNL d   1      58.438   0.682  31.752  0.00  0.00    -0.264 OA
ATOM      9  C   UNL d   1      56.769   0.175  33.071  0.00  0.00     0.102 A 
ATOM     10  C   UNL d   1      56.266  -0.220  32.548  0.00  0.00     0.099 A 
ATOM     11  C   UNL d   1      56.560   0.277  33.863  0.00  0.00     0.021 A 
ATOM     12  N   UNL d   1      56.487  -0.317  31.751  0.00  0.00    -0.239 NA
ATOM     13  C   UNL d   1      55.546  -0.520  32.808  0.00  0.00     0.021 A 
ATOM     14  C   UNL d   1      55.333  -0.421  33.596  0.00  0.00     0.002 A 
ATOM     15  C   UNL d   1      55.836  -0.026  34.119  0.00  0.00     0.002 A 
ENDBRANCH   4   5
ENDBRANCH   1   4
BRANCH   2  16
ATOM     16  C   UNL d   1      58.721  -1.527  29.437  0.00  0.00     0.107 A 
ATOM     17  C   UNL d   1      59.515  -1.551  29.190  0.00  0.00     0.118 A 
ATOM     18  C   UNL d   1      59.781  -2.263  28.875  0.00  0.00     0.026 A 
ATOM     19  C   UNL d   1      59.268  -2.946  28.803  0.00  0.00     0.002 A 
ATOM     20  C   UNL d   1      58.515  -2.883  29.051  0.00  0.00     0.002 A 
ATOM     21  C   UNL d   1      58.228  -2.183  29.369  0.00  0.00     0.021 A 
BRANCH  17  22
ATOM     22  O   UNL d   1      60.033  -0.897  29.250  0.00  0.00    -0.304 OA
BRANCH  22  23
ATOM     23  C   UNL d   1      60.657  -0.810  28.707  0.00  0.00     0.123 C 
BRANCH  23  24
ATOM     24  C   UNL d   1      61.133  -0.104  28.685  0.00  0.00     0.027 C 
ATOM     25  C   UNL d   1      60.804   0.658  28.549  0.00  0.00     0.002 C 
ENDBRANCH  23  24
ENDBRANCH  22  23
ENDBRANCH  17  22
ENDBRANCH   2  16
TORSDOF 6
ENDMDL
MODEL 5
REMARK VINA RESULT:      -2.5      1.268      5.019
REMARK  6 active torsions:
REMARK  status: ('A' for Active; 'I' for Inactive)
REMARK    1  A    between atoms: C_5  and  C_4 
REMARK    2  A    between atoms: C_6  and  C_5 
REMARK       I    between atoms: N_9  and  C_6 
REMARK    3  A    between atoms: C_10  and  N_9 
REMARK    4  A    between atoms: O_14  and  C_13 
REMARK    5  A    between atoms: C_19  and  O_14 
REMARK    6  A    between atoms: C_20  and  C_19 
ROOT
ATOM      1  C   UNL d   1      57.495  -0.443  30.962  0.00  0.00     0.281 C 
ATOM      2  N   UNL d   1      57.104   0.020  31.495  0.00  0.00    -0.206 NA
ATOM      3  O   UNL d   1      57.465  -1.255  31.034  0.00  0.00    -0.265 OA
ENDROOT
BRANCH   1   4
ATOM      4  C   UNL d   1      57.912  -0.092  30.360  0.00  0.00     0.086 C 
BRANCH   4   5
ATOM      5  C   UNL d   1      58.487  -0.515  29.943  0.00  0.00     0.144 A 
ATOM      6  C   UNL d   1      59.171  -0.137  29.676  0.00  0.00     0.297 A 
ATOM      7  N   UNL d   1      59.750  -0.554  29.259  0.00  0.00    -0.205 NA
ATOM      8  O   UNL d   1      59.293   0.671  29.823  0.00  0.00    -0.264 OA
ATOM      9  C   UNL d   1      59.631  -1.368  29.110  0.00  0.00     0.102 A 
ATOM     10  C   UNL d   1      58.947  -1.746  29.376  0.00  0.00     0.099 A 
ATOM     11  C   UNL d   1      60.209  -1.784  28.693  0.00  0.00     0.021 A 
ATOM     12  N   UNL d   1      58.370  -1.317  29.796  0.00  0.00    -0.239 NA
ATOM     13  C   UNL d   1      58.829  -2.547  29.230  0.00  0.00     0.021 A 
ATOM     14  C   UNL d   1      59.402  -2.966  28.815  0.00  0.00     0.002 A 
ATOM     15  C   UNL d   1      60.087  -2.588  28.548  0.00  0.00     0.002 A 
ENDBRANCH   4   5
ENDBRANCH   1   4
BRANCH   2  16
ATOM     16  C   UNL d   1      56.592  -0.274  32.227  0.00  0.00     0.107 A 
ATOM     17  C   UNL d   1      56.634   0.006  33.009  0.00  0.00     0.118 A 
ATOM     18  C   UNL d   1      56.124  -0.343  33.553  0.00  0.00     0.026 A 
ATOM     19  C   UNL d   1      55.577  -0.963  33.328  0.00  0.00     0.002 A 
ATOM     20  C   UNL d   1      55.567  -1.204  32.570  0.00  0.00     0.002 A 
ATOM     21  C   UNL d   1      56.066  -0.871  32.011  0.00  0.00     0.021 A 
BRANCH  17  22
ATOM     22  O   UNL d   1      57.159   0.611  33.250  0.00  0.00    -0.304 OA
BRANCH  22  23
ATOM     23  C   UNL d   1      57.537   0.560  33.990  0.00  0.00     0.123 C 
BRANCH  23  24
ATOM     24  C   UNL d   1      58.378   0.682  34.069  0.00  0.00     0.027 C 
ATOM     25  C   UNL d   1      58.787   0.544  34.791  0.00  0.00     0.002 C 
ENDBRANCH  23  24
ENDBRANCH  22  23
ENDBRANCH  17  22
ENDBRANCH   2  16
TORSDOF 6
ENDMDL
MODEL 6
REMARK VINA RESULT:      -2.3      8.414      9.910
REMARK  6 active torsions:
REMARK  status: ('A' for Active; 'I' for Inactive)
REMARK    1  A    between atoms: C_5  and  C_4 
REMARK    2  A    between atoms: C_6  and  C_5 
REMARK       I    between atoms: N_9  and  C_6 
REMARK    3  A    between atoms: C_10  and  N_9 
REMARK    4  A    between atoms: O_14  and  C_13 
REMARK    5  A    between atoms: C_19  and  O_14 
REMARK    6  A    between atoms: C_20  and  C_19 
ROOT
ATOM      1  C   UNL d   1      58.716  -9.557  32.941  0.00  0.00     0.281 C 
ATOM      2  N   UNL d   1      58.860  -9.609  33.734  0.00  0.00    -0.206 NA
ATOM      3  O   UNL d   1      59.285  -9.244  32.448  0.00  0.00    -0.265 OA
ENDROOT
BRANCH   1   4
ATOM      4  C   UNL d   1      58.005  -9.818  32.648  0.00  0.00     0.086 C 
BRANCH   4   5
ATOM      5  C   UNL d   1      57.854  -9.804  31.835  0.00  0.00     0.144 A 
ATOM      6  C   UNL d   1      57.077  -9.786  31.556  0.00  0.00     0.297 A 
ATOM      7  N   UNL d   1      56.919  -9.772  30.745  0.00  0.00    -0.205 NA
ATOM      8  O   UNL d   1      56.437  -9.780  32.085  0.00  0.00    -0.264 OA
ATOM      9  C   UNL d   1      57.561  -9.777  30.209  0.00  0.00     0.102 A 
ATOM     10  C   UNL d   1      58.338  -9.796  30.488  0.00  0.00     0.099 A 
ATOM     11  C   UNL d   1      57.403  -9.764  29.399  0.00  0.00     0.021 A 
ATOM     12  N   UNL d   1      58.486  -9.810  31.308  0.00  0.00    -0.239 NA
ATOM     13  C   UNL d   1      58.970  -9.802  29.962  0.00  0.00     0.021 A 
ATOM     14  C   UNL d   1      58.817  -9.788  29.154  0.00  0.00     0.002 A 
ATOM     15  C   UNL d   1      58.040  -9.769  28.875  0.00  0.00     0.002 A 
ENDBRANCH   4   5
ENDBRANCH   1   4
BRANCH   2  16
ATOM     16  C   UNL d   1      59.641  -9.340  34.183  0.00  0.00     0.107 A 
ATOM     17  C   UNL d   1      59.715  -8.708  34.719  0.00  0.00     0.118 A 
ATOM     18  C   UNL d   1      60.463  -8.584  35.040  0.00  0.00     0.026 A 
ATOM     19  C   UNL d   1      61.132  -9.079  34.836  0.00  0.00     0.002 A 
ATOM     20  C   UNL d   1      61.020  -9.674  34.319  0.00  0.00     0.002 A 
ATOM     21  C   UNL d   1      60.284  -9.816  33.986  0.00  0.00     0.021 A 
BRANCH  17  22
ATOM     22  O   UNL d   1      59.077  -8.212  34.933  0.00  0.00    -0.304 OA
BRANCH  22  23
ATOM     23  C   UNL d   1      59.179  -7.635  35.524  0.00  0.00     0.123 C 
BRANCH  23  24
ATOM     24  C   UNL d   1      58.578  -7.053  35.686  0.00  0.00     0.027 C 
ATOM     25  C   UNL d   1      58.716  -6.389  36.184  0.00  0.00     0.002 C 
ENDBRANCH  23  24
ENDBRANCH  22  23
ENDBRANCH  17  22
ENDBRANCH   2  16
TORSDOF 6
ENDMDL
MODEL 7
REMARK VINA RESULT:      -2.1      1.505      4.876
REMARK  6 active torsions:
REMARK  status: ('A' for Active; 'I' for Inactive)
REMARK    1  A    between atoms: C_5  and  C_4 
REMARK    2  A    between atoms: C_6  and  C_5 
REMARK       I    between atoms: N_9  and  C_6 
REMARK    3  A    between atoms: C_10  and  N_9 
REMARK    4  A    between atoms: O_14  and  C_13 
REMARK    5  A    between atoms: C_19  and  O_14 
REMARK    6  A    between atoms: C_20  and  C_19 
ROOT
ATOM      1  C   UNL d   1      57.211  -0.116  30.915  0.00  0.00     0.281 C 
ATOM      2  N   UNL d   1      56.786   0.086  31.572  0.00  0.00    -0.206 NA
ATOM      3  O   UNL d   1      57.427  -0.894  30.799  0.00  0.00    -0.265 OA
ENDROOT
BRANCH   1   4
ATOM      4  C   UNL d   1      57.417   0.460  30.381  0.00  0.00     0.086 C 
BRANCH   4   5
ATOM      5  C   UNL d   1      58.168   0.465  30.035  0.00  0.00     0.144 A 
ATOM      6  C   UNL d   1      58.251   0.574  29.221  0.00  0.00     0.297 A 
ATOM      7  N   UNL d   1      58.998   0.580  28.869  0.00  0.00    -0.205 NA
ATOM      8  O   UNL d   1      57.584   0.680  28.738  0.00  0.00    -0.264 OA
ATOM      9  C   UNL d   1      59.672   0.474  29.352  0.00  0.00     0.102 A 
ATOM     10  C   UNL d   1      59.589   0.365  30.166  0.00  0.00     0.099 A 
ATOM     11  C   UNL d   1      60.419   0.481  29.000  0.00  0.00     0.021 A 
ATOM     12  N   UNL d   1      58.831   0.361  30.512  0.00  0.00    -0.239 NA
ATOM     13  C   UNL d   1      60.252   0.261  30.643  0.00  0.00     0.021 A 
ATOM     14  C   UNL d   1      60.998   0.267  30.296  0.00  0.00     0.002 A 
ATOM     15  C   UNL d   1      61.081   0.375  29.482  0.00  0.00     0.002 A 
ENDBRANCH   4   5
ENDBRANCH   1   4
BRANCH   2  16
ATOM     16  C   UNL d   1      56.494  -0.492  32.254  0.00  0.00     0.107 A 
ATOM     17  C   UNL d   1      56.599  -0.390  33.072  0.00  0.00     0.118 A 
ATOM     18  C   UNL d   1      56.290  -0.978  33.559  0.00  0.00     0.026 A 
ATOM     19  C   UNL d   1      55.881  -1.661  33.241  0.00  0.00     0.002 A 
ATOM     20  C   UNL d   1      55.801  -1.722  32.452  0.00  0.00     0.002 A 
ATOM     21  C   UNL d   1      56.101  -1.148  31.948  0.00  0.00     0.021 A 
BRANCH  17  22
ATOM     22  O   UNL d   1      56.994   0.268  33.404  0.00  0.00    -0.304 OA
BRANCH  22  23
ATOM     23  C   UNL d   1      57.755   0.174  33.727  0.00  0.00     0.123 C 
BRANCH  23  24
ATOM     24  C   UNL d   1      58.038   0.680  34.354  0.00  0.00     0.027 C 
ATOM     25  C   UNL d   1      58.831   0.653  34.632  0.00  0.00     0.002 C 
ENDBRANCH  23  24
ENDBRANCH  22  23
ENDBRANCH  17  22
ENDBRANCH   2  16
TORSDOF 6
ENDMDL
