MODEL 1
REMARK VINA RESULT:      -3.1      0.000      0.000
REMARK  2 active torsions:
REMARK  status: ('A' for Active; 'I' for Inactive)
REMARK    1  A    between atoms: C_7  and  C_3 
REMARK    2  A    between atoms: N_9  and  C_8 
ROOT
ATOM      1  N   UNL d   1      32.868  19.951 -21.756  0.00  0.00    -0.227 NA
ATOM      2  N   UNL d   1      33.045  20.508 -23.050  0.00  0.00    -0.227 NA
ATOM      3  C   UNL d   1      32.933  19.840 -22.565  0.00  0.00     0.162 A 
ATOM      4  C   UNL d   1      33.086  21.257 -22.704  0.00  0.00     0.085 A 
ATOM      5  C   UNL d   1      32.909  20.707 -21.402  0.00  0.00     0.085 A 
ATOM      6  C   UNL d   1      33.019  21.363 -21.878  0.00  0.00     0.035 A 
ATOM      7  C   UNL d   1      33.063  22.130 -21.545  0.00  0.00     0.003 A 
ATOM      8  C   UNL d   1      33.200  21.936 -23.198  0.00  0.00     0.019 A 
ATOM      9  C   UNL d   1      32.842  20.807 -20.584  0.00  0.00     0.019 A 
ATOM     10  C   UNL d   1      32.883  21.561 -20.232  0.00  0.00     0.002 A 
ATOM     11  C   UNL d   1      33.241  22.692 -22.843  0.00  0.00     0.002 A 
ATOM     12  C   UNL d   1      32.993  22.217 -20.709  0.00  0.00     0.000 A 
ATOM     13  C   UNL d   1      33.174  22.791 -22.026  0.00  0.00     0.000 A 
ENDROOT
BRANCH   3  14
ATOM     14  C   UNL d   1      32.887  19.084 -22.869  0.00  0.00     0.036 A 
ATOM     15  C   UNL d   1      32.490  18.943 -23.576  0.00  0.00     0.004 A 
ATOM     16  C   UNL d   1      32.441  18.183 -23.886  0.00  0.00     0.018 A 
ATOM     17  C   UNL d   1      32.787  17.557 -23.495  0.00  0.00     0.064 A 
ATOM     18  C   UNL d   1      33.188  17.689 -22.783  0.00  0.00     0.018 A 
ATOM     19  C   UNL d   1      33.233  18.448 -22.481  0.00  0.00     0.004 A 
BRANCH  17  20
ATOM     20  N   UNL d   1      32.738  16.797 -23.805  0.00  0.00    -0.301 N 
ATOM     21  C   UNL d   1      32.363  16.201 -23.383  0.00  0.00     0.100 C 
ATOM     22  C   UNL d   1      33.066  16.637 -24.538  0.00  0.00     0.100 C 
ENDBRANCH  17  20
ENDBRANCH   3  14
TORSDOF 2
ENDMDL
MODEL 2
REMARK VINA RESULT:      -3.0      1.030      4.568
REMARK  2 active torsions:
REMARK  status: ('A' for Active; 'I' for Inactive)
REMARK    1  A    between atoms: C_7  and  C_3 
REMARK    2  A    between atoms: N_9  and  C_8 
ROOT
ATOM      1  N   UNL d   1      32.916  20.308 -23.184  0.00  0.00    -0.227 NA
ATOM      2  N   UNL d   1      33.044  19.410 -22.092  0.00  0.00    -0.227 NA
ATOM      3  C   UNL d   1      32.952  20.188 -22.375  0.00  0.00     0.162 A 
ATOM      4  C   UNL d   1      33.096  18.787 -22.632  0.00  0.00     0.085 A 
ATOM      5  C   UNL d   1      32.968  19.681 -23.734  0.00  0.00     0.085 A 
ATOM      6  C   UNL d   1      33.058  18.917 -23.457  0.00  0.00     0.035 A 
ATOM      7  C   UNL d   1      33.112  18.273 -23.989  0.00  0.00     0.003 A 
ATOM      8  C   UNL d   1      33.189  17.995 -22.345  0.00  0.00     0.019 A 
ATOM      9  C   UNL d   1      32.930  19.815 -24.548  0.00  0.00     0.019 A 
ATOM     10  C   UNL d   1      32.982  19.189 -25.096  0.00  0.00     0.002 A 
ATOM     11  C   UNL d   1      33.241  17.369 -22.895  0.00  0.00     0.002 A 
ATOM     12  C   UNL d   1      33.072  18.424 -24.818  0.00  0.00     0.000 A 
ATOM     13  C   UNL d   1      33.203  17.502 -23.710  0.00  0.00     0.000 A 
ENDROOT
BRANCH   3  14
ATOM     14  C   UNL d   1      32.897  20.829 -21.873  0.00  0.00     0.036 A 
ATOM     15  C   UNL d   1      33.230  21.552 -22.084  0.00  0.00     0.004 A 
ATOM     16  C   UNL d   1      33.177  22.201 -21.581  0.00  0.00     0.018 A 
ATOM     17  C   UNL d   1      32.794  22.136 -20.866  0.00  0.00     0.064 A 
ATOM     18  C   UNL d   1      32.456  21.413 -20.645  0.00  0.00     0.018 A 
ATOM     19  C   UNL d   1      32.512  20.772 -21.150  0.00  0.00     0.004 A 
BRANCH  17  20
ATOM     20  N   UNL d   1      32.741  22.785 -20.363  0.00  0.00    -0.301 N 
ATOM     21  C   UNL d   1      32.391  23.482 -20.621  0.00  0.00     0.100 C 
ATOM     22  C   UNL d   1      33.039  22.733 -19.602  0.00  0.00     0.100 C 
ENDBRANCH  17  20
ENDBRANCH   3  14
TORSDOF 2
ENDMDL
MODEL 3
REMARK VINA RESULT:      -2.7      0.637      1.636
REMARK  2 active torsions:
REMARK  status: ('A' for Active; 'I' for Inactive)
REMARK    1  A    between atoms: C_7  and  C_3 
REMARK    2  A    between atoms: N_9  and  C_8 
ROOT
ATOM      1  N   UNL d   1      32.883  19.849 -23.287  0.00  0.00    -0.227 NA
ATOM      2  N   UNL d   1      32.870  19.436 -21.929  0.00  0.00    -0.227 NA
ATOM      3  C   UNL d   1      32.817  19.245 -22.738  0.00  0.00     0.162 A 
ATOM      4  C   UNL d   1      32.988  20.223 -21.706  0.00  0.00     0.085 A 
ATOM      5  C   UNL d   1      33.002  20.646 -23.066  0.00  0.00     0.085 A 
ATOM      6  C   UNL d   1      33.055  20.834 -22.272  0.00  0.00     0.035 A 
ATOM      7  C   UNL d   1      33.174  21.626 -22.027  0.00  0.00     0.003 A 
ATOM      8  C   UNL d   1      33.042  20.417 -20.883  0.00  0.00     0.019 A 
ATOM      9  C   UNL d   1      33.068  21.247 -23.629  0.00  0.00     0.019 A 
ATOM     10  C   UNL d   1      33.186  22.041 -23.408  0.00  0.00     0.002 A 
ATOM     11  C   UNL d   1      33.161  21.214 -20.662  0.00  0.00     0.002 A 
ATOM     12  C   UNL d   1      33.239  22.229 -22.614  0.00  0.00     0.000 A 
ATOM     13  C   UNL d   1      33.226  21.815 -21.226  0.00  0.00     0.000 A 
ENDROOT
BRANCH   3  14
ATOM     14  C   UNL d   1      32.701  18.481 -22.998  0.00  0.00     0.036 A 
ATOM     15  C   UNL d   1      32.047  18.293 -23.461  0.00  0.00     0.004 A 
ATOM     16  C   UNL d   1      31.927  17.523 -23.725  0.00  0.00     0.018 A 
ATOM     17  C   UNL d   1      32.455  16.935 -23.530  0.00  0.00     0.064 A 
ATOM     18  C   UNL d   1      33.116  17.114 -23.064  0.00  0.00     0.018 A 
ATOM     19  C   UNL d   1      33.229  17.882 -22.805  0.00  0.00     0.004 A 
BRANCH  17  20
ATOM     20  N   UNL d   1      32.335  16.165 -23.794  0.00  0.00    -0.301 N 
ATOM     21  C   UNL d   1      32.970  15.709 -24.046  0.00  0.00     0.100 C 
ATOM     22  C   UNL d   1      31.578  15.854 -23.804  0.00  0.00     0.100 C 
ENDBRANCH  17  20
ENDBRANCH   3  14
TORSDOF 2
ENDMDL
MODEL 4
REMARK VINA RESULT:      -1.0      2.089      4.975
REMARK  2 active torsions:
REMARK  status: ('A' for Active; 'I' for Inactive)
REMARK    1  A    between atoms: C_7  and  C_3 
REMARK    2  A    between atoms: N_9  and  C_8 
ROOT
ATOM      1  N   UNL d   1      32.840  22.836 -22.074  0.00  0.00    -0.227 NA
ATOM      2  N   UNL d   1      32.984  21.499 -21.619  0.00  0.00    -0.227 NA
ATOM      3  C   UNL d   1      32.874  22.307 -21.449  0.00  0.00     0.162 A 
ATOM      4  C   UNL d   1      33.056  21.256 -22.405  0.00  0.00     0.085 A 
ATOM      5  C   UNL d   1      32.912  22.595 -22.871  0.00  0.00     0.085 A 
ATOM      6  C   UNL d   1      33.021  21.802 -23.038  0.00  0.00     0.035 A 
ATOM      7  C   UNL d   1      33.095  21.538 -23.829  0.00  0.00     0.003 A 
ATOM      8  C   UNL d   1      33.169  20.435 -22.578  0.00  0.00     0.019 A 
ATOM      9  C   UNL d   1      32.876  23.138 -23.493  0.00  0.00     0.019 A 
ATOM     10  C   UNL d   1      32.948  22.897 -24.287  0.00  0.00     0.002 A 
ATOM     11  C   UNL d   1      33.241  20.195 -23.375  0.00  0.00     0.002 A 
ATOM     12  C   UNL d   1      33.057  22.104 -24.453  0.00  0.00     0.000 A 
ATOM     13  C   UNL d   1      33.205  20.738 -23.996  0.00  0.00     0.000 A 
ENDROOT
BRANCH   3  14
ATOM     14  C   UNL d   1      32.799  22.585 -20.686  0.00  0.00     0.036 A 
ATOM     15  C   UNL d   1      33.219  23.250 -20.442  0.00  0.00     0.004 A 
ATOM     16  C   UNL d   1      33.146  23.533 -19.674  0.00  0.00     0.018 A 
ATOM     17  C   UNL d   1      32.655  23.159 -19.142  0.00  0.00     0.064 A 
ATOM     18  C   UNL d   1      32.228  22.489 -19.379  0.00  0.00     0.018 A 
ATOM     19  C   UNL d   1      32.306  22.213 -20.145  0.00  0.00     0.004 A 
BRANCH  17  20
ATOM     20  N   UNL d   1      32.582  23.442 -18.374  0.00  0.00    -0.301 N 
ATOM     21  C   UNL d   1      33.236  23.467 -17.877  0.00  0.00     0.100 C 
ATOM     22  C   UNL d   1      31.853  23.701 -18.105  0.00  0.00     0.100 C 
ENDBRANCH  17  20
ENDBRANCH   3  14
TORSDOF 2
ENDMDL
MODEL 5
REMARK VINA RESULT:      -0.6      3.751      5.240
REMARK  2 active torsions:
REMARK  status: ('A' for Active; 'I' for Inactive)
REMARK    1  A    between atoms: C_7  and  C_3 
REMARK    2  A    between atoms: N_9  and  C_8 
ROOT
ATOM      1  N   UNL d   1      30.816  16.207 -23.675  0.00  0.00    -0.227 NA
ATOM      2  N   UNL d   1      30.411  17.316 -24.463  0.00  0.00    -0.227 NA
ATOM      3  C   UNL d   1      30.212  16.641 -24.018  0.00  0.00     0.162 A 
ATOM      4  C   UNL d   1      31.206  17.527 -24.545  0.00  0.00     0.085 A 
ATOM      5  C   UNL d   1      31.621  16.416 -23.755  0.00  0.00     0.085 A 
ATOM      6  C   UNL d   1      31.817  17.079 -24.192  0.00  0.00     0.035 A 
ATOM      7  C   UNL d   1      32.617  17.308 -24.286  0.00  0.00     0.003 A 
ATOM      8  C   UNL d   1      31.409  18.214 -24.997  0.00  0.00     0.019 A 
ATOM      9  C   UNL d   1      32.221  15.970 -23.405  0.00  0.00     0.019 A 
ATOM     10  C   UNL d   1      33.024  16.179 -23.485  0.00  0.00     0.002 A 
ATOM     11  C   UNL d   1      32.214  18.423 -25.077  0.00  0.00     0.002 A 
ATOM     12  C   UNL d   1      33.220  16.843 -23.922  0.00  0.00     0.000 A 
ATOM     13  C   UNL d   1      32.815  17.977 -24.726  0.00  0.00     0.000 A 
ENDROOT
BRANCH   3  14
ATOM     14  C   UNL d   1      29.439  16.401 -23.915  0.00  0.00     0.036 A 
ATOM     15  C   UNL d   1      29.025  16.613 -23.235  0.00  0.00     0.004 A 
ATOM     16  C   UNL d   1      28.246  16.373 -23.127  0.00  0.00     0.018 A 
ATOM     17  C   UNL d   1      27.872  15.921 -23.693  0.00  0.00     0.064 A 
ATOM     18  C   UNL d   1      28.281  15.703 -24.380  0.00  0.00     0.018 A 
ATOM     19  C   UNL d   1      29.056  15.945 -24.480  0.00  0.00     0.004 A 
BRANCH  17  20
ATOM     20  N   UNL d   1      27.093  15.681 -23.585  0.00  0.00    -0.301 N 
ATOM     21  C   UNL d   1      26.636  15.453 -24.228  0.00  0.00     0.100 C 
ATOM     22  C   UNL d   1      26.774  15.670 -22.831  0.00  0.00     0.100 C 
ENDBRANCH  17  20
ENDBRANCH   3  14
TORSDOF 2
ENDMDL
