MODEL 1
REMARK VINA RESULT:      55.9      0.000      0.000
REMARK  7 active torsions:
REMARK  status: ('A' for Active; 'I' for Inactive)
REMARK    1  A    between atoms: C_6  and  N_1 
REMARK    2  A    between atoms: C_9  and  C_5 
REMARK    3  A    between atoms: C_7  and  C_6 
REMARK       I    between atoms: N_10  and  C_7 
REMARK    4  A    between atoms: C_12  and  C_9 
REMARK    5  A    between atoms: C_15  and  N_10 
REMARK    6  A    between atoms: C_14  and  C_12 
REMARK    7  A    between atoms: C_17  and  C_14 
ROOT
ATOM      1  N   UNL d   1     -50.021  26.969  33.406  0.00  0.00    -0.230 N 
ATOM      2  C   UNL d   1     -49.493  26.348  33.355  0.00  0.00     0.299 A 
ATOM      3  C   UNL d   1     -50.785  26.654  33.391  0.00  0.00     0.274 A 
ATOM      4  S   UNL d   1     -49.926  25.656  33.308  0.00  0.00    -0.022 SA
ATOM      5  C   UNL d   1     -50.721  25.842  33.330  0.00  0.00     0.090 A 
ATOM      6  O   UNL d   1     -48.667  26.418  33.351  0.00  0.00    -0.259 OA
ATOM      7  O   UNL d   1     -51.482  27.079  33.430  0.00  0.00    -0.266 OA
ENDROOT
BRANCH   1   8
ATOM      8  C   UNL d   1     -49.822  27.767  33.464  0.00  0.00     0.149 C 
BRANCH   8   9
ATOM      9  C   UNL d   1     -49.246  28.009  34.014  0.00  0.00     0.297 C 
ATOM     10  N   UNL d   1     -49.245  28.785  34.298  0.00  0.00    -0.207 NA
ATOM     11  O   UNL d   1     -48.674  27.465  34.274  0.00  0.00    -0.264 OA
BRANCH  10  12
ATOM     12  C   UNL d   1     -48.674  29.022  34.843  0.00  0.00     0.085 A 
ATOM     13  C   UNL d   1     -48.119  29.604  34.641  0.00  0.00     0.022 A 
ATOM     14  C   UNL d   1     -47.547  29.841  35.186  0.00  0.00     0.044 A 
ATOM     15  C   UNL d   1     -47.529  29.496  35.942  0.00  0.00     0.196 A 
ATOM     16  C   UNL d   1     -48.085  28.913  36.146  0.00  0.00     0.044 A 
ATOM     17  O   UNL d   1     -46.955  29.734  36.490  0.00  0.00    -0.287 OA
ATOM     18  C   UNL d   1     -48.659  28.677  35.592  0.00  0.00     0.022 A 
ENDBRANCH  10  12
ENDBRANCH   8   9
ENDBRANCH   1   8
BRANCH   5  19
ATOM     19  C   UNL d   1     -51.537  25.737  33.330  0.00  0.00     0.011 C 
BRANCH  19  20
ATOM     20  C   UNL d   1     -51.895  25.303  33.942  0.00  0.00     0.001 C 
BRANCH  20  21
ATOM     21  C   UNL d   1     -51.943  24.483  33.887  0.00  0.00     0.000 C 
BRANCH  21  22
ATOM     22  C   UNL d   1     -52.679  24.110  33.891  0.00  0.00     0.000 A 
ATOM     23  C   UNL d   1     -53.234  24.301  33.306  0.00  0.00     0.000 A 
ATOM     24  C   UNL d   1     -53.976  23.929  33.306  0.00  0.00     0.000 A 
ATOM     25  C   UNL d   1     -54.154  23.374  33.886  0.00  0.00     0.000 A 
ATOM     26  C   UNL d   1     -53.592  23.190  34.469  0.00  0.00     0.000 A 
ATOM     27  C   UNL d   1     -52.863  23.560  34.464  0.00  0.00     0.000 A 
ENDBRANCH  21  22
ENDBRANCH  20  21
ENDBRANCH  19  20
ENDBRANCH   5  19
TORSDOF 7
ENDMDL
MODEL 2
REMARK VINA RESULT:      56.2      2.099      3.715
REMARK  7 active torsions:
REMARK  status: ('A' for Active; 'I' for Inactive)
REMARK    1  A    between atoms: C_6  and  N_1 
REMARK    2  A    between atoms: C_9  and  C_5 
REMARK    3  A    between atoms: C_7  and  C_6 
REMARK       I    between atoms: N_10  and  C_7 
REMARK    4  A    between atoms: C_12  and  C_9 
REMARK    5  A    between atoms: C_15  and  N_10 
REMARK    6  A    between atoms: C_14  and  C_12 
REMARK    7  A    between atoms: C_17  and  C_14 
ROOT
ATOM      1  N   UNL d   1     -48.049  29.162  35.778  0.00  0.00    -0.230 N 
ATOM      2  C   UNL d   1     -48.573  28.906  36.350  0.00  0.00     0.299 A 
ATOM      3  C   UNL d   1     -48.214  28.749  35.081  0.00  0.00     0.274 A 
ATOM      4  S   UNL d   1     -49.058  28.341  36.011  0.00  0.00    -0.022 SA
ATOM      5  C   UNL d   1     -48.838  28.243  35.230  0.00  0.00     0.090 A 
ATOM      6  O   UNL d   1     -48.600  29.177  37.133  0.00  0.00    -0.259 OA
ATOM      7  O   UNL d   1     -47.823  28.832  34.368  0.00  0.00    -0.266 OA
ENDROOT
BRANCH   1   8
ATOM      8  C   UNL d   1     -47.462  29.731  35.882  0.00  0.00     0.149 C 
BRANCH   8   9
ATOM      9  C   UNL d   1     -47.395  30.358  35.338  0.00  0.00     0.297 C 
ATOM     10  N   UNL d   1     -47.785  31.071  35.480  0.00  0.00    -0.207 NA
ATOM     11  O   UNL d   1     -46.934  30.258  34.654  0.00  0.00    -0.264 OA
BRANCH  10  12
ATOM     12  C   UNL d   1     -47.717  31.691  34.939  0.00  0.00     0.085 A 
ATOM     13  C   UNL d   1     -48.345  31.872  34.429  0.00  0.00     0.022 A 
ATOM     14  C   UNL d   1     -48.277  32.491  33.889  0.00  0.00     0.044 A 
ATOM     15  C   UNL d   1     -47.575  32.936  33.856  0.00  0.00     0.196 A 
ATOM     16  C   UNL d   1     -46.945  32.755  34.367  0.00  0.00     0.044 A 
ATOM     17  O   UNL d   1     -47.507  33.558  33.313  0.00  0.00    -0.287 OA
ATOM     18  C   UNL d   1     -47.019  32.129  34.910  0.00  0.00     0.022 A 
ENDBRANCH  10  12
ENDBRANCH   8   9
ENDBRANCH   1   8
BRANCH   5  19
ATOM     19  C   UNL d   1     -48.839  27.952  34.461  0.00  0.00     0.011 C 
BRANCH  19  20
ATOM     20  C   UNL d   1     -49.232  27.240  34.291  0.00  0.00     0.001 C 
BRANCH  20  21
ATOM     21  C   UNL d   1     -49.617  27.149  33.569  0.00  0.00     0.000 C 
BRANCH  21  22
ATOM     22  C   UNL d   1     -50.204  26.576  33.482  0.00  0.00     0.000 A 
ATOM     23  C   UNL d   1     -49.985  25.781  33.396  0.00  0.00     0.000 A 
ATOM     24  C   UNL d   1     -50.571  25.200  33.308  0.00  0.00     0.000 A 
ATOM     25  C   UNL d   1     -51.364  25.417  33.307  0.00  0.00     0.000 A 
ATOM     26  C   UNL d   1     -51.574  26.216  33.393  0.00  0.00     0.000 A 
ATOM     27  C   UNL d   1     -50.992  26.784  33.479  0.00  0.00     0.000 A 
ENDBRANCH  21  22
ENDBRANCH  20  21
ENDBRANCH  19  20
ENDBRANCH   5  19
TORSDOF 7
ENDMDL
