MODEL 1
REMARK VINA RESULT:      68.1      0.000      0.000
REMARK  7 active torsions:
REMARK  status: ('A' for Active; 'I' for Inactive)
REMARK    1  A    between atoms: C_11  and  N_3 
REMARK    2  A    between atoms: C_10  and  C_4 
REMARK    3  A    between atoms: C_16  and  C_11 
REMARK    4  A    between atoms: N_13  and  C_17 
REMARK    5  A    between atoms: C_18  and  N_14 
REMARK    6  A    between atoms: C_17  and  C_16 
REMARK    7  A    between atoms: C_27  and  C_18 
ROOT
ATOM      1  C   UNL d   1      14.045  13.437  -2.264  0.00  0.00     0.137 A 
ATOM      2  N   UNL d   1      14.399  13.026  -1.630  0.00  0.00    -0.259 N 
ATOM      3  N   UNL d   1      14.168  14.241  -2.130  0.00  0.00    -0.287 N 
ATOM      4  C   UNL d   1      13.667  13.023  -2.861  0.00  0.00     0.054 A 
ATOM      5  C   UNL d   1      14.367  12.199  -1.608  0.00  0.00     0.266 A 
ATOM      6  C   UNL d   1      14.735  13.577  -1.116  0.00  0.00     0.084 A 
ATOM      7  C   UNL d   1      14.591  14.338  -1.429  0.00  0.00     0.082 A 
ATOM      8  C   UNL d   1      13.633  12.199  -2.842  0.00  0.00     0.009 A 
ATOM      9  C   UNL d   1      13.982  11.779  -2.216  0.00  0.00     0.061 A 
ATOM     10  O   UNL d   1      14.717  11.784  -0.982  0.00  0.00    -0.267 OA
ATOM     11  C   UNL d   1      15.150  13.501  -0.411  0.00  0.00     0.019 A 
ATOM     12  C   UNL d   1      13.251  11.781  -3.446  0.00  0.00     0.000 C 
ATOM     13  C   UNL d   1      14.867  14.993  -1.024  0.00  0.00     0.019 A 
ATOM     14  C   UNL d   1      15.420  14.167  -0.019  0.00  0.00     0.002 A 
ATOM     15  C   UNL d   1      15.277  14.921  -0.329  0.00  0.00     0.002 A 
ENDROOT
BRANCH   3  16
ATOM     16  C   UNL d   1      14.031  14.994  -2.431  0.00  0.00     0.125 C 
BRANCH  16  17
ATOM     17  C   UNL d   1      14.553  15.319  -2.981  0.00  0.00     0.231 C 
ATOM     18  O   UNL d   1      14.946  14.834  -3.518  0.00  0.00    -0.283 OA
BRANCH  17  19
ATOM     19  C   UNL d   1      14.684  16.131  -2.992  0.00  0.00     0.124 C 
BRANCH  19  20
ATOM     20  N   UNL d   1      14.681  16.533  -3.713  0.00  0.00    -0.297 N 
ATOM     21  C   UNL d   1      15.202  17.161  -3.570  0.00  0.00     0.100 A 
ATOM     22  C   UNL d   1      15.354  17.709  -4.172  0.00  0.00     0.100 A 
ATOM     23  N   UNL d   1      14.994  17.642  -4.918  0.00  0.00    -0.300 N 
ATOM     24  C   UNL d   1      14.467  17.004  -5.058  0.00  0.00     0.100 A 
ATOM     25  C   UNL d   1      14.314  16.456  -4.455  0.00  0.00     0.100 A 
BRANCH  23  26
ATOM     26  C   UNL d   1      15.154  18.194  -5.510  0.00  0.00     0.080 C 
BRANCH  26  27
ATOM     27  C   UNL d   1      14.580  18.756  -5.717  0.00  0.00     0.018 A 
ATOM     28  C   UNL d   1      14.662  19.532  -5.450  0.00  0.00     0.002 A 
ATOM     29  C   UNL d   1      14.084  20.102  -5.656  0.00  0.00     0.000 A 
ATOM     30  C   UNL d   1      13.442  19.885  -6.123  0.00  0.00     0.000 A 
ATOM     31  C   UNL d   1      13.367  19.098  -6.389  0.00  0.00     0.000 A 
ATOM     32  C   UNL d   1      13.941  18.537  -6.182  0.00  0.00     0.002 A 
ENDBRANCH  26  27
ENDBRANCH  23  26
ENDBRANCH  19  20
ENDBRANCH  17  19
ENDBRANCH  16  17
ENDBRANCH   3  16
BRANCH   4  33
ATOM     33  C   UNL d   1      13.318  13.426  -3.484  0.00  0.00     0.125 C 
ATOM     34  N   UNL d   1      13.462  13.212  -4.265  0.00  0.00    -0.146 N 
ENDBRANCH   4  33
TORSDOF 7
ENDMDL
