MODEL 1
REMARK VINA RESULT:      81.5      0.000      0.000
REMARK  6 active torsions:
REMARK  status: ('A' for Active; 'I' for Inactive)
REMARK    1  A    between atoms: C_5  and  C_1 
REMARK    2  A    between atoms: N_6  and  C_5 
REMARK    3  A    between atoms: C_9  and  C_5 
REMARK    4  A    between atoms: C_8  and  C_11 
REMARK    5  A    between atoms: O_18  and  C_8 
REMARK    6  A    between atoms: C_23  and  O_18 
ROOT
ATOM      1  C   UNL d   1     -51.309  26.140  34.506  0.00  0.00     0.083 C 
ENDROOT
BRANCH   1   2
ATOM      2  C   UNL d   1     -51.300  25.421  34.081  0.00  0.00     0.037 A 
ATOM      3  C   UNL d   1     -50.648  25.104  33.685  0.00  0.00     0.083 A 
ATOM      4  N   UNL d   1     -50.851  24.404  33.339  0.00  0.00    -0.245 NA
ATOM      5  C   UNL d   1     -49.886  25.465  33.651  0.00  0.00     0.021 C 
ATOM      6  C   UNL d   1     -51.630  24.261  33.507  0.00  0.00     0.081 A 
ATOM      7  C   UNL d   1     -51.907  24.889  33.964  0.00  0.00     0.021 A 
ATOM      8  C   UNL d   1     -52.138  23.644  33.308  0.00  0.00     0.019 A 
ATOM      9  C   UNL d   1     -52.691  24.897  34.221  0.00  0.00     0.002 A 
ATOM     10  C   UNL d   1     -53.199  24.278  34.022  0.00  0.00     0.000 A 
ATOM     11  C   UNL d   1     -52.923  23.650  33.564  0.00  0.00     0.002 A 
ENDBRANCH   1   2
BRANCH   1  12
ATOM     12  N   UNL d   1     -51.434  26.137  35.336  0.00  0.00    -0.302 N 
ATOM     13  C   UNL d   1     -52.178  25.991  35.631  0.00  0.00     0.080 A 
ATOM     14  C   UNL d   1     -52.298  25.989  36.446  0.00  0.00     0.024 A 
ATOM     15  C   UNL d   1     -51.655  26.136  36.948  0.00  0.00     0.067 A 
ATOM     16  C   UNL d   1     -50.910  26.282  36.650  0.00  0.00     0.024 A 
ATOM     17  C   UNL d   1     -50.791  26.284  35.834  0.00  0.00     0.080 A 
BRANCH  15  18
ATOM     18  C   UNL d   1     -51.765  26.137  37.779  0.00  0.00     0.300 C 
ATOM     19  O   UNL d   1     -51.958  25.434  38.176  0.00  0.00    -0.259 OA
BRANCH  18  20
ATOM     20  O   UNL d   1     -51.677  26.837  38.186  0.00  0.00    -0.271 OA
BRANCH  20  21
ATOM     21  C   UNL d   1     -51.086  26.907  38.755  0.00  0.00     0.126 C 
ATOM     22  C   UNL d   1     -51.102  27.533  39.273  0.00  0.00     0.029 C 
ENDBRANCH  20  21
ENDBRANCH  18  20
ENDBRANCH  15  18
ENDBRANCH   1  12
BRANCH   1  23
ATOM     23  C   UNL d   1     -51.194  26.865  34.099  0.00  0.00     0.098 A 
ATOM     24  N   UNL d   1     -50.458  27.216  34.084  0.00  0.00    -0.243 NA
ATOM     25  C   UNL d   1     -50.343  27.920  33.690  0.00  0.00     0.099 A 
ATOM     26  C   UNL d   1     -50.972  28.279  33.306  0.00  0.00     0.021 A 
ATOM     27  C   UNL d   1     -51.717  27.937  33.313  0.00  0.00     0.003 A 
ATOM     28  C   UNL d   1     -51.848  27.224  33.709  0.00  0.00     0.021 A 
ENDBRANCH   1  23
TORSDOF 6
ENDMDL
MODEL 2
REMARK VINA RESULT:      83.1      1.307      2.770
REMARK  6 active torsions:
REMARK  status: ('A' for Active; 'I' for Inactive)
REMARK    1  A    between atoms: C_5  and  C_1 
REMARK    2  A    between atoms: N_6  and  C_5 
REMARK    3  A    between atoms: C_9  and  C_5 
REMARK    4  A    between atoms: C_8  and  C_11 
REMARK    5  A    between atoms: O_18  and  C_8 
REMARK    6  A    between atoms: C_23  and  O_18 
ROOT
ATOM      1  C   UNL d   1     -52.283  24.942  34.461  0.00  0.00     0.083 C 
ENDROOT
BRANCH   1   2
ATOM      2  C   UNL d   1     -51.616  25.222  34.045  0.00  0.00     0.037 A 
ATOM      3  C   UNL d   1     -51.563  25.942  33.645  0.00  0.00     0.083 A 
ATOM      4  N   UNL d   1     -50.832  26.018  33.311  0.00  0.00    -0.245 NA
ATOM      5  C   UNL d   1     -52.186  26.510  33.596  0.00  0.00     0.021 C 
ATOM      6  C   UNL d   1     -50.407  25.354  33.491  0.00  0.00     0.081 A 
ATOM      7  C   UNL d   1     -50.891  24.862  33.944  0.00  0.00     0.021 A 
ATOM      8  C   UNL d   1     -49.639  25.117  33.307  0.00  0.00     0.019 A 
ATOM      9  C   UNL d   1     -50.604  24.136  34.211  0.00  0.00     0.002 A 
ATOM     10  C   UNL d   1     -49.834  23.900  34.027  0.00  0.00     0.000 A 
ATOM     11  C   UNL d   1     -49.351  24.392  33.573  0.00  0.00     0.002 A 
ENDBRANCH   1   2
BRANCH   1  12
ATOM     12  N   UNL d   1     -52.396  25.150  35.266  0.00  0.00    -0.302 N 
ATOM     13  C   UNL d   1     -52.047  25.822  35.561  0.00  0.00     0.080 A 
ATOM     14  C   UNL d   1     -52.159  26.025  36.352  0.00  0.00     0.024 A 
ATOM     15  C   UNL d   1     -52.627  25.536  36.830  0.00  0.00     0.067 A 
ATOM     16  C   UNL d   1     -52.976  24.862  36.531  0.00  0.00     0.024 A 
ATOM     17  C   UNL d   1     -52.864  24.660  35.740  0.00  0.00     0.080 A 
BRANCH  15  18
ATOM     18  C   UNL d   1     -52.749  25.730  37.636  0.00  0.00     0.300 C 
ATOM     19  O   UNL d   1     -53.051  26.474  37.845  0.00  0.00    -0.259 OA
BRANCH  18  20
ATOM     20  O   UNL d   1     -52.565  25.177  38.205  0.00  0.00    -0.271 OA
BRANCH  20  21
ATOM     21  C   UNL d   1     -53.126  24.972  38.771  0.00  0.00     0.126 C 
ATOM     22  C   UNL d   1     -52.895  24.567  39.436  0.00  0.00     0.029 C 
ENDBRANCH  20  21
ENDBRANCH  18  20
ENDBRANCH  15  18
ENDBRANCH   1  12
BRANCH   1  23
ATOM     23  C   UNL d   1     -52.842  24.452  34.069  0.00  0.00     0.098 A 
ATOM     24  N   UNL d   1     -52.671  23.668  33.926  0.00  0.00    -0.243 NA
ATOM     25  C   UNL d   1     -53.211  23.189  33.546  0.00  0.00     0.099 A 
ATOM     26  C   UNL d   1     -53.931  23.500  33.306  0.00  0.00     0.021 A 
ATOM     27  C   UNL d   1     -54.115  24.286  33.444  0.00  0.00     0.003 A 
ATOM     28  C   UNL d   1     -53.578  24.782  33.828  0.00  0.00     0.021 A 
ENDBRANCH   1  23
TORSDOF 6
ENDMDL
MODEL 3
REMARK VINA RESULT:      83.2      0.967      2.876
REMARK  6 active torsions:
REMARK  status: ('A' for Active; 'I' for Inactive)
REMARK    1  A    between atoms: C_5  and  C_1 
REMARK    2  A    between atoms: N_6  and  C_5 
REMARK    3  A    between atoms: C_9  and  C_5 
REMARK    4  A    between atoms: C_8  and  C_11 
REMARK    5  A    between atoms: O_18  and  C_8 
REMARK    6  A    between atoms: C_23  and  O_18 
ROOT
ATOM      1  C   UNL d   1     -51.667  25.633  34.474  0.00  0.00     0.083 C 
ENDROOT
BRANCH   1   2
ATOM      2  C   UNL d   1     -51.432  26.314  34.052  0.00  0.00     0.037 A 
ATOM      3  C   UNL d   1     -51.935  26.826  33.644  0.00  0.00     0.083 A 
ATOM      4  N   UNL d   1     -51.506  27.421  33.306  0.00  0.00    -0.245 NA
ATOM      5  C   UNL d   1     -52.772  26.735  33.592  0.00  0.00     0.021 C 
ATOM      6  C   UNL d   1     -50.727  27.301  33.491  0.00  0.00     0.081 A 
ATOM      7  C   UNL d   1     -50.682  26.618  33.951  0.00  0.00     0.021 A 
ATOM      8  C   UNL d   1     -50.041  27.717  33.306  0.00  0.00     0.019 A 
ATOM      9  C   UNL d   1     -49.949  26.355  34.224  0.00  0.00     0.002 A 
ATOM     10  C   UNL d   1     -49.262  26.772  34.039  0.00  0.00     0.000 A 
ATOM     11  C   UNL d   1     -49.308  27.455  33.578  0.00  0.00     0.002 A 
ENDBRANCH   1   2
BRANCH   1  12
ATOM     12  N   UNL d   1     -51.857  25.687  35.289  0.00  0.00    -0.302 N 
ATOM     13  C   UNL d   1     -51.463  26.220  35.760  0.00  0.00     0.080 A 
ATOM     14  C   UNL d   1     -51.652  26.271  36.560  0.00  0.00     0.024 A 
ATOM     15  C   UNL d   1     -52.240  25.776  36.868  0.00  0.00     0.067 A 
ATOM     16  C   UNL d   1     -52.634  25.242  36.394  0.00  0.00     0.024 A 
ATOM     17  C   UNL d   1     -52.445  25.191  35.593  0.00  0.00     0.080 A 
BRANCH  15  18
ATOM     18  C   UNL d   1     -52.441  25.818  37.680  0.00  0.00     0.300 C 
ATOM     19  O   UNL d   1     -52.037  26.339  38.185  0.00  0.00    -0.259 OA
BRANCH  18  20
ATOM     20  O   UNL d   1     -53.038  25.340  37.963  0.00  0.00    -0.271 OA
BRANCH  20  21
ATOM     21  C   UNL d   1     -53.139  25.249  38.775  0.00  0.00     0.126 C 
ATOM     22  C   UNL d   1     -52.737  24.660  39.164  0.00  0.00     0.029 C 
ENDBRANCH  20  21
ENDBRANCH  18  20
ENDBRANCH  15  18
ENDBRANCH   1  12
BRANCH   1  23
ATOM     23  C   UNL d   1     -51.712  24.894  34.078  0.00  0.00     0.098 A 
ATOM     24  N   UNL d   1     -51.042  24.440  33.977  0.00  0.00    -0.243 NA
ATOM     25  C   UNL d   1     -51.082  23.722  33.593  0.00  0.00     0.099 A 
ATOM     26  C   UNL d   1     -51.802  23.454  33.306  0.00  0.00     0.021 A 
ATOM     27  C   UNL d   1     -52.483  23.900  33.400  0.00  0.00     0.003 A 
ATOM     28  C   UNL d   1     -52.456  24.629  33.787  0.00  0.00     0.021 A 
ENDBRANCH   1  23
TORSDOF 6
ENDMDL
