MODEL 1
REMARK VINA RESULT:      31.5      0.000      0.000
REMARK  2 active torsions:
REMARK  status: ('A' for Active; 'I' for Inactive)
REMARK       I    between atoms: C_6  and  N_7 
REMARK    1  A    between atoms: C_9  and  C_6 
REMARK    2  A    between atoms: N_7  and  C_13 
ROOT
ATOM      1  N   UNL d   1      44.383 -16.233  44.003  0.00  0.00    -0.169 NA
ATOM      2  C   UNL d   1      44.345 -15.571  44.488  0.00  0.00     0.282 A 
ATOM      3  C   UNL d   1      45.116 -16.237  43.635  0.00  0.00     0.282 A 
ATOM      4  C   UNL d   1      45.064 -15.163  44.418  0.00  0.00     0.064 A 
ATOM      5  C   UNL d   1      45.532 -15.579  43.892  0.00  0.00     0.063 A 
ATOM      6  C   UNL d   1      46.289 -15.299  43.713  0.00  0.00     0.006 A 
ATOM      7  C   UNL d   1      45.335 -14.468  44.773  0.00  0.00     0.024 A 
ATOM      8  O   UNL d   1      43.697 -15.367  44.955  0.00  0.00    -0.265 OA
ATOM      9  O   UNL d   1      45.392 -16.801  43.101  0.00  0.00    -0.265 OA
ATOM     10  C   UNL d   1      46.087 -14.191  44.594  0.00  0.00     0.085 A 
ATOM     11  C   UNL d   1      46.568 -14.606  44.062  0.00  0.00     0.019 A 
ENDROOT
BRANCH  10  12
ATOM     12  N   UNL d   1      46.358 -13.497  44.949  0.00  0.00    -0.208 NA
ATOM     13  C   UNL d   1      46.202 -12.770  44.598  0.00  0.00     0.279 C 
ATOM     14  O   UNL d   1      46.474 -12.082  44.954  0.00  0.00    -0.265 OA
BRANCH  13  15
ATOM     15  C   UNL d   1      45.780 -12.729  43.901  0.00  0.00     0.058 A 
ATOM     16  C   UNL d   1      44.968 -12.575  43.929  0.00  0.00     0.005 A 
ATOM     17  C   UNL d   1      44.532 -12.531  43.235  0.00  0.00     0.000 A 
ATOM     18  C   UNL d   1      44.909 -12.641  42.499  0.00  0.00     0.000 A 
ATOM     19  C   UNL d   1      45.720 -12.795  42.476  0.00  0.00     0.000 A 
ATOM     20  C   UNL d   1      44.474 -12.598  41.792  0.00  0.00     0.000 C 
ATOM     21  C   UNL d   1      46.147 -12.837  43.179  0.00  0.00     0.005 A 
ENDBRANCH  13  15
ENDBRANCH  10  12
TORSDOF 2
ENDMDL
