MODEL 1
REMARK VINA RESULT:      -7.7      0.000      0.000
REMARK  2 active torsions:
REMARK  status: ('A' for Active; 'I' for Inactive)
REMARK    1  A    between atoms: C_6  and  C_3 
REMARK    2  A    between atoms: C_9  and  C_6 
ROOT
ATOM      1  C   UNL d   1     -47.848  11.775  22.778  0.00  0.00     0.011 C 
ENDROOT
BRANCH   1   2
ATOM      2  C   UNL d   1     -47.223  12.248  23.070  0.00  0.00     0.092 A 
ATOM      3  C   UNL d   1     -46.575  12.021  23.477  0.00  0.00     0.288 A 
ATOM      4  N   UNL d   1     -46.131  12.666  23.639  0.00  0.00    -0.163 NA
ATOM      5  O   UNL d   1     -46.399  11.206  23.698  0.00  0.00    -0.265 OA
ATOM      6  C   UNL d   1     -46.546  13.317  23.305  0.00  0.00     0.313 A 
ATOM      7  S   UNL d   1     -47.211  13.018  22.964  0.00  0.00    -0.021 SA
ATOM      8  O   UNL d   1     -46.290  14.121  23.335  0.00  0.00    -0.258 OA
ENDBRANCH   1   2
BRANCH   1   9
ATOM      9  C   UNL d   1     -48.648  11.942  22.899  0.00  0.00     0.001 A 
ATOM     10  C   UNL d   1     -49.055  11.758  23.592  0.00  0.00     0.001 A 
ATOM     11  C   UNL d   1     -49.834  11.937  23.671  0.00  0.00     0.007 A 
ATOM     12  C   UNL d   1     -50.255  12.319  23.043  0.00  0.00     0.035 A 
ATOM     13  C   UNL d   1     -49.849  12.503  22.349  0.00  0.00     0.007 A 
ATOM     14 BR   UNL d   1     -51.057  12.511  23.107  0.00  0.00    -0.049 Br
ATOM     15  C   UNL d   1     -49.034  12.314  22.272  0.00  0.00     0.001 A 
ENDBRANCH   1   9
TORSDOF 2
ENDMDL
MODEL 2
REMARK VINA RESULT:      -7.3      0.933      1.537
REMARK  2 active torsions:
REMARK  status: ('A' for Active; 'I' for Inactive)
REMARK    1  A    between atoms: C_6  and  C_3 
REMARK    2  A    between atoms: C_9  and  C_6 
ROOT
ATOM      1  C   UNL d   1     -47.819  13.450  22.213  0.00  0.00     0.011 C 
ENDROOT
BRANCH   1   2
ATOM      2  C   UNL d   1     -47.134  13.286  22.665  0.00  0.00     0.092 A 
ATOM      3  C   UNL d   1     -46.568  13.791  22.912  0.00  0.00     0.288 A 
ATOM      4  N   UNL d   1     -46.019  13.384  23.327  0.00  0.00    -0.163 NA
ATOM      5  O   UNL d   1     -46.564  14.638  22.746  0.00  0.00    -0.265 OA
ATOM      6  C   UNL d   1     -46.281  12.585  23.325  0.00  0.00     0.313 A 
ATOM      7  S   UNL d   1     -46.969  12.566  22.908  0.00  0.00    -0.021 SA
ATOM      8  O   UNL d   1     -45.879  11.943  23.698  0.00  0.00    -0.258 OA
ENDBRANCH   1   2
BRANCH   1   9
ATOM      9  C   UNL d   1     -48.586  13.250  22.448  0.00  0.00     0.001 A 
ATOM     10  C   UNL d   1     -48.976  13.603  23.083  0.00  0.00     0.001 A 
ATOM     11  C   UNL d   1     -49.722  13.380  23.281  0.00  0.00     0.007 A 
ATOM     12  C   UNL d   1     -50.125  12.778  22.840  0.00  0.00     0.035 A 
ATOM     13  C   UNL d   1     -49.734  12.425  22.205  0.00  0.00     0.007 A 
ATOM     14 BR   UNL d   1     -50.892  12.537  23.029  0.00  0.00    -0.049 Br
ATOM     15  C   UNL d   1     -48.953  12.662  22.002  0.00  0.00     0.001 A 
ENDBRANCH   1   9
TORSDOF 2
ENDMDL
MODEL 3
REMARK VINA RESULT:      -7.0      1.670      1.813
REMARK  2 active torsions:
REMARK  status: ('A' for Active; 'I' for Inactive)
REMARK    1  A    between atoms: C_6  and  C_3 
REMARK    2  A    between atoms: C_9  and  C_6 
ROOT
ATOM      1  C   UNL d   1     -48.422  12.680  22.482  0.00  0.00     0.011 C 
ENDROOT
BRANCH   1   2
ATOM      2  C   UNL d   1     -47.777  12.355  22.905  0.00  0.00     0.092 A 
ATOM      3  C   UNL d   1     -47.723  11.641  23.259  0.00  0.00     0.288 A 
ATOM      4  N   UNL d   1     -47.002  11.573  23.597  0.00  0.00    -0.163 NA
ATOM      5  O   UNL d   1     -48.353  11.052  23.266  0.00  0.00    -0.265 OA
ATOM      6  C   UNL d   1     -46.604  12.295  23.430  0.00  0.00     0.313 A 
ATOM      7  S   UNL d   1     -47.114  12.748  23.004  0.00  0.00    -0.021 SA
ATOM      8  O   UNL d   1     -45.818  12.482  23.675  0.00  0.00    -0.258 OA
ENDBRANCH   1   2
BRANCH   1   9
ATOM      9  C   UNL d   1     -48.813  13.375  22.698  0.00  0.00     0.001 A 
ATOM     10  C   UNL d   1     -49.343  13.424  23.328  0.00  0.00     0.001 A 
ATOM     11  C   UNL d   1     -49.704  14.118  23.508  0.00  0.00     0.007 A 
ATOM     12  C   UNL d   1     -49.548  14.817  23.053  0.00  0.00     0.035 A 
ATOM     13  C   UNL d   1     -49.018  14.768  22.423  0.00  0.00     0.007 A 
ATOM     14 BR   UNL d   1     -49.910  15.540  23.224  0.00  0.00    -0.049 Br
ATOM     15  C   UNL d   1     -48.643  14.038  22.240  0.00  0.00     0.001 A 
ENDBRANCH   1   9
TORSDOF 2
ENDMDL
MODEL 4
REMARK VINA RESULT:      -6.8      2.726      3.411
REMARK  2 active torsions:
REMARK  status: ('A' for Active; 'I' for Inactive)
REMARK    1  A    between atoms: C_6  and  C_3 
REMARK    2  A    between atoms: C_9  and  C_6 
ROOT
ATOM      1  C   UNL d   1     -48.754  13.872  21.972  0.00  0.00     0.011 C 
ENDROOT
BRANCH   1   2
ATOM      2  C   UNL d   1     -49.307  14.404  22.307  0.00  0.00     0.092 A 
ATOM      3  C   UNL d   1     -50.075  14.509  22.117  0.00  0.00     0.288 A 
ATOM      4  N   UNL d   1     -50.383  15.078  22.586  0.00  0.00    -0.163 NA
ATOM      5  O   UNL d   1     -50.489  14.070  21.501  0.00  0.00    -0.265 OA
ATOM      6  C   UNL d   1     -49.754  15.325  23.086  0.00  0.00     0.313 A 
ATOM      7  S   UNL d   1     -49.110  14.887  22.884  0.00  0.00    -0.021 SA
ATOM      8  O   UNL d   1     -49.813  15.922  23.681  0.00  0.00    -0.258 OA
ENDBRANCH   1   2
BRANCH   1   9
ATOM      9  C   UNL d   1     -48.307  13.334  22.411  0.00  0.00     0.001 A 
ATOM     10  C   UNL d   1     -48.625  12.667  22.777  0.00  0.00     0.001 A 
ATOM     11  C   UNL d   1     -48.157  12.167  23.196  0.00  0.00     0.007 A 
ATOM     12  C   UNL d   1     -47.325  12.313  23.271  0.00  0.00     0.035 A 
ATOM     13  C   UNL d   1     -47.007  12.980  22.904  0.00  0.00     0.007 A 
ATOM     14 BR   UNL d   1     -46.829  11.809  23.698  0.00  0.00    -0.049 Br
ATOM     15  C   UNL d   1     -47.502  13.501  22.467  0.00  0.00     0.001 A 
ENDBRANCH   1   9
TORSDOF 2
ENDMDL
