MODEL 1
REMARK VINA RESULT:       4.7      0.000      0.000
REMARK  6 active torsions:
REMARK  status: ('A' for Active; 'I' for Inactive)
REMARK    1  A    between atoms: C_4  and  C_1 
REMARK    2  A    between atoms: C_13  and  N_3 
REMARK    3  A    between atoms: C_11  and  N_5 
REMARK    4  A    between atoms: C_16  and  C_13 
REMARK    5  A    between atoms: O_14  and  C_16 
REMARK    6  A    between atoms: C_15  and  O_14 
ROOT
ATOM      1  C   UNL d   1     -41.449-121.537 -52.835  0.00  0.00     0.149 A 
ATOM      2  N   UNL d   1     -41.395-120.712 -52.856  0.00  0.00    -0.227 NA
ATOM      3  N   UNL d   1     -41.386-121.782 -52.036  0.00  0.00    -0.287 N 
ATOM      4  C   UNL d   1     -41.294-121.098 -51.572  0.00  0.00     0.083 A 
ATOM      5  C   UNL d   1     -41.298-120.437 -52.071  0.00  0.00     0.099 A 
ATOM      6  C   UNL d   1     -41.205-120.994 -50.751  0.00  0.00     0.019 A 
ATOM      7  C   UNL d   1     -41.217-119.679 -51.764  0.00  0.00     0.021 A 
ATOM      8  C   UNL d   1     -41.123-120.227 -50.444  0.00  0.00     0.002 A 
ATOM      9  C   UNL d   1     -41.128-119.571 -50.950  0.00  0.00     0.002 A 
ENDROOT
BRANCH   1  10
ATOM     10  C   UNL d   1     -41.547-122.037 -53.483  0.00  0.00     0.057 A 
ATOM     11  C   UNL d   1     -42.020-121.896 -54.139  0.00  0.00     0.081 A 
ATOM     12  N   UNL d   1     -41.949-122.546 -54.649  0.00  0.00    -0.298 N 
ATOM     13  C   UNL d   1     -41.431-123.086 -54.304  0.00  0.00     0.261 A 
ATOM     14  C   UNL d   1     -41.182-122.774 -53.583  0.00  0.00     0.065 A 
ATOM     15  O   UNL d   1     -41.205-123.809 -54.623  0.00  0.00    -0.267 OA
BRANCH  12  16
ATOM     16  C   UNL d   1     -42.332-122.633 -55.374  0.00  0.00     0.071 C 
ATOM     17  C   UNL d   1     -42.639-123.370 -55.584  0.00  0.00     0.023 C 
ATOM     18  C   UNL d   1     -42.685-122.594 -56.111  0.00  0.00     0.023 C 
ATOM     19  C   UNL d   1     -42.404-121.992 -55.880  0.00  0.00     0.023 C 
ENDBRANCH  12  16
ENDBRANCH   1  10
BRANCH   3  20
ATOM     20  C   UNL d   1     -41.411-122.555 -51.764  0.00  0.00     0.108 C 
BRANCH  20  21
ATOM     21  C   UNL d   1     -41.970-122.777 -51.194  0.00  0.00     0.142 C 
BRANCH  21  22
ATOM     22  O   UNL d   1     -41.917-123.504 -50.823  0.00  0.00    -0.304 OA
BRANCH  22  23
ATOM     23  C   UNL d   1     -42.275-123.609 -50.084  0.00  0.00     0.100 A 
ATOM     24  C   UNL d   1     -41.798-123.635 -49.411  0.00  0.00     0.025 A 
ATOM     25  C   UNL d   1     -42.156-123.740 -48.672  0.00  0.00     0.002 A 
ATOM     26  C   UNL d   1     -42.972-123.816 -48.609  0.00  0.00     0.000 A 
ATOM     27  C   UNL d   1     -43.438-123.787 -49.295  0.00  0.00     0.002 A 
ATOM     28  C   UNL d   1     -43.083-123.683 -50.030  0.00  0.00     0.025 A 
ENDBRANCH  22  23
ENDBRANCH  21  22
ENDBRANCH  20  21
ENDBRANCH   3  20
TORSDOF 6
ENDMDL
