MODEL 1
REMARK VINA RESULT:      -2.9      0.000      0.000
REMARK  3 active torsions:
REMARK  status: ('A' for Active; 'I' for Inactive)
REMARK    1  A    between atoms: S_2  and  N_1 
REMARK    2  A    between atoms: C_7  and  S_2 
REMARK    3  A    between atoms: C_14  and  C_6 
ROOT
ATOM      1  S   UNL d   1      30.529  16.407 -24.000  0.00  0.00     0.273 S 
ATOM      2  O   UNL d   1      30.365  15.967 -24.622  0.00  0.00    -0.200 OA
ATOM      3  O   UNL d   1      30.519  16.745 -23.344  0.00  0.00    -0.200 OA
ENDROOT
BRANCH   1   4
ATOM      4  N   UNL d   1      29.911  16.161 -23.660  0.00  0.00    -0.202 N 
ATOM      5  C   UNL d   1      29.892  15.692 -23.069  0.00  0.00     0.218 A 
ATOM      6  N   UNL d   1      29.165  15.577 -22.889  0.00  0.00    -0.178 NA
ATOM      7  S   UNL d   1      30.559  15.455 -22.803  0.00  0.00    -0.037 SA
ATOM      8  C   UNL d   1      28.749  15.974 -23.369  0.00  0.00     0.298 A 
ATOM      9  C   UNL d   1      29.205  16.334 -23.844  0.00  0.00     0.135 A 
ATOM     10  O   UNL d   1      27.998  15.984 -23.346  0.00  0.00    -0.264 OA
BRANCH   9  11
ATOM     11  C   UNL d   1      29.001  16.788 -24.405  0.00  0.00     0.022 C 
ATOM     12  C   UNL d   1      28.908  17.520 -24.274  0.00  0.00     0.002 C 
ATOM     13  C   UNL d   1      28.890  16.512 -25.094  0.00  0.00     0.002 C 
ENDBRANCH   9  11
ENDBRANCH   1   4
BRANCH   1  14
ATOM     14  C   UNL d   1      31.225  16.720 -24.315  0.00  0.00     0.104 A 
ATOM     15  C   UNL d   1      31.723  16.252 -24.782  0.00  0.00     0.012 A 
ATOM     16  C   UNL d   1      32.420  16.565 -25.097  0.00  0.00     0.001 A 
ATOM     17  C   UNL d   1      31.503  15.453 -24.926  0.00  0.00     0.001 C 
ATOM     18  C   UNL d   1      32.624  17.349 -24.948  0.00  0.00     0.000 A 
ATOM     19  C   UNL d   1      32.131  17.825 -24.482  0.00  0.00     0.001 A 
ATOM     20  C   UNL d   1      31.428  17.509 -24.164  0.00  0.00     0.013 A 
ATOM     21  C   UNL d   1      32.338  18.618 -24.332  0.00  0.00     0.000 C 
ENDBRANCH   1  14
TORSDOF 3
ENDMDL
MODEL 2
REMARK VINA RESULT:      -2.6      1.235      1.546
REMARK  3 active torsions:
REMARK  status: ('A' for Active; 'I' for Inactive)
REMARK    1  A    between atoms: S_2  and  N_1 
REMARK    2  A    between atoms: C_7  and  S_2 
REMARK    3  A    between atoms: C_14  and  C_6 
ROOT
ATOM      1  S   UNL d   1      31.123  16.874 -24.361  0.00  0.00     0.273 S 
ATOM      2  O   UNL d   1      30.918  16.738 -23.622  0.00  0.00    -0.200 OA
ATOM      3  O   UNL d   1      31.171  16.883 -25.097  0.00  0.00    -0.200 OA
ENDROOT
BRANCH   1   4
ATOM      4  N   UNL d   1      30.577  16.425 -24.598  0.00  0.00    -0.202 N 
ATOM      5  C   UNL d   1      30.667  15.720 -24.854  0.00  0.00     0.218 A 
ATOM      6  N   UNL d   1      29.983  15.453 -25.040  0.00  0.00    -0.178 NA
ATOM      7  S   UNL d   1      31.374  15.454 -24.868  0.00  0.00    -0.037 SA
ATOM      8  C   UNL d   1      29.484  15.993 -24.897  0.00  0.00     0.298 A 
ATOM      9  C   UNL d   1      29.846  16.592 -24.626  0.00  0.00     0.135 A 
ATOM     10  O   UNL d   1      28.747  15.911 -25.020  0.00  0.00    -0.264 OA
BRANCH   9  11
ATOM     11  C   UNL d   1      29.541  17.244 -24.416  0.00  0.00     0.022 C 
ATOM     12  C   UNL d   1      29.319  17.338 -23.706  0.00  0.00     0.002 C 
ATOM     13  C   UNL d   1      29.457  17.800 -24.913  0.00  0.00     0.002 C 
ENDBRANCH   9  11
ENDBRANCH   1   4
BRANCH   1  14
ATOM     14  C   UNL d   1      31.745  17.382 -24.169  0.00  0.00     0.104 A 
ATOM     15  C   UNL d   1      32.221  17.234 -23.507  0.00  0.00     0.012 A 
ATOM     16  C   UNL d   1      32.843  17.743 -23.315  0.00  0.00     0.001 A 
ATOM     17  C   UNL d   1      32.054  16.556 -23.038  0.00  0.00     0.001 C 
ATOM     18  C   UNL d   1      32.996  18.403 -23.783  0.00  0.00     0.000 A 
ATOM     19  C   UNL d   1      32.525  18.559 -24.446  0.00  0.00     0.001 A 
ATOM     20  C   UNL d   1      31.897  18.046 -24.640  0.00  0.00     0.013 A 
ATOM     21  C   UNL d   1      32.679  19.227 -24.920  0.00  0.00     0.000 C 
ENDBRANCH   1  14
TORSDOF 3
ENDMDL
MODEL 3
REMARK VINA RESULT:      -2.5      1.337      3.203
REMARK  3 active torsions:
REMARK  status: ('A' for Active; 'I' for Inactive)
REMARK    1  A    between atoms: S_2  and  N_1 
REMARK    2  A    between atoms: C_7  and  S_2 
REMARK    3  A    between atoms: C_14  and  C_6 
ROOT
ATOM      1  S   UNL d   1      31.059  16.524 -24.147  0.00  0.00     0.273 S 
ATOM      2  O   UNL d   1      31.392  16.609 -23.448  0.00  0.00    -0.200 OA
ATOM      3  O   UNL d   1      30.923  16.483 -24.871  0.00  0.00    -0.200 OA
ENDROOT
BRANCH   1   4
ATOM      4  N   UNL d   1      31.712  16.668 -24.478  0.00  0.00    -0.202 N 
ATOM      5  C   UNL d   1      32.143  16.163 -24.838  0.00  0.00     0.218 A 
ATOM      6  N   UNL d   1      32.756  16.526 -25.096  0.00  0.00    -0.178 NA
ATOM      7  S   UNL d   1      31.885  15.453 -24.860  0.00  0.00    -0.037 SA
ATOM      8  C   UNL d   1      32.694  17.245 -24.893  0.00  0.00     0.298 A 
ATOM      9  C   UNL d   1      32.053  17.335 -24.513  0.00  0.00     0.135 A 
ATOM     10  O   UNL d   1      33.213  17.763 -25.062  0.00  0.00    -0.264 OA
BRANCH   9  11
ATOM     11  C   UNL d   1      31.793  17.973 -24.218  0.00  0.00     0.022 C 
ATOM     12  C   UNL d   1      31.973  18.155 -23.512  0.00  0.00     0.002 C 
ATOM     13  C   UNL d   1      31.355  18.427 -24.624  0.00  0.00     0.002 C 
ENDBRANCH   9  11
ENDBRANCH   1   4
BRANCH   1  14
ATOM     14  C   UNL d   1      30.307  16.356 -23.848  0.00  0.00     0.104 A 
ATOM     15  C   UNL d   1      30.213  15.830 -23.216  0.00  0.00     0.012 A 
ATOM     16  C   UNL d   1      29.462  15.663 -22.917  0.00  0.00     0.001 A 
ATOM     17  C   UNL d   1      30.901  15.472 -22.887  0.00  0.00     0.001 C 
ATOM     18  C   UNL d   1      28.797  16.020 -23.247  0.00  0.00     0.000 A 
ATOM     19  C   UNL d   1      28.882  16.548 -23.880  0.00  0.00     0.001 A 
ATOM     20  C   UNL d   1      29.641  16.717 -24.182  0.00  0.00     0.013 A 
ATOM     21  C   UNL d   1      28.210  16.910 -24.214  0.00  0.00     0.000 C 
ENDBRANCH   1  14
TORSDOF 3
ENDMDL
MODEL 4
REMARK VINA RESULT:      -2.2      1.901      3.057
REMARK  3 active torsions:
REMARK  status: ('A' for Active; 'I' for Inactive)
REMARK    1  A    between atoms: S_2  and  N_1 
REMARK    2  A    between atoms: C_7  and  S_2 
REMARK    3  A    between atoms: C_14  and  C_6 
ROOT
ATOM      1  S   UNL d   1      32.077  17.937 -24.095  0.00  0.00     0.273 S 
ATOM      2  O   UNL d   1      32.396  18.004 -24.802  0.00  0.00    -0.200 OA
ATOM      3  O   UNL d   1      31.689  17.721 -23.506  0.00  0.00    -0.200 OA
ENDROOT
BRANCH   1   4
ATOM      4  N   UNL d   1      31.700  17.334 -24.319  0.00  0.00    -0.202 N 
ATOM      5  C   UNL d   1      30.978  17.325 -24.540  0.00  0.00     0.218 A 
ATOM      6  N   UNL d   1      30.801  16.611 -24.723  0.00  0.00    -0.178 NA
ATOM      7  S   UNL d   1      30.613  17.987 -24.532  0.00  0.00    -0.037 SA
ATOM      8  C   UNL d   1      31.413  16.193 -24.612  0.00  0.00     0.298 A 
ATOM      9  C   UNL d   1      31.967  16.635 -24.364  0.00  0.00     0.135 A 
ATOM     10  O   UNL d   1      31.430  15.453 -24.741  0.00  0.00    -0.264 OA
BRANCH   9  11
ATOM     11  C   UNL d   1      32.665  16.424 -24.189  0.00  0.00     0.022 C 
ATOM     12  C   UNL d   1      33.204  16.464 -24.709  0.00  0.00     0.002 C 
ATOM     13  C   UNL d   1      32.824  16.175 -23.500  0.00  0.00     0.002 C 
ENDBRANCH   9  11
ENDBRANCH   1   4
BRANCH   1  14
ATOM     14  C   UNL d   1      32.464  18.596 -23.780  0.00  0.00     0.104 A 
ATOM     15  C   UNL d   1      32.690  19.225 -24.269  0.00  0.00     0.012 A 
ATOM     16  C   UNL d   1      33.076  19.884 -23.954  0.00  0.00     0.001 A 
ATOM     17  C   UNL d   1      32.516  19.175 -25.091  0.00  0.00     0.001 C 
ATOM     18  C   UNL d   1      33.241  19.919 -23.148  0.00  0.00     0.000 A 
ATOM     19  C   UNL d   1      33.019  19.295 -22.651  0.00  0.00     0.001 A 
ATOM     20  C   UNL d   1      32.628  18.630 -22.969  0.00  0.00     0.013 A 
ATOM     21  C   UNL d   1      33.185  19.331 -21.836  0.00  0.00     0.000 C 
ENDBRANCH   1  14
TORSDOF 3
ENDMDL
MODEL 5
REMARK VINA RESULT:      -1.2      1.367      2.140
REMARK  3 active torsions:
REMARK  status: ('A' for Active; 'I' for Inactive)
REMARK    1  A    between atoms: S_2  and  N_1 
REMARK    2  A    between atoms: C_7  and  S_2 
REMARK    3  A    between atoms: C_14  and  C_6 
ROOT
ATOM      1  S   UNL d   1      31.110  17.443 -24.406  0.00  0.00     0.273 S 
ATOM      2  O   UNL d   1      31.419  17.235 -25.090  0.00  0.00    -0.200 OA
ATOM      3  O   UNL d   1      30.655  17.568 -23.839  0.00  0.00    -0.200 OA
ENDROOT
BRANCH   1   4
ATOM      4  N   UNL d   1      30.444  17.191 -24.628  0.00  0.00    -0.202 N 
ATOM      5  C   UNL d   1      29.870  17.618 -24.871  0.00  0.00     0.218 A 
ATOM      6  N   UNL d   1      29.295  17.156 -25.043  0.00  0.00    -0.178 NA
ATOM      7  S   UNL d   1      29.989  18.364 -24.888  0.00  0.00    -0.037 SA
ATOM      8  C   UNL d   1      29.520  16.454 -24.905  0.00  0.00     0.298 A 
ATOM      9  C   UNL d   1      30.226  16.473 -24.650  0.00  0.00     0.135 A 
ATOM     10  O   UNL d   1      29.080  15.855 -25.017  0.00  0.00    -0.264 OA
BRANCH   9  11
ATOM     11  C   UNL d   1      30.646  15.885 -24.450  0.00  0.00     0.022 C 
ATOM     12  C   UNL d   1      30.603  15.620 -23.749  0.00  0.00     0.002 C 
ATOM     13  C   UNL d   1      31.107  15.563 -24.947  0.00  0.00     0.002 C 
ENDBRANCH   9  11
ENDBRANCH   1   4
BRANCH   1  14
ATOM     14  C   UNL d   1      31.815  17.741 -24.097  0.00  0.00     0.104 A 
ATOM     15  C   UNL d   1      32.175  18.406 -24.434  0.00  0.00     0.012 A 
ATOM     16  C   UNL d   1      32.880  18.704 -24.124  0.00  0.00     0.001 A 
ATOM     17  C   UNL d   1      31.805  18.768 -25.097  0.00  0.00     0.001 C 
ATOM     18  C   UNL d   1      33.232  18.340 -23.474  0.00  0.00     0.000 A 
ATOM     19  C   UNL d   1      32.879  17.674 -23.130  0.00  0.00     0.001 A 
ATOM     20  C   UNL d   1      32.167  17.373 -23.443  0.00  0.00     0.013 A 
ATOM     21  C   UNL d   1      33.235  17.305 -22.474  0.00  0.00     0.000 C 
ENDBRANCH   1  14
TORSDOF 3
ENDMDL
MODEL 6
REMARK VINA RESULT:      -1.0      2.155      3.568
REMARK  3 active torsions:
REMARK  status: ('A' for Active; 'I' for Inactive)
REMARK    1  A    between atoms: S_2  and  N_1 
REMARK    2  A    between atoms: C_7  and  S_2 
REMARK    3  A    between atoms: C_14  and  C_6 
ROOT
ATOM      1  S   UNL d   1      32.385  17.620 -23.592  0.00  0.00     0.273 S 
ATOM      2  O   UNL d   1      32.990  17.498 -24.066  0.00  0.00    -0.200 OA
ATOM      3  O   UNL d   1      31.904  17.901 -23.108  0.00  0.00    -0.200 OA
ENDROOT
BRANCH   1   4
ATOM      4  N   UNL d   1      32.666  18.283 -23.398  0.00  0.00    -0.202 N 
ATOM      5  C   UNL d   1      32.910  18.473 -22.708  0.00  0.00     0.218 A 
ATOM      6  N   UNL d   1      33.152  19.190 -22.739  0.00  0.00    -0.178 NA
ATOM      7  S   UNL d   1      32.861  17.940 -22.174  0.00  0.00    -0.037 SA
ATOM      8  C   UNL d   1      33.056  19.431 -23.442  0.00  0.00     0.298 A 
ATOM      9  C   UNL d   1      32.757  18.875 -23.849  0.00  0.00     0.135 A 
ATOM     10  O   UNL d   1      33.241  20.124 -23.665  0.00  0.00    -0.264 OA
BRANCH   9  11
ATOM     11  C   UNL d   1      32.578  18.899 -24.577  0.00  0.00     0.022 C 
ATOM     12  C   UNL d   1      31.901  19.147 -24.784  0.00  0.00     0.002 C 
ATOM     13  C   UNL d   1      33.072  18.675 -25.096  0.00  0.00     0.002 C 
ENDBRANCH   9  11
ENDBRANCH   1   4
BRANCH   1  14
ATOM     14  C   UNL d   1      32.017  16.900 -23.760  0.00  0.00     0.104 A 
ATOM     15  C   UNL d   1      32.424  16.186 -23.663  0.00  0.00     0.012 A 
ATOM     16  C   UNL d   1      32.056  15.466 -23.832  0.00  0.00     0.001 A 
ATOM     17  C   UNL d   1      33.220  16.213 -23.390  0.00  0.00     0.001 C 
ATOM     18  C   UNL d   1      31.277  15.453 -24.099  0.00  0.00     0.000 A 
ATOM     19  C   UNL d   1      30.861  16.163 -24.198  0.00  0.00     0.001 A 
ATOM     20  C   UNL d   1      31.233  16.890 -24.028  0.00  0.00     0.013 A 
ATOM     21  C   UNL d   1      30.073  16.150 -24.468  0.00  0.00     0.000 C 
ENDBRANCH   1  14
TORSDOF 3
ENDMDL
