MODEL 1
REMARK VINA RESULT:      -3.2      0.000      0.000
REMARK  4 active torsions:
REMARK  status: ('A' for Active; 'I' for Inactive)
REMARK    1  A    between atoms: C_2  and  S_1 
REMARK    2  A    between atoms: N_4  and  S_1 
REMARK    3  A    between atoms: C_16  and  N_4 
REMARK    4  A    between atoms: C_17  and  C_16 
ROOT
ATOM      1  S   UNL d   1      32.626  18.335 -23.416  0.00  0.00     0.287 S 
ATOM      2  O   UNL d   1      32.991  18.537 -24.128  0.00  0.00    -0.198 OA
ATOM      3  O   UNL d   1      32.260  18.141 -22.700  0.00  0.00    -0.198 OA
ENDROOT
BRANCH   1   4
ATOM      4  C   UNL d   1      32.598  17.546 -23.653  0.00  0.00     0.123 A 
ATOM      5  C   UNL d   1      31.954  17.261 -24.092  0.00  0.00     0.094 A 
ATOM      6  N   UNL d   1      31.338  17.772 -24.290  0.00  0.00    -0.243 NA
ATOM      7  C   UNL d   1      31.920  16.485 -24.329  0.00  0.00     0.018 A 
ATOM      8  C   UNL d   1      30.708  17.502 -24.717  0.00  0.00     0.099 A 
ATOM      9  C   UNL d   1      30.679  16.713 -24.955  0.00  0.00     0.021 A 
ATOM     10  C   UNL d   1      31.278  16.193 -24.768  0.00  0.00     0.003 A 
ATOM     11  C   UNL d   1      32.538  15.967 -24.131  0.00  0.00     0.002 A 
ATOM     12  C   UNL d   1      33.167  16.244 -23.704  0.00  0.00     0.001 A 
ATOM     13  C   UNL d   1      33.195  17.033 -23.466  0.00  0.00     0.015 A 
ENDBRANCH   1   4
BRANCH   1  14
ATOM     14  N   UNL d   1      32.657  19.129 -23.184  0.00  0.00    -0.157 NA
BRANCH  14  15
ATOM     15  C   UNL d   1      33.066  19.340 -22.493  0.00  0.00     0.112 C 
BRANCH  15  16
ATOM     16  C   UNL d   1      33.059  20.108 -22.227  0.00  0.00     0.022 A 
ATOM     17  C   UNL d   1      32.869  20.293 -21.436  0.00  0.00     0.028 A 
ATOM     18  C   UNL d   1      32.866  21.062 -21.188  0.00  0.00     0.119 A 
ATOM     19  O   UNL d   1      32.707  21.397 -20.470  0.00  0.00    -0.300 OA
ATOM     20  C   UNL d   1      33.054  21.679 -21.725  0.00  0.00     0.119 A 
ATOM     21  C   UNL d   1      32.792  22.224 -20.544  0.00  0.00     0.304 A 
ATOM     22  O   UNL d   1      33.005  22.377 -21.318  0.00  0.00    -0.300 OA
ATOM     23  C   UNL d   1      33.236  21.499 -22.483  0.00  0.00     0.026 A 
ATOM     24  C   UNL d   1      33.240  20.701 -22.744  0.00  0.00     0.004 A 
ENDBRANCH  15  16
ENDBRANCH  14  15
ENDBRANCH   1  14
TORSDOF 4
ENDMDL
MODEL 2
REMARK VINA RESULT:      -1.9      1.704      5.383
REMARK  4 active torsions:
REMARK  status: ('A' for Active; 'I' for Inactive)
REMARK    1  A    between atoms: C_2  and  S_1 
REMARK    2  A    between atoms: N_4  and  S_1 
REMARK    3  A    between atoms: C_16  and  N_4 
REMARK    4  A    between atoms: C_17  and  C_16 
ROOT
ATOM      1  S   UNL d   1      32.790  21.203 -21.600  0.00  0.00     0.287 S 
ATOM      2  O   UNL d   1      33.241  21.504 -22.222  0.00  0.00    -0.198 OA
ATOM      3  O   UNL d   1      32.341  20.893 -20.979  0.00  0.00    -0.198 OA
ENDROOT
BRANCH   1   4
ATOM      4  C   UNL d   1      32.586  21.970 -21.375  0.00  0.00     0.123 A 
ATOM      5  C   UNL d   1      32.736  22.237 -20.605  0.00  0.00     0.094 A 
ATOM      6  N   UNL d   1      33.092  21.730 -20.060  0.00  0.00    -0.243 NA
ATOM      7  C   UNL d   1      32.538  22.991 -20.377  0.00  0.00     0.018 A 
ATOM      8  C   UNL d   1      33.241  21.983 -19.308  0.00  0.00     0.099 A 
ATOM      9  C   UNL d   1      33.037  22.749 -19.083  0.00  0.00     0.021 A 
ATOM     10  C   UNL d   1      32.685  23.264 -19.607  0.00  0.00     0.003 A 
ATOM     11  C   UNL d   1      32.179  23.504 -20.922  0.00  0.00     0.002 A 
ATOM     12  C   UNL d   1      32.032  23.245 -21.674  0.00  0.00     0.001 A 
ATOM     13  C   UNL d   1      32.236  22.477 -21.900  0.00  0.00     0.015 A 
ENDBRANCH   1   4
BRANCH   1  14
ATOM     14  N   UNL d   1      32.999  20.436 -21.830  0.00  0.00    -0.157 NA
BRANCH  14  15
ATOM     15  C   UNL d   1      33.234  20.292 -22.613  0.00  0.00     0.112 C 
BRANCH  15  16
ATOM     16  C   UNL d   1      33.130  19.558 -22.947  0.00  0.00     0.022 A 
ATOM     17  C   UNL d   1      33.211  18.860 -22.496  0.00  0.00     0.028 A 
ATOM     18  C   UNL d   1      33.104  18.138 -22.843  0.00  0.00     0.119 A 
ATOM     19  O   UNL d   1      33.146  17.386 -22.550  0.00  0.00    -0.300 OA
ATOM     20  C   UNL d   1      32.911  18.087 -23.658  0.00  0.00     0.119 A 
ATOM     21  C   UNL d   1      32.981  16.854 -23.171  0.00  0.00     0.304 A 
ATOM     22  O   UNL d   1      32.840  17.301 -23.841  0.00  0.00    -0.300 OA
ATOM     23  C   UNL d   1      32.834  18.757 -24.088  0.00  0.00     0.026 A 
ATOM     24  C   UNL d   1      32.945  19.509 -23.731  0.00  0.00     0.004 A 
ENDBRANCH  15  16
ENDBRANCH  14  15
ENDBRANCH   1  14
TORSDOF 4
ENDMDL
MODEL 3
REMARK VINA RESULT:      -1.5      0.791      1.235
REMARK  4 active torsions:
REMARK  status: ('A' for Active; 'I' for Inactive)
REMARK    1  A    between atoms: C_2  and  S_1 
REMARK    2  A    between atoms: N_4  and  S_1 
REMARK    3  A    between atoms: C_16  and  N_4 
REMARK    4  A    between atoms: C_17  and  C_16 
ROOT
ATOM      1  S   UNL d   1      33.017  18.880 -23.075  0.00  0.00     0.287 S 
ATOM      2  O   UNL d   1      32.811  18.677 -22.302  0.00  0.00    -0.198 OA
ATOM      3  O   UNL d   1      33.225  19.091 -23.847  0.00  0.00    -0.198 OA
ENDROOT
BRANCH   1   4
ATOM      4  C   UNL d   1      32.855  18.109 -23.321  0.00  0.00     0.123 A 
ATOM      5  C   UNL d   1      32.292  17.966 -23.912  0.00  0.00     0.094 A 
ATOM      6  N   UNL d   1      31.891  18.600 -24.256  0.00  0.00    -0.243 NA
ATOM      7  C   UNL d   1      32.128  17.210 -24.158  0.00  0.00     0.018 A 
ATOM      8  C   UNL d   1      31.341  18.468 -24.832  0.00  0.00     0.099 A 
ATOM      9  C   UNL d   1      31.179  17.698 -25.078  0.00  0.00     0.021 A 
ATOM     10  C   UNL d   1      31.564  17.059 -24.750  0.00  0.00     0.003 A 
ATOM     11  C   UNL d   1      32.528  16.569 -23.816  0.00  0.00     0.002 A 
ATOM     12  C   UNL d   1      33.078  16.708 -23.239  0.00  0.00     0.001 A 
ATOM     13  C   UNL d   1      33.241  17.479 -22.992  0.00  0.00     0.015 A 
ENDBRANCH   1   4
BRANCH   1  14
ATOM     14  N   UNL d   1      33.177  19.651 -22.822  0.00  0.00    -0.157 NA
BRANCH  14  15
ATOM     15  C   UNL d   1      32.912  19.903 -22.076  0.00  0.00     0.112 C 
BRANCH  15  16
ATOM     16  C   UNL d   1      32.994  20.679 -21.849  0.00  0.00     0.022 A 
ATOM     17  C   UNL d   1      32.917  21.303 -22.397  0.00  0.00     0.028 A 
ATOM     18  C   UNL d   1      33.002  22.070 -22.155  0.00  0.00     0.119 A 
ATOM     19  O   UNL d   1      32.958  22.770 -22.555  0.00  0.00    -0.300 OA
ATOM     20  C   UNL d   1      33.168  22.241 -21.351  0.00  0.00     0.119 A 
ATOM     21  C   UNL d   1      33.094  23.389 -22.013  0.00  0.00     0.304 A 
ATOM     22  O   UNL d   1      33.221  23.046 -21.281  0.00  0.00    -0.300 OA
ATOM     23  C   UNL d   1      33.241  21.641 -20.827  0.00  0.00     0.026 A 
ATOM     24  C   UNL d   1      33.154  20.844 -21.075  0.00  0.00     0.004 A 
ENDBRANCH  15  16
ENDBRANCH  14  15
ENDBRANCH   1  14
TORSDOF 4
ENDMDL
MODEL 4
REMARK VINA RESULT:      -0.8      1.397      4.975
REMARK  4 active torsions:
REMARK  status: ('A' for Active; 'I' for Inactive)
REMARK    1  A    between atoms: C_2  and  S_1 
REMARK    2  A    between atoms: N_4  and  S_1 
REMARK    3  A    between atoms: C_16  and  N_4 
REMARK    4  A    between atoms: C_17  and  C_16 
ROOT
ATOM      1  S   UNL d   1      32.831  19.978 -22.424  0.00  0.00     0.287 S 
ATOM      2  O   UNL d   1      32.423  20.427 -22.983  0.00  0.00    -0.198 OA
ATOM      3  O   UNL d   1      33.241  19.522 -21.870  0.00  0.00    -0.198 OA
ENDROOT
BRANCH   1   4
ATOM      4  C   UNL d   1      32.769  20.597 -21.881  0.00  0.00     0.123 A 
ATOM      5  C   UNL d   1      32.906  21.379 -22.118  0.00  0.00     0.094 A 
ATOM      6  N   UNL d   1      33.106  21.539 -22.902  0.00  0.00    -0.243 NA
ATOM      7  C   UNL d   1      32.846  21.993 -21.589  0.00  0.00     0.018 A 
ATOM      8  C   UNL d   1      33.241  22.298 -23.140  0.00  0.00     0.099 A 
ATOM      9  C   UNL d   1      33.178  22.917 -22.599  0.00  0.00     0.021 A 
ATOM     10  C   UNL d   1      32.982  22.779 -21.820  0.00  0.00     0.003 A 
ATOM     11  C   UNL d   1      32.645  21.837 -20.799  0.00  0.00     0.002 A 
ATOM     12  C   UNL d   1      32.511  21.074 -20.567  0.00  0.00     0.001 A 
ATOM     13  C   UNL d   1      32.573  20.454 -21.109  0.00  0.00     0.015 A 
ENDBRANCH   1   4
BRANCH   1  14
ATOM     14  N   UNL d   1      32.890  19.362 -22.973  0.00  0.00    -0.157 NA
BRANCH  14  15
ATOM     15  C   UNL d   1      32.307  18.772 -22.994  0.00  0.00     0.112 C 
BRANCH  15  16
ATOM     16  C   UNL d   1      32.382  18.134 -23.492  0.00  0.00     0.022 A 
ATOM     17  C   UNL d   1      32.582  17.378 -23.203  0.00  0.00     0.028 A 
ATOM     18  C   UNL d   1      32.652  16.754 -23.713  0.00  0.00     0.119 A 
ATOM     19  O   UNL d   1      32.835  15.976 -23.592  0.00  0.00    -0.300 OA
ATOM     20  C   UNL d   1      32.526  16.865 -24.535  0.00  0.00     0.119 A 
ATOM     21  C   UNL d   1      32.826  15.589 -24.330  0.00  0.00     0.304 A 
ATOM     22  O   UNL d   1      32.635  16.148 -24.895  0.00  0.00    -0.300 OA
ATOM     23  C   UNL d   1      32.335  17.592 -24.809  0.00  0.00     0.026 A 
ATOM     24  C   UNL d   1      32.260  18.242 -24.283  0.00  0.00     0.004 A 
ENDBRANCH  15  16
ENDBRANCH  14  15
ENDBRANCH   1  14
TORSDOF 4
ENDMDL
