MODEL 1
REMARK VINA RESULT:      -2.6      0.000      0.000
REMARK  2 active torsions:
REMARK  status: ('A' for Active; 'I' for Inactive)
REMARK    1  A    between atoms: C_13  and  C_5 
REMARK    2  A    between atoms: C_16  and  C_13 
ROOT
ATOM      1  C   UNL d   1      31.658  16.459 -23.486  0.00  0.00     0.111 A 
ATOM      2  C   UNL d   1      30.768  17.303 -24.214  0.00  0.00     0.062 A 
ATOM      3  C   UNL d   1      31.022  16.083 -23.143  0.00  0.00     0.213 A 
ATOM      4  C   UNL d   1      30.131  16.927 -23.871  0.00  0.00     0.101 A 
ATOM      5  C   UNL d   1      31.534  17.065 -24.018  0.00  0.00     0.018 A 
ATOM      6  O   UNL d   1      30.264  16.314 -23.334  0.00  0.00    -0.288 OA
ATOM      7  C   UNL d   1      30.644  17.908 -24.745  0.00  0.00     0.194 A 
ATOM      8  C   UNL d   1      32.438  16.189 -23.262  0.00  0.00     0.105 C 
ATOM      9  N   UNL d   1      33.218  15.938 -23.055  0.00  0.00    -0.191 NA
ATOM     10  C   UNL d   1      29.374  17.158 -24.061  0.00  0.00     0.002 A 
ATOM     11  C   UNL d   1      29.239  17.772 -24.600  0.00  0.00     0.042 A 
ATOM     12  C   UNL d   1      29.876  18.148 -24.943  0.00  0.00     0.019 A 
ATOM     13  O   UNL d   1      31.295  18.294 -25.096  0.00  0.00    -0.287 OA
ATOM     14  N   UNL d   1      31.192  15.453 -22.591  0.00  0.00    -0.120 N 
ATOM     15  C   UNL d   1      28.921  18.337 -25.092  0.00  0.00     0.009 C 
ATOM     16  C   UNL d   1      28.436  17.865 -24.668  0.00  0.00     0.009 C 
ENDROOT
BRANCH   5  17
ATOM     17  C   UNL d   1      32.185  17.450 -24.368  0.00  0.00     0.001 C 
BRANCH  17  18
ATOM     18  C   UNL d   1      32.516  18.109 -24.013  0.00  0.00     0.000 A 
ATOM     19  C   UNL d   1      32.874  18.702 -24.480  0.00  0.00     0.000 A 
ATOM     20  C   UNL d   1      33.211  19.376 -24.110  0.00  0.00     0.000 A 
ATOM     21  C   UNL d   1      33.193  19.456 -23.318  0.00  0.00     0.000 A 
ATOM     22  C   UNL d   1      32.837  18.869 -22.836  0.00  0.00     0.000 A 
ATOM     23  C   UNL d   1      32.497  18.194 -23.182  0.00  0.00     0.000 A 
ENDBRANCH  17  18
ENDBRANCH   5  17
TORSDOF 2
ENDMDL
MODEL 2
REMARK VINA RESULT:      -1.0      1.742      3.668
REMARK  2 active torsions:
REMARK  status: ('A' for Active; 'I' for Inactive)
REMARK    1  A    between atoms: C_13  and  C_5 
REMARK    2  A    between atoms: C_16  and  C_13 
ROOT
ATOM      1  C   UNL d   1      33.224  18.759 -22.676  0.00  0.00     0.111 A 
ATOM      2  C   UNL d   1      33.223  19.701 -23.747  0.00  0.00     0.062 A 
ATOM      3  C   UNL d   1      33.225  19.371 -22.138  0.00  0.00     0.213 A 
ATOM      4  C   UNL d   1      33.225  20.312 -23.209  0.00  0.00     0.101 A 
ATOM      5  C   UNL d   1      33.223  18.921 -23.475  0.00  0.00     0.018 A 
ATOM      6  O   UNL d   1      33.226  20.142 -22.401  0.00  0.00    -0.288 OA
ATOM      7  C   UNL d   1      33.222  19.863 -24.546  0.00  0.00     0.194 A 
ATOM      8  C   UNL d   1      33.223  17.963 -22.363  0.00  0.00     0.105 C 
ATOM      9  N   UNL d   1      33.223  17.169 -22.074  0.00  0.00    -0.191 NA
ATOM     10  C   UNL d   1      33.225  21.084 -23.472  0.00  0.00     0.002 A 
ATOM     11  C   UNL d   1      33.225  21.256 -24.282  0.00  0.00     0.042 A 
ATOM     12  C   UNL d   1      33.223  20.644 -24.820  0.00  0.00     0.019 A 
ATOM     13  O   UNL d   1      33.221  19.236 -25.097  0.00  0.00    -0.287 OA
ATOM     14  N   UNL d   1      33.226  19.161 -21.309  0.00  0.00    -0.120 N 
ATOM     15  C   UNL d   1      33.224  21.609 -25.016  0.00  0.00     0.009 C 
ATOM     16  C   UNL d   1      33.225  22.064 -24.358  0.00  0.00     0.009 C 
ENDROOT
BRANCH   5  17
ATOM     17  C   UNL d   1      33.221  18.295 -24.026  0.00  0.00     0.001 C 
BRANCH  17  18
ATOM     18  C   UNL d   1      32.521  17.917 -24.220  0.00  0.00     0.000 A 
ATOM     19  C   UNL d   1      32.538  17.168 -24.590  0.00  0.00     0.000 A 
ATOM     20  C   UNL d   1      31.817  16.786 -24.787  0.00  0.00     0.000 A 
ATOM     21  C   UNL d   1      31.117  17.129 -24.625  0.00  0.00     0.000 A 
ATOM     22  C   UNL d   1      31.085  17.882 -24.254  0.00  0.00     0.000 A 
ATOM     23  C   UNL d   1      31.787  18.277 -24.051  0.00  0.00     0.000 A 
ENDBRANCH  17  18
ENDBRANCH   5  17
TORSDOF 2
ENDMDL
MODEL 3
REMARK VINA RESULT:      -0.2      1.654      3.091
REMARK  2 active torsions:
REMARK  status: ('A' for Active; 'I' for Inactive)
REMARK    1  A    between atoms: C_13  and  C_5 
REMARK    2  A    between atoms: C_16  and  C_13 
ROOT
ATOM      1  C   UNL d   1      30.284  17.197 -24.988  0.00  0.00     0.111 A 
ATOM      2  C   UNL d   1      31.550  17.853 -25.033  0.00  0.00     0.062 A 
ATOM      3  C   UNL d   1      29.910  17.921 -24.980  0.00  0.00     0.213 A 
ATOM      4  C   UNL d   1      31.175  18.577 -25.025  0.00  0.00     0.101 A 
ATOM      5  C   UNL d   1      31.099  17.162 -25.014  0.00  0.00     0.018 A 
ATOM      6  O   UNL d   1      30.351  18.606 -24.998  0.00  0.00    -0.288 OA
ATOM      7  C   UNL d   1      32.364  17.818 -25.059  0.00  0.00     0.194 A 
ATOM      8  C   UNL d   1      29.789  16.501 -24.967  0.00  0.00     0.105 C 
ATOM      9  N   UNL d   1      29.318  15.799 -24.948  0.00  0.00    -0.191 NA
ATOM     10  C   UNL d   1      31.616  19.261 -25.043  0.00  0.00     0.002 A 
ATOM     11  C   UNL d   1      32.443  19.234 -25.070  0.00  0.00     0.042 A 
ATOM     12  C   UNL d   1      32.818  18.510 -25.078  0.00  0.00     0.019 A 
ATOM     13  O   UNL d   1      32.748  17.077 -25.067  0.00  0.00    -0.287 OA
ATOM     14  N   UNL d   1      29.055  17.917 -24.952  0.00  0.00    -0.120 N 
ATOM     15  C   UNL d   1      33.240  19.399 -25.097  0.00  0.00     0.009 C 
ATOM     16  C   UNL d   1      32.712  19.999 -25.084  0.00  0.00     0.009 C 
ENDROOT
BRANCH   5  17
ATOM     17  C   UNL d   1      31.482  16.421 -25.022  0.00  0.00     0.001 C 
BRANCH  17  18
ATOM     18  C   UNL d   1      31.781  16.103 -24.329  0.00  0.00     0.000 A 
ATOM     19  C   UNL d   1      32.575  15.847 -24.294  0.00  0.00     0.000 A 
ATOM     20  C   UNL d   1      32.875  15.522 -23.580  0.00  0.00     0.000 A 
ATOM     21  C   UNL d   1      32.412  15.455 -22.937  0.00  0.00     0.000 A 
ATOM     22  C   UNL d   1      31.612  15.708 -22.958  0.00  0.00     0.000 A 
ATOM     23  C   UNL d   1      31.294  16.033 -23.654  0.00  0.00     0.000 A 
ENDBRANCH  17  18
ENDBRANCH   5  17
TORSDOF 2
ENDMDL
MODEL 4
REMARK VINA RESULT:       0.0      2.089      3.473
REMARK  2 active torsions:
REMARK  status: ('A' for Active; 'I' for Inactive)
REMARK    1  A    between atoms: C_13  and  C_5 
REMARK    2  A    between atoms: C_16  and  C_13 
ROOT
ATOM      1  C   UNL d   1      29.499  15.750 -23.016  0.00  0.00     0.111 A 
ATOM      2  C   UNL d   1      30.765  15.763 -23.671  0.00  0.00     0.062 A 
ATOM      3  C   UNL d   1      29.864  15.554 -22.314  0.00  0.00     0.213 A 
ATOM      4  C   UNL d   1      31.130  15.567 -22.970  0.00  0.00     0.101 A 
ATOM      5  C   UNL d   1      29.944  15.854 -23.690  0.00  0.00     0.018 A 
ATOM      6  O   UNL d   1      30.674  15.463 -22.290  0.00  0.00    -0.288 OA
ATOM      7  C   UNL d   1      31.211  15.867 -24.346  0.00  0.00     0.194 A 
ATOM      8  C   UNL d   1      28.648  15.836 -23.001  0.00  0.00     0.105 C 
ATOM      9  N   UNL d   1      27.808  15.927 -23.010  0.00  0.00    -0.191 NA
ATOM     10  C   UNL d   1      31.940  15.477 -22.946  0.00  0.00     0.002 A 
ATOM     11  C   UNL d   1      32.399  15.581 -23.627  0.00  0.00     0.042 A 
ATOM     12  C   UNL d   1      32.034  15.777 -24.329  0.00  0.00     0.019 A 
ATOM     13  O   UNL d   1      30.837  16.068 -25.064  0.00  0.00    -0.287 OA
ATOM     14  N   UNL d   1      29.363  15.453 -21.628  0.00  0.00    -0.120 N 
ATOM     15  C   UNL d   1      32.997  15.641 -24.177  0.00  0.00     0.009 C 
ATOM     16  C   UNL d   1      33.173  15.453 -23.420  0.00  0.00     0.009 C 
ENDROOT
BRANCH   5  17
ATOM     17  C   UNL d   1      29.570  16.054 -24.408  0.00  0.00     0.001 C 
BRANCH  17  18
ATOM     18  C   UNL d   1      29.438  16.839 -24.600  0.00  0.00     0.000 A 
ATOM     19  C   UNL d   1      28.658  17.137 -24.629  0.00  0.00     0.000 A 
ATOM     20  C   UNL d   1      28.528  17.943 -24.826  0.00  0.00     0.000 A 
ATOM     21  C   UNL d   1      29.140  18.426 -24.985  0.00  0.00     0.000 A 
ATOM     22  C   UNL d   1      29.929  18.141 -24.960  0.00  0.00     0.000 A 
ATOM     23  C   UNL d   1      30.080  17.346 -24.767  0.00  0.00     0.000 A 
ENDBRANCH  17  18
ENDBRANCH   5  17
TORSDOF 2
ENDMDL
MODEL 5
REMARK VINA RESULT:       0.1      2.035      3.964
REMARK  2 active torsions:
REMARK  status: ('A' for Active; 'I' for Inactive)
REMARK    1  A    between atoms: C_13  and  C_5 
REMARK    2  A    between atoms: C_16  and  C_13 
ROOT
ATOM      1  C   UNL d   1      29.963  17.877 -24.982  0.00  0.00     0.111 A 
ATOM      2  C   UNL d   1      30.888  16.793 -25.011  0.00  0.00     0.062 A 
ATOM      3  C   UNL d   1      30.582  18.405 -24.935  0.00  0.00     0.213 A 
ATOM      4  C   UNL d   1      31.507  17.320 -24.965  0.00  0.00     0.101 A 
ATOM      5  C   UNL d   1      30.113  17.077 -25.020  0.00  0.00     0.018 A 
ATOM      6  O   UNL d   1      31.349  18.129 -24.927  0.00  0.00    -0.288 OA
ATOM      7  C   UNL d   1      31.038  15.992 -25.049  0.00  0.00     0.194 A 
ATOM      8  C   UNL d   1      29.172  18.204 -24.989  0.00  0.00     0.105 C 
ATOM      9  N   UNL d   1      28.383  18.505 -24.997  0.00  0.00    -0.191 NA
ATOM     10  C   UNL d   1      32.274  17.044 -24.956  0.00  0.00     0.002 A 
ATOM     11  C   UNL d   1      32.435  16.233 -24.994  0.00  0.00     0.042 A 
ATOM     12  C   UNL d   1      31.815  15.706 -25.040  0.00  0.00     0.019 A 
ATOM     13  O   UNL d   1      30.404  15.453 -25.097  0.00  0.00    -0.287 OA
ATOM     14  N   UNL d   1      30.385  19.236 -24.898  0.00  0.00    -0.120 N 
ATOM     15  C   UNL d   1      32.776  15.494 -25.022  0.00  0.00     0.009 C 
ATOM     16  C   UNL d   1      33.241  16.143 -24.974  0.00  0.00     0.009 C 
ENDROOT
BRANCH   5  17
ATOM     17  C   UNL d   1      29.478  16.537 -25.068  0.00  0.00     0.001 C 
BRANCH  17  18
ATOM     18  C   UNL d   1      29.081  16.305 -24.390  0.00  0.00     0.000 A 
ATOM     19  C   UNL d   1      28.359  15.891 -24.450  0.00  0.00     0.000 A 
ATOM     20  C   UNL d   1      27.956  15.656 -23.751  0.00  0.00     0.000 A 
ATOM     21  C   UNL d   1      28.256  15.823 -23.033  0.00  0.00     0.000 A 
ATOM     22  C   UNL d   1      28.981  16.239 -22.958  0.00  0.00     0.000 A 
ATOM     23  C   UNL d   1      29.396  16.481 -23.637  0.00  0.00     0.000 A 
ENDBRANCH  17  18
ENDBRANCH   5  17
TORSDOF 2
ENDMDL
MODEL 6
REMARK VINA RESULT:       0.4      4.411      5.894
REMARK  2 active torsions:
REMARK  status: ('A' for Active; 'I' for Inactive)
REMARK    1  A    between atoms: C_13  and  C_5 
REMARK    2  A    between atoms: C_16  and  C_13 
ROOT
ATOM      1  C   UNL d   1      33.046  21.304 -21.522  0.00  0.00     0.111 A 
ATOM      2  C   UNL d   1      33.046  22.353 -22.488  0.00  0.00     0.062 A 
ATOM      3  C   UNL d   1      32.919  20.758 -22.114  0.00  0.00     0.213 A 
ATOM      4  C   UNL d   1      32.919  21.807 -23.080  0.00  0.00     0.101 A 
ATOM      5  C   UNL d   1      33.109  22.095 -21.706  0.00  0.00     0.018 A 
ATOM      6  O   UNL d   1      32.856  21.007 -22.887  0.00  0.00    -0.288 OA
ATOM      7  C   UNL d   1      33.109  23.144 -22.672  0.00  0.00     0.194 A 
ATOM      8  C   UNL d   1      33.108  21.005 -20.723  0.00  0.00     0.105 C 
ATOM      9  N   UNL d   1      33.171  20.732 -19.926  0.00  0.00    -0.191 NA
ATOM     10  C   UNL d   1      32.855  22.056 -23.853  0.00  0.00     0.002 A 
ATOM     11  C   UNL d   1      32.918  22.858 -24.048  0.00  0.00     0.042 A 
ATOM     12  C   UNL d   1      33.045  23.404 -23.456  0.00  0.00     0.019 A 
ATOM     13  O   UNL d   1      33.239  23.702 -22.066  0.00  0.00    -0.287 OA
ATOM     14  N   UNL d   1      32.859  19.938 -21.882  0.00  0.00    -0.120 N 
ATOM     15  C   UNL d   1      32.952  23.582 -24.419  0.00  0.00     0.009 C 
ATOM     16  C   UNL d   1      32.831  22.921 -24.852  0.00  0.00     0.009 C 
ENDROOT
BRANCH   5  17
ATOM     17  C   UNL d   1      33.240  22.654 -21.100  0.00  0.00     0.001 C 
BRANCH  17  18
ATOM     18  C   UNL d   1      32.608  22.966 -20.683  0.00  0.00     0.000 A 
ATOM     19  C   UNL d   1      32.705  23.196 -19.886  0.00  0.00     0.000 A 
ATOM     20  C   UNL d   1      32.053  23.516 -19.464  0.00  0.00     0.000 A 
ATOM     21  C   UNL d   1      31.344  23.602 -19.815  0.00  0.00     0.000 A 
ATOM     22  C   UNL d   1      31.232  23.375 -20.615  0.00  0.00     0.000 A 
ATOM     23  C   UNL d   1      31.864  23.056 -21.051  0.00  0.00     0.000 A 
ENDBRANCH  17  18
ENDBRANCH   5  17
TORSDOF 2
ENDMDL
