MODEL 1
REMARK VINA RESULT:       0.9      0.000      0.000
REMARK  7 active torsions:
REMARK  status: ('A' for Active; 'I' for Inactive)
REMARK    1  A    between atoms: C_12  and  N_1 
REMARK    2  A    between atoms: C_2  and  N_6 
REMARK    3  A    between atoms: C_9  and  C_5 
REMARK       I    between atoms: N_6  and  C_9 
REMARK    4  A    between atoms: S_15  and  C_7 
REMARK    5  A    between atoms: C_14  and  C_20 
REMARK       I    between atoms: N_21  and  C_14 
REMARK    6  A    between atoms: C_20  and  S_15 
REMARK    7  A    between atoms: O_22  and  C_18 
ROOT
ATOM      1  N   UNL d   1     -41.998-122.923 -49.293  0.00  0.00    -0.271 N 
ATOM      2  C   UNL d   1     -41.989-122.191 -49.533  0.00  0.00     0.265 A 
ATOM      3  C   UNL d   1     -41.701-122.920 -50.510  0.00  0.00     0.080 A 
ATOM      4  C   UNL d   1     -41.820-123.376 -49.898  0.00  0.00     0.088 A 
ATOM      5  C   UNL d   1     -41.805-122.182 -50.290  0.00  0.00     0.067 A 
ATOM      6  O   UNL d   1     -42.139-121.563 -49.093  0.00  0.00    -0.267 OA
ENDROOT
BRANCH   3   7
ATOM      7  C   UNL d   1     -41.511-123.150 -51.225  0.00  0.00     0.283 C 
ATOM      8  N   UNL d   1     -41.706-122.712 -51.836  0.00  0.00    -0.181 NA
ATOM      9  O   UNL d   1     -41.126-123.817 -51.331  0.00  0.00    -0.265 OA
BRANCH   8  10
ATOM     10  C   UNL d   1     -41.518-122.937 -52.554  0.00  0.00     0.219 A 
ATOM     11  S   UNL d   1     -41.516-122.490 -53.190  0.00  0.00    -0.019 SA
ATOM     12  C   UNL d   1     -41.297-122.923 -53.785  0.00  0.00     0.165 A 
ATOM     13  N   UNL d   1     -41.158-123.646 -53.535  0.00  0.00    -0.133 NA
ATOM     14  N   UNL d   1     -41.297-123.654 -52.760  0.00  0.00    -0.120 NA
BRANCH  12  15
ATOM     15  S   UNL d   1     -41.216-122.150 -55.310  0.00  0.00    -0.054 SA
BRANCH  15  16
ATOM     16  C   UNL d   1     -41.818-121.624 -55.544  0.00  0.00     0.100 C 
BRANCH  16  17
ATOM     17  C   UNL d   1     -42.516-121.920 -55.896  0.00  0.00     0.286 C 
ATOM     18  O   UNL d   1     -42.491-122.257 -56.665  0.00  0.00    -0.265 OA
ATOM     19  N   UNL d   1     -43.241-121.879 -55.478  0.00  0.00    -0.204 NA
ATOM     20  C   UNL d   1     -43.932-122.177 -55.838  0.00  0.00     0.123 C 
ENDBRANCH  16  17
ENDBRANCH  15  16
ENDBRANCH  12  15
ENDBRANCH   8  10
ENDBRANCH   3   7
BRANCH   1  21
ATOM     21  C   UNL d   1     -42.170-123.189 -48.516  0.00  0.00     0.089 A 
ATOM     22  C   UNL d   1     -42.906-123.552 -48.349  0.00  0.00     0.110 A 
ATOM     23  C   UNL d   1     -43.077-123.813 -47.588  0.00  0.00     0.026 A 
ATOM     24  C   UNL d   1     -42.509-123.714 -46.980  0.00  0.00     0.002 A 
ATOM     25  C   UNL d   1     -41.781-123.358 -47.134  0.00  0.00     0.002 A 
ATOM     26  C   UNL d   1     -41.602-123.089 -47.911  0.00  0.00     0.020 A 
BRANCH  22  27
ATOM     27  O   UNL d   1     -43.463-123.646 -48.959  0.00  0.00    -0.327 OA
ATOM     28  C   UNL d   1     -44.257-123.817 -48.768  0.00  0.00     0.181 C 
ENDBRANCH  22  27
ENDBRANCH   1  21
TORSDOF 7
ENDMDL
