MODEL 1
REMARK VINA RESULT:      -2.6      0.000      0.000
REMARK  5 active torsions:
REMARK  status: ('A' for Active; 'I' for Inactive)
REMARK    1  A    between atoms: C_9  and  N_1 
REMARK    2  A    between atoms: C_10  and  C_2 
REMARK    3  A    between atoms: C_3  and  C_11 
REMARK    4  A    between atoms: O_14  and  C_9 
REMARK    5  A    between atoms: C_11  and  O_14 
ROOT
ATOM      1  C   UNL d   1     -41.649-122.575 -52.108  0.00  0.00     0.305 C 
ATOM      2  O   UNL d   1     -41.509-123.325 -52.431  0.00  0.00    -0.259 OA
ENDROOT
BRANCH   1   3
ATOM      3  C   UNL d   1     -41.476-121.902 -52.547  0.00  0.00     0.108 A 
ATOM      4  C   UNL d   1     -41.510-121.833 -53.370  0.00  0.00     0.116 A 
ATOM      5  N   UNL d   1     -41.295-121.072 -53.567  0.00  0.00    -0.126 NA
ATOM      6  O   UNL d   1     -41.126-120.663 -52.878  0.00  0.00    -0.211 OA
ATOM      7  C   UNL d   1     -41.239-121.180 -52.246  0.00  0.00     0.132 A 
ATOM      8  C   UNL d   1     -41.132-121.002 -51.445  0.00  0.00     0.029 C 
BRANCH   4   9
ATOM      9  C   UNL d   1     -41.725-122.430 -53.897  0.00  0.00     0.031 A 
ATOM     10  C   UNL d   1     -42.253-122.266 -54.504  0.00  0.00     0.059 A 
ATOM     11 CL   UNL d   1     -42.562-121.523 -54.587  0.00  0.00    -0.082 Cl
ATOM     12  C   UNL d   1     -42.464-122.859 -55.023  0.00  0.00     0.011 A 
ATOM     13  C   UNL d   1     -42.151-123.622 -54.942  0.00  0.00     0.001 A 
ATOM     14  C   UNL d   1     -41.624-123.787 -54.336  0.00  0.00     0.000 A 
ATOM     15  C   UNL d   1     -41.408-123.189 -53.809  0.00  0.00     0.002 A 
ENDBRANCH   4   9
ENDBRANCH   1   3
BRANCH   1  16
ATOM     16  O   UNL d   1     -41.962-122.505 -51.345  0.00  0.00    -0.252 OA
BRANCH  16  17
ATOM     17  C   UNL d   1     -42.316-123.160 -50.983  0.00  0.00     0.216 C 
BRANCH  17  18
ATOM     18  N   UNL d   1     -42.404-123.180 -50.161  0.00  0.00    -0.218 N 
ATOM     19  C   UNL d   1     -41.859-123.477 -49.626  0.00  0.00     0.269 A 
ATOM     20  C   UNL d   1     -42.169-123.387 -48.864  0.00  0.00     0.061 A 
ATOM     21  O   UNL d   1     -41.123-123.811 -49.812  0.00  0.00    -0.267 OA
ATOM     22  C   UNL d   1     -41.877-123.580 -48.118  0.00  0.00     0.005 A 
ATOM     23  C   UNL d   1     -42.911-123.031 -48.935  0.00  0.00     0.061 A 
ATOM     24  C   UNL d   1     -42.321-123.420 -47.448  0.00  0.00     0.000 A 
ATOM     25  C   UNL d   1     -43.062-123.063 -47.520  0.00  0.00     0.000 A 
ATOM     26  C   UNL d   1     -43.362-122.867 -48.261  0.00  0.00     0.005 A 
ATOM     27  C   UNL d   1     -43.063-122.899 -49.742  0.00  0.00     0.269 A 
ATOM     28  O   UNL d   1     -43.737-122.557 -50.063  0.00  0.00    -0.267 OA
ENDBRANCH  17  18
ENDBRANCH  16  17
ENDBRANCH   1  16
TORSDOF 5
ENDMDL
