MODEL 1
REMARK VINA RESULT:      27.1      0.000      0.000
REMARK  5 active torsions:
REMARK  status: ('A' for Active; 'I' for Inactive)
REMARK    1  A    between atoms: C_7  and  C_1 
REMARK    2  A    between atoms: O_13  and  C_7 
REMARK    3  A    between atoms: C_15  and  C_9 
REMARK    4  A    between atoms: C_11  and  C_15 
REMARK    5  A    between atoms: C_18  and  O_13 
ROOT
ATOM      1  C   UNL d   1     -50.940  26.073  33.707  0.00  0.00     0.127 A 
ATOM      2  C   UNL d   1     -51.745  26.059  33.723  0.00  0.00     0.305 A 
ATOM      3  O   UNL d   1     -52.169  25.333  33.638  0.00  0.00    -0.273 OA
ATOM      4  C   UNL d   1     -50.494  25.363  33.606  0.00  0.00     0.013 A 
ATOM      5  C   UNL d   1     -51.750  24.621  33.537  0.00  0.00     0.103 A 
ATOM      6  C   UNL d   1     -50.896  24.637  33.521  0.00  0.00     0.023 A 
ATOM      7  O   UNL d   1     -52.169  26.786  33.826  0.00  0.00    -0.259 OA
ATOM      8  C   UNL d   1     -52.146  23.906  33.453  0.00  0.00     0.023 A 
ATOM      9  C   UNL d   1     -50.472  23.936  33.421  0.00  0.00     0.002 A 
ATOM     10  C   UNL d   1     -50.896  23.209  33.336  0.00  0.00     0.000 A 
ATOM     11  C   UNL d   1     -51.701  23.195  33.351  0.00  0.00     0.002 A 
ENDROOT
BRANCH   1  12
ATOM     12  C   UNL d   1     -50.596  26.809  33.795  0.00  0.00     0.305 C 
ATOM     13  O   UNL d   1     -50.852  27.453  33.321  0.00  0.00    -0.259 OA
BRANCH  12  14
ATOM     14  O   UNL d   1     -49.987  26.963  34.347  0.00  0.00    -0.271 OA
BRANCH  14  15
ATOM     15  C   UNL d   1     -49.688  27.746  34.441  0.00  0.00     0.126 C 
ATOM     16  C   UNL d   1     -49.243  28.075  33.833  0.00  0.00     0.029 C 
ENDBRANCH  14  15
ENDBRANCH  12  14
ENDBRANCH   1  12
BRANCH   8  17
ATOM     17  C   UNL d   1     -52.967  23.891  33.468  0.00  0.00     0.002 C 
BRANCH  17  18
ATOM     18  C   UNL d   1     -53.368  23.279  33.876  0.00  0.00     0.000 C 
ATOM     19  C   UNL d   1     -54.182  23.201  33.803  0.00  0.00     0.000 C 
ENDBRANCH  17  18
ENDBRANCH   8  17
TORSDOF 5
ENDMDL
