MODEL 1
REMARK VINA RESULT:      55.7      0.000      0.000
REMARK  5 active torsions:
REMARK  status: ('A' for Active; 'I' for Inactive)
REMARK    1  A    between atoms: N_2  and  S_1 
REMARK    2  A    between atoms: C_5  and  S_1 
REMARK    3  A    between atoms: S_8  and  C_3 
REMARK    4  A    between atoms: C_13  and  S_8 
REMARK    5  A    between atoms: C_15  and  C_13 
ROOT
ATOM      1  N   UNL d   1     -50.679  26.153  33.509  0.00  0.00    -0.208 N 
ATOM      2  C   UNL d   1     -51.024  25.399  33.451  0.00  0.00     0.189 A 
ATOM      3  N   UNL d   1     -50.416  24.842  33.372  0.00  0.00    -0.219 NA
ATOM      4  C   UNL d   1     -49.853  26.059  33.466  0.00  0.00     0.114 A 
ATOM      5  C   UNL d   1     -49.697  25.253  33.381  0.00  0.00     0.121 A 
ENDROOT
BRANCH   1   6
ATOM      6  S   UNL d   1     -51.088  26.868  33.596  0.00  0.00     0.273 S 
ATOM      7  O   UNL d   1     -51.687  27.440  33.592  0.00  0.00    -0.200 OA
ATOM      8  O   UNL d   1     -51.752  26.481  33.312  0.00  0.00    -0.200 OA
BRANCH   6   9
ATOM      9  C   UNL d   1     -50.430  27.276  33.884  0.00  0.00     0.104 A 
ATOM     10  C   UNL d   1     -50.055  27.824  33.405  0.00  0.00     0.015 A 
ATOM     11  C   UNL d   1     -49.399  28.229  33.693  0.00  0.00     0.030 A 
ATOM     12  C   UNL d   1     -49.125  28.081  34.459  0.00  0.00     0.140 A 
ATOM     13  C   UNL d   1     -49.504  27.530  34.938  0.00  0.00     0.030 A 
ATOM     14  F   UNL d   1     -48.467  28.488  34.748  0.00  0.00    -0.204 F 
ATOM     15  C   UNL d   1     -50.163  27.124  34.646  0.00  0.00     0.015 A 
ENDBRANCH   6   9
ENDBRANCH   1   6
BRANCH   2  16
ATOM     16  S   UNL d   1     -51.840  25.233  33.469  0.00  0.00    -0.049 SA
BRANCH  16  17
ATOM     17  C   UNL d   1     -52.107  24.469  33.306  0.00  0.00     0.038 C 
BRANCH  17  18
ATOM     18  C   UNL d   1     -52.730  24.146  33.753  0.00  0.00     0.007 A 
ATOM     19  C   UNL d   1     -53.520  24.275  33.529  0.00  0.00     0.001 A 
ATOM     20  C   UNL d   1     -54.137  23.959  33.967  0.00  0.00     0.000 A 
ATOM     21  C   UNL d   1     -53.971  23.509  34.637  0.00  0.00     0.000 A 
ATOM     22  C   UNL d   1     -53.184  23.378  34.863  0.00  0.00     0.000 A 
ATOM     23  C   UNL d   1     -54.586  23.188  35.081  0.00  0.00     0.000 C 
ATOM     24  C   UNL d   1     -52.567  23.697  34.422  0.00  0.00     0.001 A 
ENDBRANCH  17  18
ENDBRANCH  16  17
ENDBRANCH   2  16
TORSDOF 5
ENDMDL
MODEL 2
REMARK VINA RESULT:      57.5      1.791      4.775
REMARK  5 active torsions:
REMARK  status: ('A' for Active; 'I' for Inactive)
REMARK    1  A    between atoms: N_2  and  S_1 
REMARK    2  A    between atoms: C_5  and  S_1 
REMARK    3  A    between atoms: S_8  and  C_3 
REMARK    4  A    between atoms: C_13  and  S_8 
REMARK    5  A    between atoms: C_15  and  C_13 
ROOT
ATOM      1  N   UNL d   1     -50.602  26.050  33.475  0.00  0.00    -0.208 N 
ATOM      2  C   UNL d   1     -49.872  26.405  33.657  0.00  0.00     0.189 A 
ATOM      3  N   UNL d   1     -49.284  25.825  33.611  0.00  0.00    -0.219 NA
ATOM      4  C   UNL d   1     -50.461  25.246  33.316  0.00  0.00     0.114 A 
ATOM      5  C   UNL d   1     -49.651  25.112  33.400  0.00  0.00     0.121 A 
ENDROOT
BRANCH   1   6
ATOM      6  S   UNL d   1     -51.336  26.433  33.458  0.00  0.00     0.273 S 
ATOM      7  O   UNL d   1     -51.920  27.021  33.444  0.00  0.00    -0.200 OA
ATOM      8  O   UNL d   1     -50.926  27.143  33.468  0.00  0.00    -0.200 OA
BRANCH   6   9
ATOM      9  C   UNL d   1     -51.768  25.728  33.447  0.00  0.00     0.104 A 
ATOM     10  C   UNL d   1     -51.378  25.017  33.559  0.00  0.00     0.015 A 
ATOM     11  C   UNL d   1     -51.808  24.316  33.548  0.00  0.00     0.030 A 
ATOM     12  C   UNL d   1     -52.626  24.334  33.424  0.00  0.00     0.140 A 
ATOM     13  C   UNL d   1     -53.014  25.050  33.311  0.00  0.00     0.030 A 
ATOM     14  F   UNL d   1     -53.058  23.630  33.413  0.00  0.00    -0.204 F 
ATOM     15  C   UNL d   1     -52.579  25.754  33.323  0.00  0.00     0.015 A 
ENDBRANCH   6   9
ENDBRANCH   1   6
BRANCH   2  16
ATOM     16  S   UNL d   1     -49.755  27.206  33.853  0.00  0.00    -0.049 SA
BRANCH  16  17
ATOM     17  C   UNL d   1     -48.995  27.529  33.822  0.00  0.00     0.038 C 
BRANCH  17  18
ATOM     18  C   UNL d   1     -48.743  28.046  34.423  0.00  0.00     0.007 A 
ATOM     19  C   UNL d   1     -48.393  28.775  34.231  0.00  0.00     0.001 A 
ATOM     20  C   UNL d   1     -48.143  29.288  34.820  0.00  0.00     0.000 A 
ATOM     21  C   UNL d   1     -48.240  29.076  35.611  0.00  0.00     0.000 A 
ATOM     22  C   UNL d   1     -48.589  28.350  35.806  0.00  0.00     0.000 A 
ATOM     23  C   UNL d   1     -47.991  29.586  36.208  0.00  0.00     0.000 C 
ATOM     24  C   UNL d   1     -48.839  27.838  35.212  0.00  0.00     0.001 A 
ENDBRANCH  17  18
ENDBRANCH  16  17
ENDBRANCH   2  16
TORSDOF 5
ENDMDL
