MODEL 1
REMARK VINA RESULT:      22.6      0.000      0.000
REMARK  5 active torsions:
REMARK  status: ('A' for Active; 'I' for Inactive)
REMARK    1  A    between atoms: C_3  and  S_1 
REMARK    2  A    between atoms: C_7  and  S_1 
REMARK    3  A    between atoms: C_2  and  C_3 
REMARK    4  A    between atoms: C_9  and  C_3 
REMARK    5  A    between atoms: N_8  and  C_4 
ROOT
ATOM      1  C   UNL d   1     -42.770-122.616 -50.969  0.00  0.00     0.128 A 
ATOM      2  C   UNL d   1     -43.287-122.069 -51.290  0.00  0.00     0.166 A 
ATOM      3  N   UNL d   1     -42.094-122.850 -51.387  0.00  0.00    -0.240 NA
ATOM      4  N   UNL d   1     -43.134-121.745 -52.040  0.00  0.00    -0.225 NA
ATOM      5  C   UNL d   1     -41.947-122.527 -52.128  0.00  0.00     0.099 A 
ATOM      6  C   UNL d   1     -42.462-121.979 -52.452  0.00  0.00     0.101 A 
ATOM      7  C   UNL d   1     -42.303-121.661 -53.200  0.00  0.00     0.021 A 
ATOM      8  C   UNL d   1     -41.275-122.761 -52.540  0.00  0.00     0.021 A 
ATOM      9  C   UNL d   1     -41.636-121.890 -53.614  0.00  0.00     0.002 A 
ATOM     10  C   UNL d   1     -41.124-122.440 -53.282  0.00  0.00     0.002 A 
ENDROOT
BRANCH   1  11
ATOM     11  C   UNL d   1     -42.916-122.940 -50.229  0.00  0.00     0.129 C 
BRANCH  11  12
ATOM     12  S   UNL d   1     -42.219-123.240 -49.750  0.00  0.00     0.213 S 
ATOM     13  O   UNL d   1     -41.675-123.816 -50.144  0.00  0.00    -0.217 OA
ATOM     14  O   UNL d   1     -42.166-123.610 -50.495  0.00  0.00    -0.217 OA
BRANCH  12  15
ATOM     15  C   UNL d   1     -41.963-123.086 -48.977  0.00  0.00     0.088 A 
ATOM     16  C   UNL d   1     -41.410-122.477 -48.846  0.00  0.00     0.011 A 
ATOM     17  C   UNL d   1     -41.148-122.316 -48.074  0.00  0.00     0.001 A 
ATOM     18  C   UNL d   1     -41.122-122.036 -49.476  0.00  0.00     0.001 C 
ATOM     19  C   UNL d   1     -41.442-122.765 -47.439  0.00  0.00     0.000 A 
ATOM     20  C   UNL d   1     -41.995-123.371 -47.578  0.00  0.00     0.001 A 
ATOM     21  C   UNL d   1     -42.251-123.526 -48.347  0.00  0.00     0.011 A 
ATOM     22  C   UNL d   1     -42.282-123.812 -46.947  0.00  0.00     0.000 C 
ENDBRANCH  12  15
ENDBRANCH  11  12
BRANCH  11  23
ATOM     23  C   UNL d   1     -43.664-123.046 -49.810  0.00  0.00     0.135 C 
ATOM     24  N   UNL d   1     -44.073-123.814 -49.603  0.00  0.00    -0.146 N 
ENDBRANCH  11  23
ENDBRANCH   1  11
BRANCH   2  25
ATOM     25  N   UNL d   1     -43.966-121.836 -50.868  0.00  0.00    -0.284 N 
ATOM     26  C   UNL d   1     -43.903-121.281 -50.249  0.00  0.00     0.108 A 
ATOM     27  C   UNL d   1     -44.582-121.052 -49.833  0.00  0.00     0.142 A 
ATOM     28  O   UNL d   1     -45.324-121.369 -50.024  0.00  0.00    -0.300 OA
ATOM     29  C   UNL d   1     -45.387-121.924 -50.643  0.00  0.00     0.142 A 
ATOM     30  C   UNL d   1     -44.709-122.163 -51.072  0.00  0.00     0.108 A 
ENDBRANCH   2  25
TORSDOF 5
ENDMDL
MODEL 2
REMARK VINA RESULT:      24.7      1.908      4.251
REMARK  5 active torsions:
REMARK  status: ('A' for Active; 'I' for Inactive)
REMARK    1  A    between atoms: C_3  and  S_1 
REMARK    2  A    between atoms: C_7  and  S_1 
REMARK    3  A    between atoms: C_2  and  C_3 
REMARK    4  A    between atoms: C_9  and  C_3 
REMARK    5  A    between atoms: N_8  and  C_4 
ROOT
ATOM      1  C   UNL d   1     -42.020-121.719 -51.979  0.00  0.00     0.128 A 
ATOM      2  C   UNL d   1     -41.883-121.708 -51.173  0.00  0.00     0.166 A 
ATOM      3  N   UNL d   1     -41.900-121.038 -52.436  0.00  0.00    -0.240 NA
ATOM      4  N   UNL d   1     -41.620-121.008 -50.808  0.00  0.00    -0.225 NA
ATOM      5  C   UNL d   1     -41.641-120.350 -52.070  0.00  0.00     0.099 A 
ATOM      6  C   UNL d   1     -41.503-120.335 -51.264  0.00  0.00     0.101 A 
ATOM      7  C   UNL d   1     -41.242-119.634 -50.906  0.00  0.00     0.021 A 
ATOM      8  C   UNL d   1     -41.523-119.676 -52.525  0.00  0.00     0.021 A 
ATOM      9  C   UNL d   1     -41.122-118.960 -51.354  0.00  0.00     0.002 A 
ATOM     10  C   UNL d   1     -41.264-118.984 -52.163  0.00  0.00     0.002 A 
ENDROOT
BRANCH   1  11
ATOM     11  C   UNL d   1     -42.279-122.408 -52.345  0.00  0.00     0.129 C 
BRANCH  11  12
ATOM     12  S   UNL d   1     -41.839-122.694 -53.073  0.00  0.00     0.213 S 
ATOM     13  O   UNL d   1     -41.123-123.198 -52.942  0.00  0.00    -0.217 OA
ATOM     14  O   UNL d   1     -41.426-123.001 -52.417  0.00  0.00    -0.217 OA
BRANCH  12  15
ATOM     15  C   UNL d   1     -41.966-122.583 -53.885  0.00  0.00     0.088 A 
ATOM     16  C   UNL d   1     -41.683-123.151 -54.423  0.00  0.00     0.011 A 
ATOM     17  C   UNL d   1     -41.807-123.047 -55.238  0.00  0.00     0.001 A 
ATOM     18  C   UNL d   1     -41.281-123.814 -54.151  0.00  0.00     0.001 C 
ATOM     19  C   UNL d   1     -42.213-122.374 -55.507  0.00  0.00     0.000 A 
ATOM     20  C   UNL d   1     -42.494-121.811 -54.963  0.00  0.00     0.001 A 
ATOM     21  C   UNL d   1     -42.368-121.920 -54.156  0.00  0.00     0.011 A 
ATOM     22  C   UNL d   1     -42.896-121.147 -55.235  0.00  0.00     0.000 C 
ENDBRANCH  12  15
ENDBRANCH  11  12
BRANCH  11  23
ATOM     23  C   UNL d   1     -42.935-122.930 -52.140  0.00  0.00     0.135 C 
ATOM     24  N   UNL d   1     -43.718-123.021 -52.564  0.00  0.00    -0.146 N 
ENDBRANCH  11  23
ENDBRANCH   1  11
BRANCH   2  25
ATOM     25  N   UNL d   1     -42.004-122.394 -50.717  0.00  0.00    -0.284 N 
ATOM     26  C   UNL d   1     -41.372-122.921 -50.579  0.00  0.00     0.108 A 
ATOM     27  C   UNL d   1     -41.499-123.602 -50.124  0.00  0.00     0.142 A 
ATOM     28  O   UNL d   1     -42.246-123.766 -49.804  0.00  0.00    -0.300 OA
ATOM     29  C   UNL d   1     -42.877-123.239 -49.942  0.00  0.00     0.142 A 
ATOM     30  C   UNL d   1     -42.763-122.547 -50.400  0.00  0.00     0.108 A 
ENDBRANCH   2  25
TORSDOF 5
ENDMDL
