MODEL 1
REMARK VINA RESULT:      -6.8      0.000      0.000
REMARK  7 active torsions:
REMARK  status: ('A' for Active; 'I' for Inactive)
REMARK    1  A    between atoms: C_2  and  S_1 
REMARK    2  A    between atoms: N_5  and  S_1 
REMARK    3  A    between atoms: C_3  and  C_7 
REMARK       I    between atoms: N_8  and  C_3 
REMARK    4  A    between atoms: C_16  and  N_5 
REMARK    5  A    between atoms: C_21  and  N_8 
REMARK    6  A    between atoms: C_15  and  C_16 
REMARK    7  A    between atoms: C_30  and  C_23 
ROOT
ATOM      1  C   UNL d   1     -46.897  13.132  22.975  0.00  0.00     0.133 A 
ATOM      2  C   UNL d   1     -47.193  12.375  22.970  0.00  0.00     0.020 A 
ATOM      3  C   UNL d   1     -47.947  12.228  23.270  0.00  0.00     0.059 A 
ATOM      4  C   UNL d   1     -47.348  13.754  23.278  0.00  0.00     0.152 A 
ATOM      5  C   UNL d   1     -48.398  12.849  23.573  0.00  0.00     0.007 A 
ATOM      6  C   UNL d   1     -48.090  13.613  23.574  0.00  0.00     0.030 A 
ATOM      7  F   UNL d   1     -47.035  14.538  23.280  0.00  0.00    -0.203 F 
ENDROOT
BRANCH   1   8
ATOM      8  S   UNL d   1     -46.120  13.275  22.665  0.00  0.00     0.288 S 
ATOM      9  O   UNL d   1     -46.445  13.382  21.915  0.00  0.00    -0.198 OA
ATOM     10  O   UNL d   1     -45.812  13.162  23.436  0.00  0.00    -0.198 OA
BRANCH   8  11
ATOM     11  N   UNL d   1     -45.370  13.409  22.388  0.00  0.00    -0.155 NA
BRANCH  11  12
ATOM     12  C   UNL d   1     -45.036  12.921  21.810  0.00  0.00     0.139 C 
BRANCH  12  13
ATOM     13  C   UNL d   1     -44.212  12.948  21.684  0.00  0.00     0.145 A 
ATOM     14  O   UNL d   1     -43.846  13.638  21.431  0.00  0.00    -0.301 OA
ATOM     15  C   UNL d   1     -43.028  13.652  21.309  0.00  0.00     0.123 A 
ATOM     16  C   UNL d   1     -42.660  14.348  21.055  0.00  0.00     0.027 A 
ATOM     17  C   UNL d   1     -42.581  12.971  21.442  0.00  0.00     0.123 A 
ATOM     18  C   UNL d   1     -41.844  14.362  20.934  0.00  0.00     0.002 A 
ATOM     19  C   UNL d   1     -41.395  13.681  21.066  0.00  0.00     0.002 A 
ATOM     20  C   UNL d   1     -41.763  12.986  21.320  0.00  0.00     0.027 A 
ATOM     21  O   UNL d   1     -42.947  12.281  21.694  0.00  0.00    -0.301 OA
ATOM     22  C   UNL d   1     -43.761  12.270  21.814  0.00  0.00     0.149 A 
ENDBRANCH  12  13
ENDBRANCH  11  12
ENDBRANCH   8  11
ENDBRANCH   1   8
BRANCH   3  23
ATOM     23  C   UNL d   1     -48.260  11.455  23.270  0.00  0.00     0.279 C 
ATOM     24  N   UNL d   1     -48.945  11.279  22.845  0.00  0.00    -0.208 NA
ATOM     25  O   UNL d   1     -47.883  10.867  23.697  0.00  0.00    -0.265 OA
BRANCH  24  26
ATOM     26  C   UNL d   1     -49.325  11.872  22.415  0.00  0.00     0.085 A 
ATOM     27  C   UNL d   1     -49.114  11.996  21.632  0.00  0.00     0.019 A 
ATOM     28  C   UNL d   1     -49.497  12.594  21.198  0.00  0.00     0.002 A 
ATOM     29  C   UNL d   1     -50.083  13.054  21.556  0.00  0.00     0.000 A 
ATOM     30  C   UNL d   1     -50.283  12.918  22.338  0.00  0.00     0.002 A 
ATOM     31  C   UNL d   1     -49.900  12.320  22.772  0.00  0.00     0.019 A 
BRANCH  29  32
ATOM     32  C   UNL d   1     -50.463  13.644  21.133  0.00  0.00     0.000 C 
ATOM     33  C   UNL d   1     -51.049  14.099  21.495  0.00  0.00     0.000 C 
ENDBRANCH  29  32
ENDBRANCH  24  26
ENDBRANCH   3  23
TORSDOF 7
ENDMDL
MODEL 2
REMARK VINA RESULT:      -6.2      3.286      7.549
REMARK  7 active torsions:
REMARK  status: ('A' for Active; 'I' for Inactive)
REMARK    1  A    between atoms: C_2  and  S_1 
REMARK    2  A    between atoms: N_5  and  S_1 
REMARK    3  A    between atoms: C_3  and  C_7 
REMARK       I    between atoms: N_8  and  C_3 
REMARK    4  A    between atoms: C_16  and  N_5 
REMARK    5  A    between atoms: C_21  and  N_8 
REMARK    6  A    between atoms: C_15  and  C_16 
REMARK    7  A    between atoms: C_30  and  C_23 
ROOT
ATOM      1  C   UNL d   1     -40.804  14.590  20.694  0.00  0.00     0.133 A 
ATOM      2  C   UNL d   1     -40.266  14.160  20.262  0.00  0.00     0.020 A 
ATOM      3  C   UNL d   1     -39.643  14.545  19.881  0.00  0.00     0.059 A 
ATOM      4  C   UNL d   1     -40.731  15.410  20.752  0.00  0.00     0.152 A 
ATOM      5  C   UNL d   1     -39.570  15.365  19.940  0.00  0.00     0.007 A 
ATOM      6  C   UNL d   1     -40.121  15.793  20.380  0.00  0.00     0.030 A 
ATOM      7  F   UNL d   1     -41.293  15.852  21.202  0.00  0.00    -0.203 F 
ENDROOT
BRANCH   1   8
ATOM      8  S   UNL d   1     -41.441  14.185  21.082  0.00  0.00     0.288 S 
ATOM      9  O   UNL d   1     -41.973  14.529  20.555  0.00  0.00    -0.198 OA
ATOM     10  O   UNL d   1     -40.881  13.848  21.607  0.00  0.00    -0.198 OA
BRANCH   8  11
ATOM     11  N   UNL d   1     -42.036  13.790  21.467  0.00  0.00    -0.155 NA
BRANCH  11  12
ATOM     12  C   UNL d   1     -42.549  13.289  21.056  0.00  0.00     0.139 C 
BRANCH  12  13
ATOM     13  C   UNL d   1     -43.174  12.924  21.469  0.00  0.00     0.145 A 
ATOM     14  O   UNL d   1     -43.899  13.300  21.557  0.00  0.00    -0.301 OA
ATOM     15  C   UNL d   1     -44.511  12.927  21.969  0.00  0.00     0.123 A 
ATOM     16  C   UNL d   1     -45.241  13.306  22.058  0.00  0.00     0.027 A 
ATOM     17  C   UNL d   1     -44.393  12.176  22.290  0.00  0.00     0.123 A 
ATOM     18  C   UNL d   1     -45.852  12.934  22.469  0.00  0.00     0.002 A 
ATOM     19  C   UNL d   1     -45.735  12.182  22.791  0.00  0.00     0.002 A 
ATOM     20  C   UNL d   1     -45.006  11.803  22.702  0.00  0.00     0.027 A 
ATOM     21  O   UNL d   1     -43.669  11.800  22.202  0.00  0.00    -0.301 OA
ATOM     22  C   UNL d   1     -43.061  12.173  21.792  0.00  0.00     0.149 A 
ENDBRANCH  12  13
ENDBRANCH  11  12
ENDBRANCH   8  11
ENDBRANCH   1   8
BRANCH   3  23
ATOM     23  C   UNL d   1     -39.086  14.114  19.437  0.00  0.00     0.279 C 
ATOM     24  N   UNL d   1     -39.103  14.131  18.611  0.00  0.00    -0.208 NA
ATOM     25  O   UNL d   1     -38.517  13.670  19.823  0.00  0.00    -0.265 OA
BRANCH  24  26
ATOM     26  C   UNL d   1     -39.677  14.578  18.222  0.00  0.00     0.085 A 
ATOM     27  C   UNL d   1     -40.366  14.212  17.970  0.00  0.00     0.019 A 
ATOM     28  C   UNL d   1     -40.945  14.663  17.577  0.00  0.00     0.002 A 
ATOM     29  C   UNL d   1     -40.821  15.470  17.444  0.00  0.00     0.000 A 
ATOM     30  C   UNL d   1     -40.127  15.820  17.701  0.00  0.00     0.002 A 
ATOM     31  C   UNL d   1     -39.549  15.369  18.094  0.00  0.00     0.019 A 
BRANCH  29  32
ATOM     32  C   UNL d   1     -41.387  15.918  17.058  0.00  0.00     0.000 C 
ATOM     33  C   UNL d   1     -41.419  15.921  16.233  0.00  0.00     0.000 C 
ENDBRANCH  29  32
ENDBRANCH  24  26
ENDBRANCH   3  23
TORSDOF 7
ENDMDL
MODEL 3
REMARK VINA RESULT:      -5.6      3.021      7.869
REMARK  7 active torsions:
REMARK  status: ('A' for Active; 'I' for Inactive)
REMARK    1  A    between atoms: C_2  and  S_1 
REMARK    2  A    between atoms: N_5  and  S_1 
REMARK    3  A    between atoms: C_3  and  C_7 
REMARK       I    between atoms: N_8  and  C_3 
REMARK    4  A    between atoms: C_16  and  N_5 
REMARK    5  A    between atoms: C_21  and  N_8 
REMARK    6  A    between atoms: C_15  and  C_16 
REMARK    7  A    between atoms: C_30  and  C_23 
ROOT
ATOM      1  C   UNL d   1     -41.262  14.388  20.523  0.00  0.00     0.133 A 
ATOM      2  C   UNL d   1     -40.712  14.013  20.058  0.00  0.00     0.020 A 
ATOM      3  C   UNL d   1     -40.173  14.459  19.620  0.00  0.00     0.059 A 
ATOM      4  C   UNL d   1     -41.284  15.212  20.561  0.00  0.00     0.152 A 
ATOM      5  C   UNL d   1     -40.195  15.283  19.658  0.00  0.00     0.007 A 
ATOM      6  C   UNL d   1     -40.756  15.654  20.133  0.00  0.00     0.030 A 
ATOM      7  F   UNL d   1     -41.858  15.596  21.047  0.00  0.00    -0.203 F 
ENDROOT
BRANCH   1   8
ATOM      8  S   UNL d   1     -41.813  13.921  20.970  0.00  0.00     0.288 S 
ATOM      9  O   UNL d   1     -42.020  13.518  20.282  0.00  0.00    -0.198 OA
ATOM     10  O   UNL d   1     -41.587  14.346  21.657  0.00  0.00    -0.198 OA
BRANCH   8  11
ATOM     11  N   UNL d   1     -42.334  13.486  21.414  0.00  0.00    -0.155 NA
BRANCH  11  12
ATOM     12  C   UNL d   1     -42.985  13.116  21.065  0.00  0.00     0.139 C 
BRANCH  12  13
ATOM     13  C   UNL d   1     -43.611  12.856  21.551  0.00  0.00     0.145 A 
ATOM     14  O   UNL d   1     -44.301  13.295  21.622  0.00  0.00    -0.301 OA
ATOM     15  C   UNL d   1     -44.915  13.027  22.107  0.00  0.00     0.123 A 
ATOM     16  C   UNL d   1     -45.610  13.470  22.178  0.00  0.00     0.027 A 
ATOM     17  C   UNL d   1     -44.832  12.316  22.518  0.00  0.00     0.123 A 
ATOM     18  C   UNL d   1     -46.222  13.202  22.662  0.00  0.00     0.002 A 
ATOM     19  C   UNL d   1     -46.141  12.491  23.075  0.00  0.00     0.002 A 
ATOM     20  C   UNL d   1     -45.446  12.048  23.003  0.00  0.00     0.027 A 
ATOM     21  O   UNL d   1     -44.143  11.877  22.447  0.00  0.00    -0.301 OA
ATOM     22  C   UNL d   1     -43.534  12.147  21.964  0.00  0.00     0.149 A 
ENDBRANCH  12  13
ENDBRANCH  11  12
ENDBRANCH   8  11
ENDBRANCH   1   8
BRANCH   3  23
ATOM     23  C   UNL d   1     -39.604  14.085  19.139  0.00  0.00     0.279 C 
ATOM     24  N   UNL d   1     -38.823  14.005  19.395  0.00  0.00    -0.208 NA
ATOM     25  O   UNL d   1     -39.824  13.794  18.406  0.00  0.00    -0.265 OA
BRANCH  24  26
ATOM     26  C   UNL d   1     -38.602  14.298  20.134  0.00  0.00     0.085 A 
ATOM     27  C   UNL d   1     -38.584  13.790  20.777  0.00  0.00     0.019 A 
ATOM     28  C   UNL d   1     -38.360  14.085  21.522  0.00  0.00     0.002 A 
ATOM     29  C   UNL d   1     -38.160  14.883  21.608  0.00  0.00     0.000 A 
ATOM     30  C   UNL d   1     -38.183  15.378  20.956  0.00  0.00     0.002 A 
ATOM     31  C   UNL d   1     -38.407  15.082  20.211  0.00  0.00     0.019 A 
BRANCH  29  32
ATOM     32  C   UNL d   1     -37.940  15.179  22.339  0.00  0.00     0.000 C 
ATOM     33  C   UNL d   1     -38.391  15.005  23.008  0.00  0.00     0.000 C 
ENDBRANCH  29  32
ENDBRANCH  24  26
ENDBRANCH   3  23
TORSDOF 7
ENDMDL
MODEL 4
REMARK VINA RESULT:      -5.1      1.274      1.816
REMARK  7 active torsions:
REMARK  status: ('A' for Active; 'I' for Inactive)
REMARK    1  A    between atoms: C_2  and  S_1 
REMARK    2  A    between atoms: N_5  and  S_1 
REMARK    3  A    between atoms: C_3  and  C_7 
REMARK       I    between atoms: N_8  and  C_3 
REMARK    4  A    between atoms: C_16  and  N_5 
REMARK    5  A    between atoms: C_21  and  N_8 
REMARK    6  A    between atoms: C_15  and  C_16 
REMARK    7  A    between atoms: C_30  and  C_23 
ROOT
ATOM      1  C   UNL d   1     -46.328  13.379  22.828  0.00  0.00     0.133 A 
ATOM      2  C   UNL d   1     -46.659  14.065  22.545  0.00  0.00     0.020 A 
ATOM      3  C   UNL d   1     -47.387  14.319  22.838  0.00  0.00     0.059 A 
ATOM      4  C   UNL d   1     -46.715  12.936  23.407  0.00  0.00     0.152 A 
ATOM      5  C   UNL d   1     -47.775  13.877  23.417  0.00  0.00     0.007 A 
ATOM      6  C   UNL d   1     -47.431  13.183  23.698  0.00  0.00     0.030 A 
ATOM      7  F   UNL d   1     -46.365  12.225  23.697  0.00  0.00    -0.203 F 
ENDROOT
BRANCH   1   8
ATOM      8  S   UNL d   1     -45.578  13.124  22.521  0.00  0.00     0.288 S 
ATOM      9  O   UNL d   1     -45.954  12.865  21.835  0.00  0.00    -0.198 OA
ATOM     10  O   UNL d   1     -45.218  13.395  23.228  0.00  0.00    -0.198 OA
BRANCH   8  11
ATOM     11  N   UNL d   1     -44.853  12.888  22.245  0.00  0.00    -0.155 NA
BRANCH  11  12
ATOM     12  C   UNL d   1     -44.553  13.179  21.533  0.00  0.00     0.139 C 
BRANCH  12  13
ATOM     13  C   UNL d   1     -43.727  13.203  21.421  0.00  0.00     0.145 A 
ATOM     14  O   UNL d   1     -43.339  13.914  21.284  0.00  0.00    -0.301 OA
ATOM     15  C   UNL d   1     -42.519  13.924  21.175  0.00  0.00     0.123 A 
ATOM     16  C   UNL d   1     -42.129  14.640  21.037  0.00  0.00     0.027 A 
ATOM     17  C   UNL d   1     -42.092  13.218  21.204  0.00  0.00     0.123 A 
ATOM     18  C   UNL d   1     -41.311  14.650  20.928  0.00  0.00     0.002 A 
ATOM     19  C   UNL d   1     -40.882  13.944  20.957  0.00  0.00     0.002 A 
ATOM     20  C   UNL d   1     -41.272  13.228  21.095  0.00  0.00     0.027 A 
ATOM     21  O   UNL d   1     -42.480  12.507  21.341  0.00  0.00    -0.301 OA
ATOM     22  C   UNL d   1     -43.295  12.501  21.449  0.00  0.00     0.149 A 
ENDBRANCH  12  13
ENDBRANCH  11  12
ENDBRANCH   8  11
ENDBRANCH   1   8
BRANCH   3  23
ATOM     23  C   UNL d   1     -47.737  15.021  22.555  0.00  0.00     0.279 C 
ATOM     24  N   UNL d   1     -48.473  15.003  22.182  0.00  0.00    -0.208 NA
ATOM     25  O   UNL d   1     -47.344  15.734  22.648  0.00  0.00    -0.265 OA
BRANCH  24  26
ATOM     26  C   UNL d   1     -48.869  14.285  22.088  0.00  0.00     0.085 A 
ATOM     27  C   UNL d   1     -49.371  14.025  22.682  0.00  0.00     0.019 A 
ATOM     28  C   UNL d   1     -49.770  13.301  22.587  0.00  0.00     0.002 A 
ATOM     29  C   UNL d   1     -49.658  12.853  21.901  0.00  0.00     0.000 A 
ATOM     30  C   UNL d   1     -49.153  13.127  21.318  0.00  0.00     0.002 A 
ATOM     31  C   UNL d   1     -48.754  13.851  21.413  0.00  0.00     0.019 A 
BRANCH  29  32
ATOM     32  C   UNL d   1     -50.048  12.140  21.803  0.00  0.00     0.000 C 
ATOM     33  C   UNL d   1     -50.332  11.732  22.462  0.00  0.00     0.000 C 
ENDBRANCH  29  32
ENDBRANCH  24  26
ENDBRANCH   3  23
TORSDOF 7
ENDMDL
