MODEL 1
REMARK VINA RESULT:      -7.4      0.000      0.000
REMARK  4 active torsions:
REMARK  status: ('A' for Active; 'I' for Inactive)
REMARK    1  A    between atoms: N_6  and  C_1 
REMARK    2  A    between atoms: C_8  and  N_4 
REMARK    3  A    between atoms: C_9  and  N_6 
REMARK    4  A    between atoms: C_13  and  C_9 
ROOT
ATOM      1  C   UNL d   1     -46.859  12.400  23.394  0.00  0.00     0.157 A 
ATOM      2  C   UNL d   1     -47.609  12.063  23.335  0.00  0.00     0.298 A 
ATOM      3  N   UNL d   1     -47.738  13.360  23.083  0.00  0.00    -0.238 N 
ATOM      4  N   UNL d   1     -48.151  12.661  23.142  0.00  0.00    -0.209 N 
ATOM      5  C   UNL d   1     -46.921  13.208  23.239  0.00  0.00     0.104 A 
ATOM      6  O   UNL d   1     -47.795  11.242  23.452  0.00  0.00    -0.263 OA
ATOM      7  C   UNL d   1     -48.065  14.158  22.889  0.00  0.00     0.120 C 
ATOM      8  C   UNL d   1     -46.288  13.789  23.236  0.00  0.00     0.022 C 
ENDROOT
BRANCH   1   9
ATOM      9  N   UNL d   1     -46.139  11.992  23.581  0.00  0.00    -0.238 NA
BRANCH   9  10
ATOM     10  C   UNL d   1     -45.837  11.410  23.077  0.00  0.00     0.099 C 
BRANCH  10  11
ATOM     11  C   UNL d   1     -45.061  11.121  23.195  0.00  0.00     0.022 A 
ATOM     12  C   UNL d   1     -44.953  10.422  23.577  0.00  0.00     0.022 A 
ATOM     13  C   UNL d   1     -44.182  10.132  23.696  0.00  0.00     0.099 A 
ATOM     14  N   UNL d   1     -43.538  10.532  23.439  0.00  0.00    -0.242 NA
ATOM     15  C   UNL d   1     -43.626  11.248  23.047  0.00  0.00     0.099 A 
ATOM     16  C   UNL d   1     -44.414  11.552  22.921  0.00  0.00     0.022 A 
ENDBRANCH  10  11
ENDBRANCH   9  10
ENDBRANCH   1   9
BRANCH   4  17
ATOM     17  C   UNL d   1     -48.979  12.525  23.035  0.00  0.00     0.085 A 
ATOM     18  C   UNL d   1     -49.273  12.437  22.278  0.00  0.00     0.019 A 
ATOM     19  C   UNL d   1     -50.106  12.300  22.171  0.00  0.00     0.002 A 
ATOM     20  C   UNL d   1     -50.591  12.260  22.827  0.00  0.00     0.000 A 
ATOM     21  C   UNL d   1     -50.298  12.349  23.588  0.00  0.00     0.002 A 
ATOM     22  C   UNL d   1     -49.465  12.485  23.696  0.00  0.00     0.019 A 
ENDBRANCH   4  17
TORSDOF 4
ENDMDL
MODEL 2
REMARK VINA RESULT:      -6.8      1.783      2.470
REMARK  4 active torsions:
REMARK  status: ('A' for Active; 'I' for Inactive)
REMARK    1  A    between atoms: N_6  and  C_1 
REMARK    2  A    between atoms: C_8  and  N_4 
REMARK    3  A    between atoms: C_9  and  N_6 
REMARK    4  A    between atoms: C_13  and  C_9 
ROOT
ATOM      1  C   UNL d   1     -48.147  13.008  22.734  0.00  0.00     0.157 A 
ATOM      2  C   UNL d   1     -48.571  13.710  22.649  0.00  0.00     0.298 A 
ATOM      3  N   UNL d   1     -49.357  12.850  23.283  0.00  0.00    -0.238 N 
ATOM      4  N   UNL d   1     -49.320  13.609  22.989  0.00  0.00    -0.209 N 
ATOM      5  C   UNL d   1     -48.623  12.461  23.128  0.00  0.00     0.104 A 
ATOM      6  O   UNL d   1     -48.287  14.419  22.274  0.00  0.00    -0.263 OA
ATOM      7  C   UNL d   1     -50.040  12.472  23.698  0.00  0.00     0.120 C 
ATOM      8  C   UNL d   1     -48.422  11.654  23.343  0.00  0.00     0.022 C 
ENDROOT
BRANCH   1   9
ATOM      9  N   UNL d   1     -47.355  12.864  22.466  0.00  0.00    -0.238 NA
BRANCH   9  10
ATOM     10  C   UNL d   1     -46.715  12.909  22.988  0.00  0.00     0.099 C 
BRANCH  10  11
ATOM     11  C   UNL d   1     -45.940  12.775  22.705  0.00  0.00     0.022 A 
ATOM     12  C   UNL d   1     -45.612  13.293  22.185  0.00  0.00     0.022 A 
ATOM     13  C   UNL d   1     -44.840  13.162  21.902  0.00  0.00     0.099 A 
ATOM     14  N   UNL d   1     -44.410  12.529  22.133  0.00  0.00    -0.242 NA
ATOM     15  C   UNL d   1     -44.725  11.987  22.664  0.00  0.00     0.099 A 
ATOM     16  C   UNL d   1     -45.516  12.114  22.959  0.00  0.00     0.022 A 
ENDBRANCH  10  11
ENDBRANCH   9  10
ENDBRANCH   1   9
BRANCH   4  17
ATOM     17  C   UNL d   1     -49.912  14.213  23.008  0.00  0.00     0.085 A 
ATOM     18  C   UNL d   1     -49.952  14.711  23.653  0.00  0.00     0.019 A 
ATOM     19  C   UNL d   1     -50.548  15.319  23.672  0.00  0.00     0.002 A 
ATOM     20  C   UNL d   1     -51.064  15.389  23.043  0.00  0.00     0.000 A 
ATOM     21  C   UNL d   1     -51.026  14.889  22.393  0.00  0.00     0.002 A 
ATOM     22  C   UNL d   1     -50.430  14.281  22.375  0.00  0.00     0.019 A 
ENDBRANCH   4  17
TORSDOF 4
ENDMDL
MODEL 3
REMARK VINA RESULT:      -6.0      1.884      5.050
REMARK  4 active torsions:
REMARK  status: ('A' for Active; 'I' for Inactive)
REMARK    1  A    between atoms: N_6  and  C_1 
REMARK    2  A    between atoms: C_8  and  N_4 
REMARK    3  A    between atoms: C_9  and  N_6 
REMARK    4  A    between atoms: C_13  and  C_9 
ROOT
ATOM      1  C   UNL d   1     -48.241  13.328  23.210  0.00  0.00     0.157 A 
ATOM      2  C   UNL d   1     -47.457  13.480  23.004  0.00  0.00     0.298 A 
ATOM      3  N   UNL d   1     -47.609  12.162  23.029  0.00  0.00    -0.238 N 
ATOM      4  N   UNL d   1     -47.069  12.755  22.892  0.00  0.00    -0.209 N 
ATOM      5  C   UNL d   1     -48.353  12.510  23.230  0.00  0.00     0.104 A 
ATOM      6  O   UNL d   1     -47.106  14.250  22.920  0.00  0.00    -0.263 OA
ATOM      7  C   UNL d   1     -47.469  11.291  22.981  0.00  0.00     0.120 C 
ATOM      8  C   UNL d   1     -49.077  12.088  23.417  0.00  0.00     0.022 C 
ENDROOT
BRANCH   1   9
ATOM      9  N   UNL d   1     -48.838  13.908  23.376  0.00  0.00    -0.238 NA
BRANCH   9  10
ATOM     10  C   UNL d   1     -49.061  14.462  22.805  0.00  0.00     0.099 C 
BRANCH  10  11
ATOM     11  C   UNL d   1     -49.735  14.940  22.932  0.00  0.00     0.022 A 
ATOM     12  C   UNL d   1     -49.758  15.432  23.568  0.00  0.00     0.022 A 
ATOM     13  C   UNL d   1     -50.428  15.908  23.698  0.00  0.00     0.099 A 
ATOM     14  N   UNL d   1     -51.057  15.892  23.205  0.00  0.00    -0.242 NA
ATOM     15  C   UNL d   1     -51.055  15.397  22.549  0.00  0.00     0.099 A 
ATOM     16  C   UNL d   1     -50.372  14.905  22.409  0.00  0.00     0.022 A 
ENDBRANCH  10  11
ENDBRANCH   9  10
ENDBRANCH   1   9
BRANCH   4  17
ATOM     17  C   UNL d   1     -46.254  12.689  22.675  0.00  0.00     0.085 A 
ATOM     18  C   UNL d   1     -45.746  12.269  23.158  0.00  0.00     0.019 A 
ATOM     19  C   UNL d   1     -44.927  12.203  22.939  0.00  0.00     0.002 A 
ATOM     20  C   UNL d   1     -44.667  12.560  22.252  0.00  0.00     0.000 A 
ATOM     21  C   UNL d   1     -45.176  12.983  21.766  0.00  0.00     0.002 A 
ATOM     22  C   UNL d   1     -45.996  13.049  21.984  0.00  0.00     0.019 A 
ENDBRANCH   4  17
TORSDOF 4
ENDMDL
MODEL 4
REMARK VINA RESULT:      -5.5      8.731      9.402
REMARK  4 active torsions:
REMARK  status: ('A' for Active; 'I' for Inactive)
REMARK    1  A    between atoms: N_6  and  C_1 
REMARK    2  A    between atoms: C_8  and  N_4 
REMARK    3  A    between atoms: C_9  and  N_6 
REMARK    4  A    between atoms: C_13  and  C_9 
ROOT
ATOM      1  C   UNL d   1     -38.804  14.286  19.647  0.00  0.00     0.157 A 
ATOM      2  C   UNL d   1     -39.312  14.791  19.239  0.00  0.00     0.298 A 
ATOM      3  N   UNL d   1     -38.846  13.908  18.364  0.00  0.00    -0.238 N 
ATOM      4  N   UNL d   1     -39.336  14.553  18.444  0.00  0.00    -0.209 N 
ATOM      5  C   UNL d   1     -38.504  13.730  19.117  0.00  0.00     0.104 A 
ATOM      6  O   UNL d   1     -39.740  15.444  19.576  0.00  0.00    -0.263 OA
ATOM      7  C   UNL d   1     -38.681  13.452  17.626  0.00  0.00     0.120 C 
ATOM      8  C   UNL d   1     -37.954  13.092  19.286  0.00  0.00     0.022 C 
ENDROOT
BRANCH   1   9
ATOM      9  N   UNL d   1     -38.615  14.326  20.474  0.00  0.00    -0.238 NA
BRANCH   9  10
ATOM     10  C   UNL d   1     -39.166  14.099  21.047  0.00  0.00     0.099 C 
BRANCH  10  11
ATOM     11  C   UNL d   1     -38.956  14.122  21.856  0.00  0.00     0.022 A 
ATOM     12  C   UNL d   1     -38.858  13.434  22.260  0.00  0.00     0.022 A 
ATOM     13  C   UNL d   1     -38.649  13.453  23.065  0.00  0.00     0.099 A 
ATOM     14  N   UNL d   1     -38.542  14.144  23.454  0.00  0.00    -0.242 NA
ATOM     15  C   UNL d   1     -38.637  14.859  23.061  0.00  0.00     0.099 A 
ATOM     16  C   UNL d   1     -38.851  14.847  22.235  0.00  0.00     0.022 A 
ENDBRANCH  10  11
ENDBRANCH   9  10
ENDBRANCH   1   9
BRANCH   4  17
ATOM     17  C   UNL d   1     -39.801  14.941  17.853  0.00  0.00     0.085 A 
ATOM     18  C   UNL d   1     -39.460  15.531  17.403  0.00  0.00     0.019 A 
ATOM     19  C   UNL d   1     -39.928  15.922  16.809  0.00  0.00     0.002 A 
ATOM     20  C   UNL d   1     -40.705  15.696  16.703  0.00  0.00     0.000 A 
ATOM     21  C   UNL d   1     -41.049  15.103  17.154  0.00  0.00     0.002 A 
ATOM     22  C   UNL d   1     -40.582  14.713  17.748  0.00  0.00     0.019 A 
ENDBRANCH   4  17
TORSDOF 4
ENDMDL
MODEL 5
REMARK VINA RESULT:      -5.5      8.634     10.094
REMARK  4 active torsions:
REMARK  status: ('A' for Active; 'I' for Inactive)
REMARK    1  A    between atoms: N_6  and  C_1 
REMARK    2  A    between atoms: C_8  and  N_4 
REMARK    3  A    between atoms: C_9  and  N_6 
REMARK    4  A    between atoms: C_13  and  C_9 
ROOT
ATOM      1  C   UNL d   1     -39.489  15.253  18.829  0.00  0.00     0.157 A 
ATOM      2  C   UNL d   1     -38.907  14.969  18.319  0.00  0.00     0.298 A 
ATOM      3  N   UNL d   1     -39.995  15.190  17.592  0.00  0.00    -0.238 N 
ATOM      4  N   UNL d   1     -39.224  14.931  17.553  0.00  0.00    -0.209 N 
ATOM      5  C   UNL d   1     -40.174  15.396  18.391  0.00  0.00     0.104 A 
ATOM      6  O   UNL d   1     -38.116  14.751  18.541  0.00  0.00    -0.263 OA
ATOM      7  C   UNL d   1     -40.570  15.255  16.924  0.00  0.00     0.120 C 
ATOM      8  C   UNL d   1     -40.926  15.695  18.682  0.00  0.00     0.022 C 
ENDROOT
BRANCH   1   9
ATOM      9  N   UNL d   1     -39.406  15.380  19.664  0.00  0.00    -0.238 NA
BRANCH   9  10
ATOM     10  C   UNL d   1     -39.661  14.811  20.208  0.00  0.00     0.099 C 
BRANCH  10  11
ATOM     11  C   UNL d   1     -39.463  14.892  21.016  0.00  0.00     0.022 A 
ATOM     12  C   UNL d   1     -39.267  14.239  21.443  0.00  0.00     0.022 A 
ATOM     13  C   UNL d   1     -39.068  14.317  22.247  0.00  0.00     0.099 A 
ATOM     14  N   UNL d   1     -39.067  15.028  22.613  0.00  0.00    -0.242 NA
ATOM     15  C   UNL d   1     -39.264  15.707  22.196  0.00  0.00     0.099 A 
ATOM     16  C   UNL d   1     -39.468  15.637  21.371  0.00  0.00     0.022 A 
ENDBRANCH  10  11
ENDBRANCH   9  10
ENDBRANCH   1   9
BRANCH   4  17
ATOM     17  C   UNL d   1     -38.789  14.664  16.879  0.00  0.00     0.085 A 
ATOM     18  C   UNL d   1     -38.747  13.864  16.723  0.00  0.00     0.019 A 
ATOM     19  C   UNL d   1     -38.308  13.596  16.045  0.00  0.00     0.002 A 
ATOM     20  C   UNL d   1     -37.940  14.145  15.566  0.00  0.00     0.000 A 
ATOM     21  C   UNL d   1     -37.981  14.950  15.720  0.00  0.00     0.002 A 
ATOM     22  C   UNL d   1     -38.420  15.219  16.399  0.00  0.00     0.019 A 
ENDBRANCH   4  17
TORSDOF 4
ENDMDL
MODEL 6
REMARK VINA RESULT:      -5.5      7.631      9.548
REMARK  4 active torsions:
REMARK  status: ('A' for Active; 'I' for Inactive)
REMARK    1  A    between atoms: N_6  and  C_1 
REMARK    2  A    between atoms: C_8  and  N_4 
REMARK    3  A    between atoms: C_9  and  N_6 
REMARK    4  A    between atoms: C_13  and  C_9 
ROOT
ATOM      1  C   UNL d   1     -39.483  14.434  19.257  0.00  0.00     0.157 A 
ATOM      2  C   UNL d   1     -39.038  14.407  19.951  0.00  0.00     0.298 A 
ATOM      3  N   UNL d   1     -40.314  14.494  20.305  0.00  0.00    -0.238 N 
ATOM      4  N   UNL d   1     -39.557  14.444  20.597  0.00  0.00    -0.209 N 
ATOM      5  C   UNL d   1     -40.282  14.488  19.460  0.00  0.00     0.104 A 
ATOM      6  O   UNL d   1     -38.191  14.351  19.995  0.00  0.00    -0.263 OA
ATOM      7  C   UNL d   1     -41.064  14.545  20.770  0.00  0.00     0.120 C 
ATOM      8  C   UNL d   1     -40.954  14.531  18.926  0.00  0.00     0.022 C 
ENDROOT
BRANCH   1   9
ATOM      9  N   UNL d   1     -39.180  14.411  18.465  0.00  0.00    -0.238 NA
BRANCH   9  10
ATOM     10  C   UNL d   1     -39.202  13.714  18.022  0.00  0.00     0.099 C 
BRANCH  10  11
ATOM     11  C   UNL d   1     -38.808  13.679  17.285  0.00  0.00     0.022 A 
ATOM     12  C   UNL d   1     -38.337  13.049  17.117  0.00  0.00     0.022 A 
ATOM     13  C   UNL d   1     -37.943  13.011  16.385  0.00  0.00     0.099 A 
ATOM     14  N   UNL d   1     -38.020  13.588  15.837  0.00  0.00    -0.242 NA
ATOM     15  C   UNL d   1     -38.496  14.240  15.987  0.00  0.00     0.099 A 
ATOM     16  C   UNL d   1     -38.903  14.286  16.736  0.00  0.00     0.022 A 
ENDBRANCH  10  11
ENDBRANCH   9  10
ENDBRANCH   1   9
BRANCH   4  17
ATOM     17  C   UNL d   1     -39.301  14.430  21.404  0.00  0.00     0.085 A 
ATOM     18  C   UNL d   1     -39.149  15.136  21.786  0.00  0.00     0.019 A 
ATOM     19  C   UNL d   1     -38.892  15.121  22.597  0.00  0.00     0.002 A 
ATOM     20  C   UNL d   1     -38.803  14.402  22.973  0.00  0.00     0.000 A 
ATOM     21  C   UNL d   1     -38.955  13.692  22.591  0.00  0.00     0.002 A 
ATOM     22  C   UNL d   1     -39.212  13.706  21.780  0.00  0.00     0.019 A 
ENDBRANCH   4  17
TORSDOF 4
ENDMDL
MODEL 7
REMARK VINA RESULT:      -4.9      7.768      9.730
REMARK  4 active torsions:
REMARK  status: ('A' for Active; 'I' for Inactive)
REMARK    1  A    between atoms: N_6  and  C_1 
REMARK    2  A    between atoms: C_8  and  N_4 
REMARK    3  A    between atoms: C_9  and  N_6 
REMARK    4  A    between atoms: C_13  and  C_9 
ROOT
ATOM      1  C   UNL d   1     -39.132  15.037  18.392  0.00  0.00     0.157 A 
ATOM      2  C   UNL d   1     -39.813  14.774  18.775  0.00  0.00     0.298 A 
ATOM      3  N   UNL d   1     -39.125  15.499  19.648  0.00  0.00    -0.238 N 
ATOM      4  N   UNL d   1     -39.805  15.063  19.553  0.00  0.00    -0.209 N 
ATOM      5  C   UNL d   1     -38.691  15.491  18.923  0.00  0.00     0.104 A 
ATOM      6  O   UNL d   1     -40.421  14.290  18.430  0.00  0.00    -0.263 OA
ATOM      7  C   UNL d   1     -38.860  15.922  20.378  0.00  0.00     0.120 C 
ATOM      8  C   UNL d   1     -37.940  15.881  18.776  0.00  0.00     0.022 C 
ENDROOT
BRANCH   1   9
ATOM      9  N   UNL d   1     -38.913  14.873  17.589  0.00  0.00    -0.238 NA
BRANCH   9  10
ATOM     10  C   UNL d   1     -38.486  14.193  17.395  0.00  0.00     0.099 C 
BRANCH  10  11
ATOM     11  C   UNL d   1     -38.302  14.032  16.596  0.00  0.00     0.022 A 
ATOM     12  C   UNL d   1     -38.300  14.633  16.061  0.00  0.00     0.022 A 
ATOM     13  C   UNL d   1     -38.118  14.476  15.264  0.00  0.00     0.099 A 
ATOM     14  N   UNL d   1     -37.943  13.738  15.011  0.00  0.00    -0.242 NA
ATOM     15  C   UNL d   1     -37.940  13.110  15.540  0.00  0.00     0.099 A 
ATOM     16  C   UNL d   1     -38.126  13.262  16.359  0.00  0.00     0.022 A 
ENDBRANCH  10  11
ENDBRANCH   9  10
ENDBRANCH   1   9
BRANCH   4  17
ATOM     17  C   UNL d   1     -40.417  14.907  20.116  0.00  0.00     0.085 A 
ATOM     18  C   UNL d   1     -41.016  15.454  20.215  0.00  0.00     0.019 A 
ATOM     19  C   UNL d   1     -41.631  15.297  20.781  0.00  0.00     0.002 A 
ATOM     20  C   UNL d   1     -41.608  14.604  21.213  0.00  0.00     0.000 A 
ATOM     21  C   UNL d   1     -41.007  14.053  21.115  0.00  0.00     0.002 A 
ATOM     22  C   UNL d   1     -40.392  14.210  20.549  0.00  0.00     0.019 A 
ENDBRANCH   4  17
TORSDOF 4
ENDMDL
MODEL 8
REMARK VINA RESULT:      -4.8      8.409      9.717
REMARK  4 active torsions:
REMARK  status: ('A' for Active; 'I' for Inactive)
REMARK    1  A    between atoms: N_6  and  C_1 
REMARK    2  A    between atoms: C_8  and  N_4 
REMARK    3  A    between atoms: C_9  and  N_6 
REMARK    4  A    between atoms: C_13  and  C_9 
ROOT
ATOM      1  C   UNL d   1     -39.141  14.434  19.230  0.00  0.00     0.157 A 
ATOM      2  C   UNL d   1     -39.264  14.620  20.024  0.00  0.00     0.298 A 
ATOM      3  N   UNL d   1     -38.461  13.564  19.986  0.00  0.00    -0.238 N 
ATOM      4  N   UNL d   1     -38.840  14.078  20.489  0.00  0.00    -0.209 N 
ATOM      5  C   UNL d   1     -38.643  13.777  19.188  0.00  0.00     0.104 A 
ATOM      6  O   UNL d   1     -39.743  15.258  20.316  0.00  0.00    -0.263 OA
ATOM      7  C   UNL d   1     -37.940  12.886  20.209  0.00  0.00     0.120 C 
ATOM      8  C   UNL d   1     -38.359  13.382  18.480  0.00  0.00     0.022 C 
ENDROOT
BRANCH   1   9
ATOM      9  N   UNL d   1     -39.469  14.843  18.563  0.00  0.00    -0.238 NA
BRANCH   9  10
ATOM     10  C   UNL d   1     -40.200  14.622  18.246  0.00  0.00     0.099 C 
BRANCH  10  11
ATOM     11  C   UNL d   1     -40.527  15.061  17.614  0.00  0.00     0.022 A 
ATOM     12  C   UNL d   1     -41.325  15.144  17.560  0.00  0.00     0.022 A 
ATOM     13  C   UNL d   1     -41.654  15.580  16.932  0.00  0.00     0.099 A 
ATOM     14  N   UNL d   1     -41.195  15.922  16.373  0.00  0.00    -0.242 NA
ATOM     15  C   UNL d   1     -40.378  15.850  16.409  0.00  0.00     0.099 A 
ATOM     16  C   UNL d   1     -40.033  15.405  17.050  0.00  0.00     0.022 A 
ENDBRANCH  10  11
ENDBRANCH   9  10
ENDBRANCH   1   9
BRANCH   4  17
ATOM     17  C   UNL d   1     -38.832  14.094  21.335  0.00  0.00     0.085 A 
ATOM     18  C   UNL d   1     -39.375  13.645  21.747  0.00  0.00     0.019 A 
ATOM     19  C   UNL d   1     -39.367  13.661  22.598  0.00  0.00     0.002 A 
ATOM     20  C   UNL d   1     -38.815  14.125  22.981  0.00  0.00     0.000 A 
ATOM     21  C   UNL d   1     -38.268  14.578  22.569  0.00  0.00     0.002 A 
ATOM     22  C   UNL d   1     -38.277  14.562  21.718  0.00  0.00     0.019 A 
ENDBRANCH   4  17
TORSDOF 4
ENDMDL
