MODEL 1
REMARK VINA RESULT:      -2.7      0.000      0.000
REMARK  3 active torsions:
REMARK  status: ('A' for Active; 'I' for Inactive)
REMARK    1  A    between atoms: C_2  and  S_1 
REMARK    2  A    between atoms: N_3  and  S_1 
REMARK    3  A    between atoms: C_8  and  N_3 
ROOT
ATOM      1  S   UNL d   1      32.801  18.389 -23.159  0.00  0.00     0.327 S 
ATOM      2  O   UNL d   1      32.359  18.173 -22.492  0.00  0.00    -0.186 OA
ATOM      3  O   UNL d   1      33.240  18.604 -23.824  0.00  0.00    -0.186 OA
ENDROOT
BRANCH   1   4
ATOM      4  C   UNL d   1      32.696  17.634 -23.472  0.00  0.00     0.116 A 
ATOM      5  C   UNL d   1      32.065  17.480 -23.977  0.00  0.00     0.013 A 
ATOM      6  C   UNL d   1      31.959  16.717 -24.294  0.00  0.00     0.001 A 
ATOM      7  C   UNL d   1      31.530  18.078 -24.176  0.00  0.00     0.001 A 
ATOM      8  C   UNL d   1      31.327  16.563 -24.799  0.00  0.00     0.000 A 
ATOM      9  C   UNL d   1      32.486  16.114 -24.102  0.00  0.00     0.000 A 
ATOM     10  C   UNL d   1      30.800  17.166 -24.990  0.00  0.00     0.000 A 
ATOM     11  C   UNL d   1      30.898  17.925 -24.682  0.00  0.00     0.000 A 
ATOM     12  C   UNL d   1      33.121  16.266 -23.595  0.00  0.00     0.001 A 
ATOM     13  C   UNL d   1      33.227  17.029 -23.278  0.00  0.00     0.014 A 
ENDBRANCH   1   4
BRANCH   1  14
ATOM     14  N   UNL d   1      32.906  19.145 -22.846  0.00  0.00    -0.318 NA
BRANCH  14  15
ATOM     15  C   UNL d   1      33.010  19.901 -22.533  0.00  0.00     0.141 A 
ATOM     16  C   UNL d   1      33.063  20.549 -23.026  0.00  0.00     0.028 A 
ATOM     17  C   UNL d   1      33.167  21.298 -22.716  0.00  0.00     0.101 A 
ATOM     18  C   UNL d   1      33.166  21.609 -23.480  0.00  0.00     0.029 C 
ATOM     19  C   UNL d   1      33.241  22.057 -23.038  0.00  0.00     0.029 C 
ATOM     20  N   UNL d   1      33.219  21.403 -21.902  0.00  0.00    -0.295 NA
ATOM     21  C   UNL d   1      33.166  20.752 -21.400  0.00  0.00     0.101 A 
ATOM     22  C   UNL d   1      33.061  19.996 -21.713  0.00  0.00     0.028 A 
ATOM     23  C   UNL d   1      33.165  20.432 -20.639  0.00  0.00     0.029 C 
ATOM     24  C   UNL d   1      33.240  21.062 -20.636  0.00  0.00     0.029 C 
ENDBRANCH  14  15
ENDBRANCH   1  14
TORSDOF 3
ENDMDL
MODEL 2
REMARK VINA RESULT:      -2.5      0.514      1.492
REMARK  3 active torsions:
REMARK  status: ('A' for Active; 'I' for Inactive)
REMARK    1  A    between atoms: C_2  and  S_1 
REMARK    2  A    between atoms: N_3  and  S_1 
REMARK    3  A    between atoms: C_8  and  N_3 
ROOT
ATOM      1  S   UNL d   1      32.716  18.063 -23.521  0.00  0.00     0.327 S 
ATOM      2  O   UNL d   1      33.016  18.262 -24.268  0.00  0.00    -0.186 OA
ATOM      3  O   UNL d   1      32.418  17.865 -22.778  0.00  0.00    -0.186 OA
ENDROOT
BRANCH   1   4
ATOM      4  C   UNL d   1      32.597  17.289 -23.776  0.00  0.00     0.116 A 
ATOM      5  C   UNL d   1      31.895  17.081 -24.152  0.00  0.00     0.013 A 
ATOM      6  C   UNL d   1      31.774  16.298 -24.410  0.00  0.00     0.001 A 
ATOM      7  C   UNL d   1      31.303  17.644 -24.279  0.00  0.00     0.001 A 
ATOM      8  C   UNL d   1      31.071  16.091 -24.786  0.00  0.00     0.000 A 
ATOM      9  C   UNL d   1      32.356  15.729 -24.288  0.00  0.00     0.000 A 
ATOM     10  C   UNL d   1      30.488  16.661 -24.907  0.00  0.00     0.000 A 
ATOM     11  C   UNL d   1      30.600  17.438 -24.656  0.00  0.00     0.000 A 
ATOM     12  C   UNL d   1      33.062  15.935 -23.910  0.00  0.00     0.001 A 
ATOM     13  C   UNL d   1      33.183  16.718 -23.653  0.00  0.00     0.014 A 
ENDBRANCH   1   4
BRANCH   1  14
ATOM     14  N   UNL d   1      32.836  18.838 -23.266  0.00  0.00    -0.318 NA
BRANCH  14  15
ATOM     15  C   UNL d   1      32.956  19.614 -23.012  0.00  0.00     0.141 A 
ATOM     16  C   UNL d   1      33.004  19.784 -22.215  0.00  0.00     0.028 A 
ATOM     17  C   UNL d   1      33.123  20.552 -21.962  0.00  0.00     0.101 A 
ATOM     18  C   UNL d   1      33.109  20.291 -21.180  0.00  0.00     0.029 C 
ATOM     19  C   UNL d   1      33.198  20.918 -21.223  0.00  0.00     0.029 C 
ATOM     20  N   UNL d   1      33.195  21.160 -22.512  0.00  0.00    -0.295 NA
ATOM     21  C   UNL d   1      33.147  20.993 -23.317  0.00  0.00     0.101 A 
ATOM     22  C   UNL d   1      33.027  20.218 -23.572  0.00  0.00     0.028 A 
ATOM     23  C   UNL d   1      33.160  21.244 -24.103  0.00  0.00     0.029 C 
ATOM     24  C   UNL d   1      33.241  21.723 -23.695  0.00  0.00     0.029 C 
ENDBRANCH  14  15
ENDBRANCH   1  14
TORSDOF 3
ENDMDL
MODEL 3
REMARK VINA RESULT:      -1.6      1.826      4.706
REMARK  3 active torsions:
REMARK  status: ('A' for Active; 'I' for Inactive)
REMARK    1  A    between atoms: C_2  and  S_1 
REMARK    2  A    between atoms: N_3  and  S_1 
REMARK    3  A    between atoms: C_8  and  N_3 
ROOT
ATOM      1  S   UNL d   1      32.971  20.998 -21.581  0.00  0.00     0.327 S 
ATOM      2  O   UNL d   1      33.238  21.602 -22.083  0.00  0.00    -0.186 OA
ATOM      3  O   UNL d   1      32.706  20.397 -21.082  0.00  0.00    -0.186 OA
ENDROOT
BRANCH   1   4
ATOM      4  C   UNL d   1      32.912  21.538 -20.962  0.00  0.00     0.116 A 
ATOM      5  C   UNL d   1      32.529  22.258 -21.077  0.00  0.00     0.013 A 
ATOM      6  C   UNL d   1      32.469  22.804 -20.451  0.00  0.00     0.001 A 
ATOM      7  C   UNL d   1      32.201  22.447 -21.812  0.00  0.00     0.001 A 
ATOM      8  C   UNL d   1      32.086  23.524 -20.567  0.00  0.00     0.000 A 
ATOM      9  C   UNL d   1      32.792  22.626 -19.715  0.00  0.00     0.000 A 
ATOM     10  C   UNL d   1      31.763  23.702 -21.303  0.00  0.00     0.000 A 
ATOM     11  C   UNL d   1      31.818  23.167 -21.928  0.00  0.00     0.000 A 
ATOM     12  C   UNL d   1      33.177  21.904 -19.597  0.00  0.00     0.001 A 
ATOM     13  C   UNL d   1      33.237  21.357 -20.223  0.00  0.00     0.014 A 
ENDBRANCH   1   4
BRANCH   1  14
ATOM     14  N   UNL d   1      33.031  20.457 -22.201  0.00  0.00    -0.318 NA
BRANCH  14  15
ATOM     15  C   UNL d   1      33.090  19.916 -22.821  0.00  0.00     0.141 A 
ATOM     16  C   UNL d   1      33.123  20.176 -23.594  0.00  0.00     0.028 A 
ATOM     17  C   UNL d   1      33.182  19.640 -24.208  0.00  0.00     0.101 A 
ATOM     18  C   UNL d   1      33.184  20.265 -24.747  0.00  0.00     0.029 C 
ATOM     19  C   UNL d   1      33.226  19.701 -25.033  0.00  0.00     0.029 C 
ATOM     20  N   UNL d   1      33.209  18.833 -24.050  0.00  0.00    -0.295 NA
ATOM     21  C   UNL d   1      33.176  18.566 -23.272  0.00  0.00     0.101 A 
ATOM     22  C   UNL d   1      33.117  19.107 -22.652  0.00  0.00     0.028 A 
ATOM     23  C   UNL d   1      33.173  17.948 -22.726  0.00  0.00     0.029 C 
ATOM     24  C   UNL d   1      33.216  17.741 -23.324  0.00  0.00     0.029 C 
ENDBRANCH  14  15
ENDBRANCH   1  14
TORSDOF 3
ENDMDL
MODEL 4
REMARK VINA RESULT:      -0.7      0.970      4.563
REMARK  3 active torsions:
REMARK  status: ('A' for Active; 'I' for Inactive)
REMARK    1  A    between atoms: C_2  and  S_1 
REMARK    2  A    between atoms: N_3  and  S_1 
REMARK    3  A    between atoms: C_8  and  N_3 
ROOT
ATOM      1  S   UNL d   1      32.584  19.221 -23.544  0.00  0.00     0.327 S 
ATOM      2  O   UNL d   1      31.924  19.299 -23.049  0.00  0.00    -0.186 OA
ATOM      3  O   UNL d   1      33.241  19.143 -24.037  0.00  0.00    -0.186 OA
ENDROOT
BRANCH   1   4
ATOM      4  C   UNL d   1      32.801  19.998 -23.377  0.00  0.00     0.116 A 
ATOM      5  C   UNL d   1      32.911  20.238 -22.597  0.00  0.00     0.013 A 
ATOM      6  C   UNL d   1      33.131  21.023 -22.428  0.00  0.00     0.001 A 
ATOM      7  C   UNL d   1      32.806  19.705 -21.975  0.00  0.00     0.001 A 
ATOM      8  C   UNL d   1      33.241  21.262 -21.648  0.00  0.00     0.000 A 
ATOM      9  C   UNL d   1      33.239  21.563 -23.041  0.00  0.00     0.000 A 
ATOM     10  C   UNL d   1      33.133  20.723 -21.035  0.00  0.00     0.000 A 
ATOM     11  C   UNL d   1      32.915  19.943 -21.194  0.00  0.00     0.000 A 
ATOM     12  C   UNL d   1      33.129  21.324 -23.825  0.00  0.00     0.001 A 
ATOM     13  C   UNL d   1      32.909  20.539 -23.994  0.00  0.00     0.014 A 
ENDBRANCH   1   4
BRANCH   1  14
ATOM     14  N   UNL d   1      32.366  18.443 -23.712  0.00  0.00    -0.318 NA
BRANCH  14  15
ATOM     15  C   UNL d   1      32.149  17.665 -23.879  0.00  0.00     0.141 A 
ATOM     16  C   UNL d   1      32.566  17.041 -23.558  0.00  0.00     0.028 A 
ATOM     17  C   UNL d   1      32.351  16.271 -23.724  0.00  0.00     0.101 A 
ATOM     18  C   UNL d   1      32.969  16.001 -23.249  0.00  0.00     0.029 C 
ATOM     19  C   UNL d   1      32.636  15.525 -23.505  0.00  0.00     0.029 C 
ATOM     20  N   UNL d   1      31.709  16.119 -24.217  0.00  0.00    -0.295 NA
ATOM     21  C   UNL d   1      31.285  16.745 -24.543  0.00  0.00     0.101 A 
ATOM     22  C   UNL d   1      31.503  17.523 -24.376  0.00  0.00     0.028 A 
ATOM     23  C   UNL d   1      30.670  17.024 -25.016  0.00  0.00     0.029 C 
ATOM     24  C   UNL d   1      30.692  16.391 -24.999  0.00  0.00     0.029 C 
ENDBRANCH  14  15
ENDBRANCH   1  14
TORSDOF 3
ENDMDL
MODEL 5
REMARK VINA RESULT:      -0.5      1.378      4.395
REMARK  3 active torsions:
REMARK  status: ('A' for Active; 'I' for Inactive)
REMARK    1  A    between atoms: C_2  and  S_1 
REMARK    2  A    between atoms: N_3  and  S_1 
REMARK    3  A    between atoms: C_8  and  N_3 
ROOT
ATOM      1  S   UNL d   1      32.526  19.975 -22.223  0.00  0.00     0.327 S 
ATOM      2  O   UNL d   1      33.241  19.774 -21.854  0.00  0.00    -0.186 OA
ATOM      3  O   UNL d   1      31.816  20.175 -22.591  0.00  0.00    -0.186 OA
ENDROOT
BRANCH   1   4
ATOM      4  C   UNL d   1      32.489  20.666 -21.775  0.00  0.00     0.116 A 
ATOM      5  C   UNL d   1      32.725  21.383 -22.102  0.00  0.00     0.013 A 
ATOM      6  C   UNL d   1      32.687  22.081 -21.649  0.00  0.00     0.001 A 
ATOM      7  C   UNL d   1      33.003  21.421 -22.880  0.00  0.00     0.001 A 
ATOM      8  C   UNL d   1      32.924  22.799 -21.976  0.00  0.00     0.000 A 
ATOM      9  C   UNL d   1      32.413  22.056 -20.874  0.00  0.00     0.000 A 
ATOM     10  C   UNL d   1      33.199  22.825 -22.752  0.00  0.00     0.000 A 
ATOM     11  C   UNL d   1      33.240  22.138 -23.207  0.00  0.00     0.000 A 
ATOM     12  C   UNL d   1      32.174  21.336 -20.543  0.00  0.00     0.001 A 
ATOM     13  C   UNL d   1      32.212  20.638 -20.996  0.00  0.00     0.014 A 
ENDBRANCH   1   4
BRANCH   1  14
ATOM     14  N   UNL d   1      32.564  19.284 -22.672  0.00  0.00    -0.318 NA
BRANCH  14  15
ATOM     15  C   UNL d   1      32.602  18.592 -23.120  0.00  0.00     0.141 A 
ATOM     16  C   UNL d   1      32.888  18.611 -23.884  0.00  0.00     0.028 A 
ATOM     17  C   UNL d   1      32.925  17.926 -24.329  0.00  0.00     0.101 A 
ATOM     18  C   UNL d   1      33.237  18.358 -24.958  0.00  0.00     0.029 C 
ATOM     19  C   UNL d   1      33.175  17.742 -25.096  0.00  0.00     0.029 C 
ATOM     20  N   UNL d   1      32.674  17.212 -24.006  0.00  0.00    -0.295 NA
ATOM     21  C   UNL d   1      32.385  17.188 -23.236  0.00  0.00     0.101 A 
ATOM     22  C   UNL d   1      32.347  17.879 -22.787  0.00  0.00     0.028 A 
ATOM     23  C   UNL d   1      32.072  16.765 -22.600  0.00  0.00     0.029 C 
ATOM     24  C   UNL d   1      32.189  16.395 -23.103  0.00  0.00     0.029 C 
ENDBRANCH  14  15
ENDBRANCH   1  14
TORSDOF 3
ENDMDL
MODEL 6
REMARK VINA RESULT:       0.0      2.477      4.971
REMARK  3 active torsions:
REMARK  status: ('A' for Active; 'I' for Inactive)
REMARK    1  A    between atoms: C_2  and  S_1 
REMARK    2  A    between atoms: N_3  and  S_1 
REMARK    3  A    between atoms: C_8  and  N_3 
ROOT
ATOM      1  S   UNL d   1      31.209  17.337 -24.058  0.00  0.00     0.327 S 
ATOM      2  O   UNL d   1      30.733  17.987 -24.252  0.00  0.00    -0.186 OA
ATOM      3  O   UNL d   1      31.683  16.690 -23.865  0.00  0.00    -0.186 OA
ENDROOT
BRANCH   1   4
ATOM      4  C   UNL d   1      31.883  17.785 -24.211  0.00  0.00     0.116 A 
ATOM      5  C   UNL d   1      32.178  18.297 -23.638  0.00  0.00     0.013 A 
ATOM      6  C   UNL d   1      32.859  18.750 -23.792  0.00  0.00     0.001 A 
ATOM      7  C   UNL d   1      31.803  18.368 -22.904  0.00  0.00     0.001 A 
ATOM      8  C   UNL d   1      33.154  19.263 -23.218  0.00  0.00     0.000 A 
ATOM      9  C   UNL d   1      33.241  18.688 -24.519  0.00  0.00     0.000 A 
ATOM     10  C   UNL d   1      32.772  19.325 -22.491  0.00  0.00     0.000 A 
ATOM     11  C   UNL d   1      32.097  18.880 -22.330  0.00  0.00     0.000 A 
ATOM     12  C   UNL d   1      32.947  18.174 -25.097  0.00  0.00     0.001 A 
ATOM     13  C   UNL d   1      32.265  17.721 -24.942  0.00  0.00     0.014 A 
ENDBRANCH   1   4
BRANCH   1  14
ATOM     14  N   UNL d   1      30.534  16.888 -23.905  0.00  0.00    -0.318 NA
BRANCH  14  15
ATOM     15  C   UNL d   1      29.859  16.439 -23.751  0.00  0.00     0.141 A 
ATOM     16  C   UNL d   1      29.677  16.214 -22.988  0.00  0.00     0.028 A 
ATOM     17  C   UNL d   1      29.009  15.770 -22.836  0.00  0.00     0.101 A 
ATOM     18  C   UNL d   1      29.195  15.772 -22.033  0.00  0.00     0.029 C 
ATOM     19  C   UNL d   1      28.662  15.452 -22.155  0.00  0.00     0.029 C 
ATOM     20  N   UNL d   1      28.514  15.546 -23.454  0.00  0.00    -0.295 NA
ATOM     21  C   UNL d   1      28.693  15.770 -24.226  0.00  0.00     0.101 A 
ATOM     22  C   UNL d   1      29.368  16.219 -24.379  0.00  0.00     0.028 A 
ATOM     23  C   UNL d   1      28.514  15.773 -25.032  0.00  0.00     0.029 C 
ATOM     24  C   UNL d   1      28.086  15.453 -24.690  0.00  0.00     0.029 C 
ENDBRANCH  14  15
ENDBRANCH   1  14
TORSDOF 3
ENDMDL
