MODEL 1
REMARK VINA RESULT:      38.6      0.000      0.000
REMARK  2 active torsions:
REMARK  status: ('A' for Active; 'I' for Inactive)
REMARK    1  A    between atoms: C_3  and  C_1 
REMARK       I    between atoms: N_7  and  C_3 
REMARK    2  A    between atoms: C_11  and  N_7 
ROOT
ATOM      1  C   UNL d   1     -54.781-101.273 -43.459  0.00  0.00     0.121 A 
ATOM      2  C   UNL d   1     -54.814-101.700 -44.164  0.00  0.00     0.305 A 
ATOM      3  C   UNL d   1     -54.757-100.439 -43.474  0.00  0.00     0.012 A 
ATOM      4  O   UNL d   1     -54.823-101.287 -44.875  0.00  0.00    -0.273 OA
ATOM      5  C   UNL d   1     -54.768-100.058 -44.195  0.00  0.00     0.023 A 
ATOM      6  C   UNL d   1     -54.801-100.485 -44.901  0.00  0.00     0.103 A 
ATOM      7  O   UNL d   1     -54.837-102.512 -44.163  0.00  0.00    -0.259 OA
ATOM      8  C   UNL d   1     -54.745 -99.221 -44.212  0.00  0.00     0.002 A 
ATOM      9  C   UNL d   1     -54.810-100.069 -45.613  0.00  0.00     0.025 A 
ATOM     10  C   UNL d   1     -54.755 -98.848 -44.929  0.00  0.00     0.000 A 
ATOM     11  C   UNL d   1     -54.788 -99.275 -45.634  0.00  0.00     0.002 A 
ENDROOT
BRANCH   1  12
ATOM     12  C   UNL d   1     -54.770-101.667 -42.730  0.00  0.00     0.284 C 
ATOM     13  N   UNL d   1     -54.819-101.249 -42.019  0.00  0.00    -0.208 NA
ATOM     14  O   UNL d   1     -54.711-102.487 -42.668  0.00  0.00    -0.265 OA
BRANCH  13  15
ATOM     15  C   UNL d   1     -54.808-101.643 -41.304  0.00  0.00     0.085 A 
ATOM     16  C   UNL d   1     -54.871-102.459 -41.275  0.00  0.00     0.019 A 
ATOM     17  C   UNL d   1     -54.861-102.862 -40.556  0.00  0.00     0.002 A 
ATOM     18  C   UNL d   1     -54.785-102.426 -39.854  0.00  0.00     0.000 A 
ATOM     19  C   UNL d   1     -54.720-101.602 -39.857  0.00  0.00     0.002 A 
ATOM     20  C   UNL d   1     -54.774-102.808 -39.147  0.00  0.00     0.000 C 
ATOM     21  C   UNL d   1     -54.732-101.211 -40.588  0.00  0.00     0.019 A 
ENDBRANCH  13  15
ENDBRANCH   1  12
TORSDOF 2
ENDMDL
