MODEL 1
REMARK VINA RESULT:      -2.4      0.000      0.000
REMARK  4 active torsions:
REMARK  status: ('A' for Active; 'I' for Inactive)
REMARK    1  A    between atoms: C_2  and  C_1 
REMARK    2  A    between atoms: N_4  and  C_1 
REMARK    3  A    between atoms: O_13  and  C_5 
REMARK    4  A    between atoms: O_12  and  C_6 
ROOT
ATOM      1  C   UNL d   1      31.256  16.919 -24.409  0.00  0.00     0.031 A 
ATOM      2  C   UNL d   1      29.700  16.451 -24.126  0.00  0.00     0.138 A 
ATOM      3  C   UNL d   1      29.855  17.060 -24.665  0.00  0.00     0.118 A 
ATOM      4  C   UNL d   1      30.323  16.075 -23.728  0.00  0.00     0.118 A 
ATOM      5  C   UNL d   1      30.631  17.288 -24.801  0.00  0.00     0.029 A 
ATOM      6  C   UNL d   1      31.100  16.310 -23.871  0.00  0.00     0.029 A 
ATOM      7  O   UNL d   1      28.921  16.208 -23.977  0.00  0.00    -0.324 OA
ATOM      8  C   UNL d   1      28.136  16.009 -23.867  0.00  0.00     0.182 C 
ENDROOT
BRANCH   4   9
ATOM      9  O   UNL d   1      30.170  15.466 -23.189  0.00  0.00    -0.326 OA
ATOM     10  C   UNL d   1      30.554  15.453 -22.465  0.00  0.00     0.181 C 
ENDBRANCH   4   9
BRANCH   3  11
ATOM     11  O   UNL d   1      29.220  17.435 -25.063  0.00  0.00    -0.326 OA
ATOM     12  C   UNL d   1      29.124  18.260 -24.988  0.00  0.00     0.181 C 
ENDBRANCH   3  11
BRANCH   1  13
ATOM     13  C   UNL d   1      32.029  17.149 -24.548  0.00  0.00     0.120 C 
ATOM     14  S   UNL d   1      32.490  16.725 -25.097  0.00  0.00    -0.059 SA
BRANCH  13  15
ATOM     15  N   UNL d   1      32.347  17.801 -24.143  0.00  0.00    -0.292 N 
ATOM     16  C   UNL d   1      32.483  18.481 -24.565  0.00  0.00     0.108 A 
ATOM     17  C   UNL d   1      32.801  19.149 -24.183  0.00  0.00     0.142 A 
ATOM     18  O   UNL d   1      32.977  19.119 -23.382  0.00  0.00    -0.300 OA
ATOM     19  C   UNL d   1      32.836  18.425 -22.959  0.00  0.00     0.142 A 
ATOM     20  C   UNL d   1      32.523  17.770 -23.337  0.00  0.00     0.108 A 
ENDBRANCH  13  15
ENDBRANCH   1  13
TORSDOF 4
ENDMDL
MODEL 2
REMARK VINA RESULT:      -2.1      1.535      3.424
REMARK  4 active torsions:
REMARK  status: ('A' for Active; 'I' for Inactive)
REMARK    1  A    between atoms: C_2  and  C_1 
REMARK    2  A    between atoms: N_4  and  C_1 
REMARK    3  A    between atoms: O_13  and  C_5 
REMARK    4  A    between atoms: O_12  and  C_6 
ROOT
ATOM      1  C   UNL d   1      30.829  16.420 -24.163  0.00  0.00     0.031 A 
ATOM      2  C   UNL d   1      32.045  17.395 -23.623  0.00  0.00     0.138 A 
ATOM      3  C   UNL d   1      31.403  17.724 -24.031  0.00  0.00     0.118 A 
ATOM      4  C   UNL d   1      32.078  16.577 -23.485  0.00  0.00     0.118 A 
ATOM      5  C   UNL d   1      30.802  17.233 -24.296  0.00  0.00     0.029 A 
ATOM      6  C   UNL d   1      31.469  16.092 -23.755  0.00  0.00     0.029 A 
ATOM      7  O   UNL d   1      32.661  17.876 -23.348  0.00  0.00    -0.324 OA
ATOM      8  C   UNL d   1      33.240  18.396 -23.098  0.00  0.00     0.182 C 
ENDROOT
BRANCH   4   9
ATOM      9  O   UNL d   1      32.718  16.247 -23.077  0.00  0.00    -0.326 OA
ATOM     10  C   UNL d   1      32.988  15.499 -23.275  0.00  0.00     0.181 C 
ENDBRANCH   4   9
BRANCH   3  11
ATOM     11  O   UNL d   1      31.377  18.550 -24.167  0.00  0.00    -0.326 OA
ATOM     12  C   UNL d   1      31.255  18.831 -24.943  0.00  0.00     0.181 C 
ENDBRANCH   3  11
BRANCH   1  13
ATOM     13  C   UNL d   1      30.226  15.934 -24.429  0.00  0.00     0.120 C 
ATOM     14  S   UNL d   1      30.354  15.453 -25.097  0.00  0.00    -0.059 SA
BRANCH  13  15
ATOM     15  N   UNL d   1      29.495  15.925 -24.036  0.00  0.00    -0.292 N 
ATOM     16  C   UNL d   1      28.860  16.272 -24.403  0.00  0.00     0.108 A 
ATOM     17  C   UNL d   1      28.116  16.276 -24.030  0.00  0.00     0.142 A 
ATOM     18  O   UNL d   1      28.026  15.930 -23.291  0.00  0.00    -0.300 OA
ATOM     19  C   UNL d   1      28.675  15.578 -22.923  0.00  0.00     0.142 A 
ATOM     20  C   UNL d   1      29.405  15.576 -23.293  0.00  0.00     0.108 A 
ENDBRANCH  13  15
ENDBRANCH   1  13
TORSDOF 4
ENDMDL
