MODEL 1
REMARK VINA RESULT:      -7.7      0.000      0.000
REMARK  5 active torsions:
REMARK  status: ('A' for Active; 'I' for Inactive)
REMARK    1  A    between atoms: N_2  and  C_7 
REMARK    2  A    between atoms: N_8  and  C_3 
REMARK    3  A    between atoms: C_11  and  C_4 
REMARK    4  A    between atoms: N_9  and  N_8 
REMARK    5  A    between atoms: C_17  and  N_9 
ROOT
ATOM      1  N   UNL d   1      53.458  31.398  54.061  0.00  0.00    -0.219 NA
ATOM      2  C   UNL d   1      53.332  30.712  53.611  0.00  0.00     0.215 A 
ATOM      3  C   UNL d   1      53.159  32.049  53.618  0.00  0.00     0.090 A 
ATOM      4  S   UNL d   1      52.969  30.933  52.917  0.00  0.00    -0.045 SA
ATOM      5  C   UNL d   1      52.862  31.756  52.919  0.00  0.00     0.058 A 
ENDROOT
BRANCH   3   6
ATOM      6  C   UNL d   1      53.187  32.838  53.890  0.00  0.00     0.018 A 
ATOM      7  C   UNL d   1      53.809  33.088  54.362  0.00  0.00     0.003 A 
ATOM      8  C   UNL d   1      53.844  33.847  54.629  0.00  0.00     0.024 A 
ATOM      9  C   UNL d   1      53.242  34.382  54.424  0.00  0.00     0.127 A 
ATOM     10  C   UNL d   1      52.625  34.140  53.958  0.00  0.00     0.024 A 
ATOM     11  C   UNL d   1      52.592  33.343  53.680  0.00  0.00     0.003 A 
BRANCH   9  12
ATOM     12  N   UNL d   1      53.263  35.153  54.686  0.00  0.00    -0.114 N 
ATOM     13  O   UNL d   1      53.316  35.811  54.201  0.00  0.00    -0.532 OA
ATOM     14  O   UNL d   1      53.233  35.352  55.466  0.00  0.00    -0.532 OA
ENDBRANCH   9  12
ENDBRANCH   3   6
BRANCH   2  15
ATOM     15  N   UNL d   1      53.529  29.919  53.804  0.00  0.00    -0.122 NA
BRANCH  15  16
ATOM     16  N   UNL d   1      53.035  29.502  54.326  0.00  0.00    -0.146 NA
BRANCH  16  17
ATOM     17  C   UNL d   1      53.352  28.842  54.739  0.00  0.00     0.103 C 
ATOM     18  C   UNL d   1      53.238  28.789  55.558  0.00  0.00     0.022 C 
ATOM     19  C   UNL d   1      53.769  28.256  54.332  0.00  0.00     0.022 C 
ENDBRANCH  16  17
ENDBRANCH  15  16
ENDBRANCH   2  15
TORSDOF 5
ENDMDL
MODEL 2
REMARK VINA RESULT:      -7.4      2.758      3.646
REMARK  5 active torsions:
REMARK  status: ('A' for Active; 'I' for Inactive)
REMARK    1  A    between atoms: N_2  and  C_7 
REMARK    2  A    between atoms: N_8  and  C_3 
REMARK    3  A    between atoms: C_11  and  C_4 
REMARK    4  A    between atoms: N_9  and  N_8 
REMARK    5  A    between atoms: C_17  and  N_9 
ROOT
ATOM      1  N   UNL d   1      52.829  33.423  53.606  0.00  0.00    -0.219 NA
ATOM      2  C   UNL d   1      53.431  32.859  53.694  0.00  0.00     0.215 A 
ATOM      3  C   UNL d   1      52.248  33.092  53.095  0.00  0.00     0.090 A 
ATOM      4  S   UNL d   1      53.228  32.207  53.254  0.00  0.00    -0.045 SA
ATOM      5  C   UNL d   1      52.499  32.347  52.883  0.00  0.00     0.058 A 
ENDROOT
BRANCH   3   6
ATOM      6  C   UNL d   1      51.552  33.497  52.873  0.00  0.00     0.018 A 
ATOM      7  C   UNL d   1      51.560  34.005  52.229  0.00  0.00     0.003 A 
ATOM      8  C   UNL d   1      50.894  34.400  52.007  0.00  0.00     0.024 A 
ATOM      9  C   UNL d   1      50.189  34.290  52.437  0.00  0.00     0.127 A 
ATOM     10  C   UNL d   1      50.177  33.790  53.074  0.00  0.00     0.024 A 
ATOM     11  C   UNL d   1      50.877  33.378  53.303  0.00  0.00     0.003 A 
BRANCH   9  12
ATOM     12  N   UNL d   1      49.508  34.682  52.225  0.00  0.00    -0.114 N 
ATOM     13  O   UNL d   1      49.122  34.596  51.507  0.00  0.00    -0.532 OA
ATOM     14  O   UNL d   1      49.134  35.206  52.710  0.00  0.00    -0.532 OA
ENDBRANCH   9  12
ENDBRANCH   3   6
BRANCH   2  15
ATOM     15  N   UNL d   1      54.137  32.916  54.147  0.00  0.00    -0.122 NA
BRANCH  15  16
ATOM     16  N   UNL d   1      54.302  33.630  54.538  0.00  0.00    -0.146 NA
BRANCH  16  17
ATOM     17  C   UNL d   1      54.948  33.656  55.074  0.00  0.00     0.103 C 
ATOM     18  C   UNL d   1      54.822  33.437  55.864  0.00  0.00     0.022 C 
ATOM     19  C   UNL d   1      55.696  33.894  54.817  0.00  0.00     0.022 C 
ENDBRANCH  16  17
ENDBRANCH  15  16
ENDBRANCH   2  15
TORSDOF 5
ENDMDL
MODEL 3
REMARK VINA RESULT:      -7.4      2.935      4.796
REMARK  5 active torsions:
REMARK  status: ('A' for Active; 'I' for Inactive)
REMARK    1  A    between atoms: N_2  and  C_7 
REMARK    2  A    between atoms: N_8  and  C_3 
REMARK    3  A    between atoms: C_11  and  C_4 
REMARK    4  A    between atoms: N_9  and  N_8 
REMARK    5  A    between atoms: C_17  and  N_9 
ROOT
ATOM      1  N   UNL d   1      51.749  33.207  52.864  0.00  0.00    -0.219 NA
ATOM      2  C   UNL d   1      51.678  34.033  52.828  0.00  0.00     0.215 A 
ATOM      3  C   UNL d   1      52.514  33.033  53.169  0.00  0.00     0.090 A 
ATOM      4  S   UNL d   1      52.373  34.355  53.100  0.00  0.00    -0.045 SA
ATOM      5  C   UNL d   1      52.890  33.741  53.311  0.00  0.00     0.058 A 
ENDROOT
BRANCH   3   6
ATOM      6  C   UNL d   1      52.793  32.255  53.287  0.00  0.00     0.018 A 
ATOM      7  C   UNL d   1      52.475  31.635  52.853  0.00  0.00     0.003 A 
ATOM      8  C   UNL d   1      52.737  30.881  52.960  0.00  0.00     0.024 A 
ATOM      9  C   UNL d   1      53.337  30.730  53.516  0.00  0.00     0.127 A 
ATOM     10  C   UNL d   1      53.653  31.339  53.947  0.00  0.00     0.024 A 
ATOM     11  C   UNL d   1      53.376  32.128  53.832  0.00  0.00     0.003 A 
BRANCH   9  12
ATOM     12  N   UNL d   1      53.613  29.973  53.636  0.00  0.00    -0.114 N 
ATOM     13  O   UNL d   1      53.199  29.379  54.019  0.00  0.00    -0.532 OA
ATOM     14  O   UNL d   1      54.337  29.725  53.384  0.00  0.00    -0.532 OA
ENDBRANCH   9  12
ENDBRANCH   3   6
BRANCH   2  15
ATOM     15  N   UNL d   1      51.023  34.489  52.563  0.00  0.00    -0.122 NA
BRANCH  15  16
ATOM     16  N   UNL d   1      50.263  34.284  52.828  0.00  0.00    -0.146 NA
BRANCH  16  17
ATOM     17  C   UNL d   1      49.604  34.712  52.531  0.00  0.00     0.103 C 
ATOM     18  C   UNL d   1      49.198  35.225  53.039  0.00  0.00     0.022 C 
ATOM     19  C   UNL d   1      49.367  34.621  51.745  0.00  0.00     0.022 C 
ENDBRANCH  16  17
ENDBRANCH  15  16
ENDBRANCH   2  15
TORSDOF 5
ENDMDL
MODEL 4
REMARK VINA RESULT:      -7.3      2.208      2.590
REMARK  5 active torsions:
REMARK  status: ('A' for Active; 'I' for Inactive)
REMARK    1  A    between atoms: N_2  and  C_7 
REMARK    2  A    between atoms: N_8  and  C_3 
REMARK    3  A    between atoms: C_11  and  C_4 
REMARK    4  A    between atoms: N_9  and  N_8 
REMARK    5  A    between atoms: C_17  and  N_9 
ROOT
ATOM      1  N   UNL d   1      52.441  32.136  53.170  0.00  0.00    -0.219 NA
ATOM      2  C   UNL d   1      53.206  31.898  53.389  0.00  0.00     0.215 A 
ATOM      3  C   UNL d   1      52.423  32.978  53.195  0.00  0.00     0.090 A 
ATOM      4  S   UNL d   1      53.641  32.568  53.543  0.00  0.00    -0.045 SA
ATOM      5  C   UNL d   1      53.161  33.235  53.424  0.00  0.00     0.058 A 
ENDROOT
BRANCH   3   6
ATOM      6  C   UNL d   1      51.743  33.425  53.009  0.00  0.00     0.018 A 
ATOM      7  C   UNL d   1      51.733  33.896  52.338  0.00  0.00     0.003 A 
ATOM      8  C   UNL d   1      51.082  34.332  52.150  0.00  0.00     0.024 A 
ATOM      9  C   UNL d   1      50.412  34.302  52.643  0.00  0.00     0.127 A 
ATOM     10  C   UNL d   1      50.418  33.838  53.307  0.00  0.00     0.024 A 
ATOM     11  C   UNL d   1      51.102  33.384  53.500  0.00  0.00     0.003 A 
BRANCH   9  12
ATOM     12  N   UNL d   1      49.746  34.737  52.466  0.00  0.00    -0.114 N 
ATOM     13  O   UNL d   1      49.369  34.739  51.739  0.00  0.00    -0.532 OA
ATOM     14  O   UNL d   1      49.383  35.218  52.999  0.00  0.00    -0.532 OA
ENDBRANCH   9  12
ENDBRANCH   3   6
BRANCH   2  15
ATOM     15  N   UNL d   1      53.511  31.118  53.452  0.00  0.00    -0.122 NA
BRANCH  15  16
ATOM     16  N   UNL d   1      53.021  30.523  53.763  0.00  0.00    -0.146 NA
BRANCH  16  17
ATOM     17  C   UNL d   1      53.272  29.723  53.704  0.00  0.00     0.103 C 
ATOM     18  C   UNL d   1      53.471  29.315  54.397  0.00  0.00     0.022 C 
ATOM     19  C   UNL d   1      53.318  29.353  52.968  0.00  0.00     0.022 C 
ENDBRANCH  16  17
ENDBRANCH  15  16
ENDBRANCH   2  15
TORSDOF 5
ENDMDL
MODEL 5
REMARK VINA RESULT:      -7.2      2.763      4.614
REMARK  5 active torsions:
REMARK  status: ('A' for Active; 'I' for Inactive)
REMARK    1  A    between atoms: N_2  and  C_7 
REMARK    2  A    between atoms: N_8  and  C_3 
REMARK    3  A    between atoms: C_11  and  C_4 
REMARK    4  A    between atoms: N_9  and  N_8 
REMARK    5  A    between atoms: C_17  and  N_9 
ROOT
ATOM      1  N   UNL d   1      51.088  34.245  53.449  0.00  0.00    -0.219 NA
ATOM      2  C   UNL d   1      50.594  34.327  52.787  0.00  0.00     0.215 A 
ATOM      3  C   UNL d   1      51.857  34.052  53.167  0.00  0.00     0.090 A 
ATOM      4  S   UNL d   1      51.042  34.190  52.123  0.00  0.00    -0.045 SA
ATOM      5  C   UNL d   1      51.821  34.020  52.354  0.00  0.00     0.058 A 
ENDROOT
BRANCH   3   6
ATOM      6  C   UNL d   1      52.510  33.925  53.671  0.00  0.00     0.018 A 
ATOM      7  C   UNL d   1      52.816  34.546  54.110  0.00  0.00     0.003 A 
ATOM      8  C   UNL d   1      53.446  34.434  54.600  0.00  0.00     0.024 A 
ATOM      9  C   UNL d   1      53.788  33.678  54.660  0.00  0.00     0.127 A 
ATOM     10  C   UNL d   1      53.489  33.061  54.229  0.00  0.00     0.024 A 
ATOM     11  C   UNL d   1      52.829  33.184  53.717  0.00  0.00     0.003 A 
BRANCH   9  12
ATOM     12  N   UNL d   1      54.425  33.548  55.151  0.00  0.00    -0.114 N 
ATOM     13  O   UNL d   1      55.071  34.048  55.222  0.00  0.00    -0.532 OA
ATOM     14  O   UNL d   1      54.488  32.901  55.627  0.00  0.00    -0.532 OA
ENDBRANCH   9  12
ENDBRANCH   3   6
BRANCH   2  15
ATOM     15  N   UNL d   1      49.775  34.517  52.767  0.00  0.00    -0.122 NA
BRANCH  15  16
ATOM     16  N   UNL d   1      49.540  35.287  52.971  0.00  0.00    -0.146 NA
BRANCH  16  17
ATOM     17  C   UNL d   1      48.725  35.485  52.924  0.00  0.00     0.103 C 
ATOM     18  C   UNL d   1      48.367  35.862  53.569  0.00  0.00     0.022 C 
ATOM     19  C   UNL d   1      48.290  35.306  52.245  0.00  0.00     0.022 C 
ENDBRANCH  16  17
ENDBRANCH  15  16
ENDBRANCH   2  15
TORSDOF 5
ENDMDL
