MODEL 1
REMARK VINA RESULT:      -5.5      0.000      0.000
REMARK  1 active torsions:
REMARK  status: ('A' for Active; 'I' for Inactive)
REMARK    1  A    between atoms: C_6  and  C_1 
ROOT
ATOM      1  C   UNL d   1     -41.648-122.578 -52.983  0.00  0.00     0.162 A 
ATOM      2  N   UNL d   1     -42.207-122.087 -53.346  0.00  0.00    -0.225 NA
ATOM      3  N   UNL d   1     -41.242-122.981 -53.559  0.00  0.00    -0.225 NA
ATOM      4  C   UNL d   1     -42.149-122.185 -54.166  0.00  0.00     0.101 A 
ATOM      5  C   UNL d   1     -41.556-122.735 -54.291  0.00  0.00     0.101 A 
ATOM      6  C   UNL d   1     -42.554-121.850 -54.799  0.00  0.00     0.021 A 
ATOM      7  C   UNL d   1     -41.355-122.962 -55.065  0.00  0.00     0.021 A 
ATOM      8  C   UNL d   1     -42.370-122.062 -55.584  0.00  0.00     0.002 A 
ATOM      9  C   UNL d   1     -41.769-122.620 -55.731  0.00  0.00     0.002 A 
ENDROOT
BRANCH   1  10
ATOM     10  C   UNL d   1     -41.562-122.612 -52.193  0.00  0.00     0.036 A 
ATOM     11  C   UNL d   1     -41.647-121.925 -51.738  0.00  0.00     0.005 A 
ATOM     12  C   UNL d   1     -41.559-121.951 -50.919  0.00  0.00     0.030 A 
ATOM     13  C   UNL d   1     -41.387-122.665 -50.546  0.00  0.00     0.140 A 
ATOM     14  C   UNL d   1     -41.302-123.352 -50.995  0.00  0.00     0.030 A 
ATOM     15  F   UNL d   1     -41.300-122.678 -49.712  0.00  0.00    -0.204 F 
ATOM     16  C   UNL d   1     -41.387-123.335 -51.807  0.00  0.00     0.005 A 
ENDBRANCH   1  10
TORSDOF 1
ENDMDL
MODEL 2
REMARK VINA RESULT:      -2.5      0.723      1.087
REMARK  1 active torsions:
REMARK  status: ('A' for Active; 'I' for Inactive)
REMARK    1  A    between atoms: C_6  and  C_1 
ROOT
ATOM      1  C   UNL d   1     -41.815-122.381 -52.521  0.00  0.00     0.162 A 
ATOM      2  N   UNL d   1     -41.222-122.059 -53.001  0.00  0.00    -0.225 NA
ATOM      3  N   UNL d   1     -42.438-122.604 -52.991  0.00  0.00    -0.225 NA
ATOM      4  C   UNL d   1     -41.479-122.082 -53.787  0.00  0.00     0.101 A 
ATOM      5  C   UNL d   1     -42.226-122.417 -53.776  0.00  0.00     0.101 A 
ATOM      6  C   UNL d   1     -41.135-121.844 -54.496  0.00  0.00     0.021 A 
ATOM      7  C   UNL d   1     -42.646-122.522 -54.485  0.00  0.00     0.021 A 
ATOM      8  C   UNL d   1     -41.537-121.939 -55.219  0.00  0.00     0.002 A 
ATOM      9  C   UNL d   1     -42.298-122.279 -55.227  0.00  0.00     0.002 A 
ENDROOT
BRANCH   1  10
ATOM     10  C   UNL d   1     -41.738-122.439 -51.732  0.00  0.00     0.036 A 
ATOM     11  C   UNL d   1     -42.181-123.001 -51.314  0.00  0.00     0.005 A 
ATOM     12  C   UNL d   1     -42.108-123.069 -50.496  0.00  0.00     0.030 A 
ATOM     13  C   UNL d   1     -41.591-122.576 -50.087  0.00  0.00     0.140 A 
ATOM     14  C   UNL d   1     -41.148-122.013 -50.498  0.00  0.00     0.030 A 
ATOM     15  F   UNL d   1     -41.526-122.655 -49.254  0.00  0.00    -0.204 F 
ATOM     16  C   UNL d   1     -41.214-121.940 -51.309  0.00  0.00     0.005 A 
ENDBRANCH   1  10
TORSDOF 1
ENDMDL
