MODEL 1
REMARK VINA RESULT:      16.1      0.000      0.000
REMARK  5 active torsions:
REMARK  status: ('A' for Active; 'I' for Inactive)
REMARK    1  A    between atoms: C_2  and  S_1 
REMARK    2  A    between atoms: C_3  and  S_1 
REMARK    3  A    between atoms: C_5  and  C_3 
REMARK    4  A    between atoms: O_13  and  C_8 
REMARK    5  A    between atoms: O_14  and  C_10 
ROOT
ATOM      1  C   UNL d   1     -57.519 -98.756 -44.375  0.00  0.00     0.048 A 
ATOM      2  C   UNL d   1     -58.213 -98.756 -44.814  0.00  0.00     0.030 A 
ATOM      3  C   UNL d   1     -58.943 -98.756 -44.423  0.00  0.00     0.116 A 
ATOM      4  C   UNL d   1     -58.974 -98.756 -43.599  0.00  0.00     0.116 A 
ATOM      5  C   UNL d   1     -57.541 -98.756 -43.550  0.00  0.00     0.006 A 
ATOM      6  C   UNL d   1     -58.266 -98.756 -43.164  0.00  0.00     0.026 A 
ENDROOT
BRANCH   1   7
ATOM      7  C   UNL d   1     -56.789 -98.756 -44.766  0.00  0.00     0.227 C 
ATOM      8  O   UNL d   1     -56.767 -98.756 -45.590  0.00  0.00    -0.279 OA
BRANCH   7   9
ATOM      9  S   UNL d   1     -56.090 -98.755 -44.328  0.00  0.00    -0.020 SA
BRANCH   9  10
ATOM     10  C   UNL d   1     -55.559 -99.380 -44.407  0.00  0.00     0.143 A 
ATOM     11  N   UNL d   1     -55.227 -99.646 -45.122  0.00  0.00    -0.230 NA
ATOM     12  C   UNL d   1     -54.729-100.281 -44.941  0.00  0.00     0.107 A 
ATOM     13  C   UNL d   1     -54.750-100.407 -44.128  0.00  0.00     0.058 A 
ATOM     14  S   UNL d   1     -55.261 -99.852 -43.805  0.00  0.00    -0.059 SA
ENDBRANCH   9  10
ENDBRANCH   7   9
ENDBRANCH   1   7
BRANCH   3  15
ATOM     15  O   UNL d   1     -59.624 -98.756 -44.886  0.00  0.00    -0.326 OA
ATOM     16  C   UNL d   1     -59.559 -98.767 -45.709  0.00  0.00     0.181 C 
ENDBRANCH   3  15
BRANCH   4  17
ATOM     17  O   UNL d   1     -59.695 -98.756 -43.212  0.00  0.00    -0.326 OA
ATOM     18  C   UNL d   1     -59.726 -98.812 -42.390  0.00  0.00     0.181 C 
ENDBRANCH   4  17
TORSDOF 5
ENDMDL
