MODEL 1
REMARK VINA RESULT:      -9.4      0.000      0.000
REMARK  4 active torsions:
REMARK  status: ('A' for Active; 'I' for Inactive)
REMARK    1  A    between atoms: C_6  and  C_1 
REMARK       I    between atoms: N_11  and  C_6 
REMARK    2  A    between atoms: O_14  and  C_9 
REMARK    3  A    between atoms: C_16  and  N_11 
REMARK    4  A    between atoms: C_12  and  C_16 
ROOT
ATOM      1  C   UNL d   1      53.369  31.778  53.579  0.00  0.00     0.121 A 
ATOM      2  C   UNL d   1      52.853  32.330  53.229  0.00  0.00     0.305 A 
ATOM      3  O   UNL d   1      52.890  33.131  53.458  0.00  0.00    -0.271 OA
ATOM      4  C   UNL d   1      53.925  32.024  54.160  0.00  0.00     0.012 A 
ATOM      5  C   UNL d   1      53.434  33.379  54.028  0.00  0.00     0.125 A 
ATOM      6  C   UNL d   1      53.948  32.824  54.376  0.00  0.00     0.025 A 
ATOM      7  O   UNL d   1      52.308  32.088  52.658  0.00  0.00    -0.259 OA
ATOM      8  C   UNL d   1      53.470  34.166  54.254  0.00  0.00     0.117 A 
ATOM      9  C   UNL d   1      54.493  33.072  54.947  0.00  0.00     0.002 A 
ATOM     10  C   UNL d   1      54.524  33.865  55.170  0.00  0.00     0.002 A 
ATOM     11  C   UNL d   1      54.013  34.412  54.823  0.00  0.00     0.026 A 
ENDROOT
BRANCH   1  12
ATOM     12  C   UNL d   1      53.338  30.985  53.357  0.00  0.00     0.284 C 
ATOM     13  O   UNL d   1      53.342  30.779  52.558  0.00  0.00    -0.265 OA
ATOM     14  N   UNL d   1      53.303  30.400  53.934  0.00  0.00    -0.206 NA
BRANCH  14  15
ATOM     15  C   UNL d   1      53.271  29.599  53.714  0.00  0.00     0.102 C 
BRANCH  15  16
ATOM     16  C   UNL d   1      53.016  29.034  54.258  0.00  0.00     0.021 C 
ATOM     17  C   UNL d   1      53.563  28.537  54.622  0.00  0.00     0.002 C 
ENDBRANCH  15  16
ENDBRANCH  14  15
ENDBRANCH   1  12
BRANCH   8  18
ATOM     18  O   UNL d   1      52.959  34.713  53.908  0.00  0.00    -0.326 OA
ATOM     19  C   UNL d   1      52.946  35.493  54.174  0.00  0.00     0.181 C 
ENDBRANCH   8  18
TORSDOF 4
ENDMDL
MODEL 2
REMARK VINA RESULT:      -8.3      2.311      3.779
REMARK  4 active torsions:
REMARK  status: ('A' for Active; 'I' for Inactive)
REMARK    1  A    between atoms: C_6  and  C_1 
REMARK       I    between atoms: N_11  and  C_6 
REMARK    2  A    between atoms: O_14  and  C_9 
REMARK    3  A    between atoms: C_16  and  N_11 
REMARK    4  A    between atoms: C_12  and  C_16 
ROOT
ATOM      1  C   UNL d   1      52.064  33.960  52.919  0.00  0.00     0.121 A 
ATOM      2  C   UNL d   1      52.457  34.504  53.412  0.00  0.00     0.305 A 
ATOM      3  O   UNL d   1      53.072  34.241  53.909  0.00  0.00    -0.271 OA
ATOM      4  C   UNL d   1      52.283  33.149  52.922  0.00  0.00     0.012 A 
ATOM      5  C   UNL d   1      53.293  33.445  53.916  0.00  0.00     0.125 A 
ATOM      6  C   UNL d   1      52.897  32.903  53.423  0.00  0.00     0.025 A 
ATOM      7  O   UNL d   1      52.241  35.302  53.408  0.00  0.00    -0.259 OA
ATOM      8  C   UNL d   1      53.897  33.184  54.405  0.00  0.00     0.117 A 
ATOM      9  C   UNL d   1      53.118  32.105  53.430  0.00  0.00     0.002 A 
ATOM     10  C   UNL d   1      53.726  31.851  53.923  0.00  0.00     0.002 A 
ATOM     11  C   UNL d   1      54.116  32.390  54.411  0.00  0.00     0.026 A 
ENDROOT
BRANCH   1  12
ATOM     12  C   UNL d   1      51.455  34.214  52.425  0.00  0.00     0.284 C 
ATOM     13  O   UNL d   1      51.620  34.441  51.649  0.00  0.00    -0.265 OA
ATOM     14  N   UNL d   1      50.683  34.242  52.709  0.00  0.00    -0.206 NA
BRANCH  14  15
ATOM     15  C   UNL d   1      50.066  34.498  52.214  0.00  0.00     0.102 C 
BRANCH  15  16
ATOM     16  C   UNL d   1      49.298  34.551  52.510  0.00  0.00     0.021 C 
ATOM     17  C   UNL d   1      48.708  34.912  52.062  0.00  0.00     0.002 C 
ENDBRANCH  15  16
ENDBRANCH  14  15
ENDBRANCH   1  12
BRANCH   8  18
ATOM     18  O   UNL d   1      54.287  33.724  54.892  0.00  0.00    -0.326 OA
ATOM     19  C   UNL d   1      54.913  33.475  55.366  0.00  0.00     0.181 C 
ENDBRANCH   8  18
TORSDOF 4
ENDMDL
MODEL 3
REMARK VINA RESULT:      -8.3      1.422      4.166
REMARK  4 active torsions:
REMARK  status: ('A' for Active; 'I' for Inactive)
REMARK    1  A    between atoms: C_6  and  C_1 
REMARK       I    between atoms: N_11  and  C_6 
REMARK    2  A    between atoms: O_14  and  C_9 
REMARK    3  A    between atoms: C_16  and  N_11 
REMARK    4  A    between atoms: C_12  and  C_16 
ROOT
ATOM      1  C   UNL d   1      53.721  32.533  54.071  0.00  0.00     0.121 A 
ATOM      2  C   UNL d   1      53.855  32.068  54.749  0.00  0.00     0.305 A 
ATOM      3  O   UNL d   1      53.689  31.251  54.727  0.00  0.00    -0.271 OA
ATOM      4  C   UNL d   1      53.421  32.184  53.368  0.00  0.00     0.012 A 
ATOM      5  C   UNL d   1      53.394  30.902  54.040  0.00  0.00     0.125 A 
ATOM      6  C   UNL d   1      53.262  31.370  53.364  0.00  0.00     0.025 A 
ATOM      7  O   UNL d   1      54.150  32.413  55.439  0.00  0.00    -0.259 OA
ATOM      8  C   UNL d   1      53.231  30.099  54.018  0.00  0.00     0.117 A 
ATOM      9  C   UNL d   1      52.966  31.020  52.674  0.00  0.00     0.002 A 
ATOM     10  C   UNL d   1      52.805  30.212  52.660  0.00  0.00     0.002 A 
ATOM     11  C   UNL d   1      52.937  29.751  53.331  0.00  0.00     0.026 A 
ENDROOT
BRANCH   1  12
ATOM     12  C   UNL d   1      53.882  33.341  54.086  0.00  0.00     0.284 C 
ATOM     13  O   UNL d   1      54.662  33.608  54.044  0.00  0.00    -0.265 OA
ATOM     14  N   UNL d   1      53.264  33.881  54.143  0.00  0.00    -0.206 NA
BRANCH  14  15
ATOM     15  C   UNL d   1      53.423  34.697  54.158  0.00  0.00     0.102 C 
BRANCH  15  16
ATOM     16  C   UNL d   1      52.800  35.236  54.128  0.00  0.00     0.021 C 
ATOM     17  C   UNL d   1      52.825  35.921  54.585  0.00  0.00     0.002 C 
ENDBRANCH  15  16
ENDBRANCH  14  15
ENDBRANCH   1  12
BRANCH   8  18
ATOM     18  O   UNL d   1      53.364  29.638  54.689  0.00  0.00    -0.326 OA
ATOM     19  C   UNL d   1      53.283  28.819  54.651  0.00  0.00     0.181 C 
ENDBRANCH   8  18
TORSDOF 4
ENDMDL
