MODEL 1
REMARK VINA RESULT:      92.3      0.000      0.000
REMARK  4 active torsions:
REMARK  status: ('A' for Active; 'I' for Inactive)
REMARK    1  A    between atoms: C_2  and  S_1 
REMARK    2  A    between atoms: N_3  and  S_1 
REMARK    3  A    between atoms: C_5  and  C_6 
REMARK       I    between atoms: N_7  and  C_5 
REMARK    4  A    between atoms: C_15  and  N_7 
ROOT
ATOM      1  C   UNL d   1     -57.993 -99.335 -43.979  0.00  0.00     0.115 A 
ATOM      2  C   UNL d   1     -58.217 -99.302 -43.176  0.00  0.00     0.019 A 
ATOM      3  C   UNL d   1     -58.960 -99.013 -42.964  0.00  0.00     0.059 A 
ATOM      4  C   UNL d   1     -58.522 -99.076 -44.555  0.00  0.00     0.070 A 
ATOM      5  C   UNL d   1     -59.483 -98.755 -43.554  0.00  0.00     0.006 A 
ATOM      6  C   UNL d   1     -59.265 -98.787 -44.343  0.00  0.00     0.012 A 
ATOM      7 CL   UNL d   1     -58.299 -99.109 -45.358  0.00  0.00    -0.082 Cl
ENDROOT
BRANCH   1   8
ATOM      8  S   UNL d   1     -57.250 -99.624 -44.191  0.00  0.00     0.272 S 
ATOM      9  O   UNL d   1     -57.421-100.341 -43.812  0.00  0.00    -0.200 OA
ATOM     10  O   UNL d   1     -57.081 -98.914 -44.567  0.00  0.00    -0.200 OA
BRANCH   8  11
ATOM     11  N   UNL d   1     -56.512 -99.912 -44.402  0.00  0.00    -0.229 N 
ATOM     12  C   UNL d   1     -56.055 -99.346 -44.865  0.00  0.00     0.092 A 
ATOM     13  C   UNL d   1     -55.404 -99.344 -45.164  0.00  0.00     0.020 A 
ATOM     14  C   UNL d   1     -54.854 -99.976 -45.135  0.00  0.00     0.002 A 
ATOM     15  C   UNL d   1     -54.960-100.749 -44.740  0.00  0.00     0.002 A 
ATOM     16  C   UNL d   1     -55.672-101.029 -44.288  0.00  0.00     0.020 A 
ATOM     17  C   UNL d   1     -56.376-100.592 -44.160  0.00  0.00     0.092 A 
ENDBRANCH   8  11
ENDBRANCH   1   8
BRANCH   3  18
ATOM     18  C   UNL d   1     -59.185 -98.978 -42.173  0.00  0.00     0.279 C 
ATOM     19  N   UNL d   1     -58.646 -99.153 -41.579  0.00  0.00    -0.206 NA
ATOM     20  O   UNL d   1     -59.958 -98.765 -41.976  0.00  0.00    -0.265 OA
BRANCH  19  21
ATOM     21  C   UNL d   1     -58.869 -99.119 -40.785  0.00  0.00     0.104 A 
ATOM     22  C   UNL d   1     -58.311 -98.962 -40.215  0.00  0.00     0.118 A 
ATOM     23  N   UNL d   1     -58.536 -98.929 -39.424  0.00  0.00    -0.241 NA
ATOM     24  C   UNL d   1     -59.328 -99.056 -39.214  0.00  0.00     0.099 A 
ATOM     25  C   UNL d   1     -59.888 -99.215 -39.793  0.00  0.00     0.022 A 
ATOM     26  C   UNL d   1     -59.660 -99.248 -40.593  0.00  0.00     0.022 A 
ENDBRANCH  19  21
ENDBRANCH   3  18
TORSDOF 4
ENDMDL
