MODEL 1
REMARK VINA RESULT:      -2.8      0.000      0.000
REMARK  2 active torsions:
REMARK  status: ('A' for Active; 'I' for Inactive)
REMARK    1  A    between atoms: S_12  and  C_3 
REMARK    2  A    between atoms: C_14  and  S_12 
ROOT
ATOM      1  N   UNL d   1      33.138  18.747 -22.907  0.00  0.00    -0.195 NA
ATOM      2  C   UNL d   1      33.093  19.436 -22.458  0.00  0.00     0.086 C 
ATOM      3  C   UNL d   1      33.046  20.119 -21.998  0.00  0.00     0.170 C 
ENDROOT
BRANCH   3   4
ATOM      4  S   UNL d   1      33.167  20.853 -22.355  0.00  0.00    -0.060 SA
BRANCH   4   5
ATOM      5  C   UNL d   1      33.110  21.545 -21.903  0.00  0.00     0.177 A 
ATOM      6  N   UNL d   1      33.105  22.280 -22.278  0.00  0.00    -0.270 N 
ATOM      7  C   UNL d   1      33.050  22.975 -21.839  0.00  0.00     0.151 A 
ATOM      8  C   UNL d   1      33.147  22.500 -23.077  0.00  0.00     0.085 A 
ATOM      9  N   UNL d   1      33.057  23.615 -22.352  0.00  0.00    -0.227 NA
ATOM     10  C   UNL d   1      32.999  22.922 -21.015  0.00  0.00     0.052 A 
ATOM     11  C   UNL d   1      33.117  23.323 -23.120  0.00  0.00     0.099 A 
ATOM     12  C   UNL d   1      33.149  23.696 -23.852  0.00  0.00     0.021 A 
ATOM     13  C   UNL d   1      33.211  23.245 -24.538  0.00  0.00     0.002 A 
ATOM     14  C   UNL d   1      33.241  22.422 -24.495  0.00  0.00     0.002 A 
ATOM     15  C   UNL d   1      33.209  22.052 -23.763  0.00  0.00     0.019 A 
ATOM     16  C   UNL d   1      32.943  23.613 -20.568  0.00  0.00     0.004 A 
ATOM     17  C   UNL d   1      33.004  22.187 -20.640  0.00  0.00     0.086 A 
ATOM     18  C   UNL d   1      32.892  23.569 -19.743  0.00  0.00     0.000 A 
ATOM     19  C   UNL d   1      32.897  22.834 -19.368  0.00  0.00     0.002 A 
ATOM     20  C   UNL d   1      32.954  22.143 -19.820  0.00  0.00     0.019 A 
ATOM     21  N   UNL d   1      33.060  21.498 -21.087  0.00  0.00    -0.222 NA
ENDBRANCH   4   5
ENDBRANCH   3   4
TORSDOF 2
ENDMDL
MODEL 2
REMARK VINA RESULT:      -2.4      1.087      3.193
REMARK  2 active torsions:
REMARK  status: ('A' for Active; 'I' for Inactive)
REMARK    1  A    between atoms: S_12  and  C_3 
REMARK    2  A    between atoms: C_14  and  S_12 
ROOT
ATOM      1  N   UNL d   1      32.747  22.627 -19.608  0.00  0.00    -0.195 NA
ATOM      2  C   UNL d   1      32.946  22.063 -20.174  0.00  0.00     0.086 C 
ATOM      3  C   UNL d   1      33.146  21.489 -20.732  0.00  0.00     0.170 C 
ENDROOT
BRANCH   3   4
ATOM      4  S   UNL d   1      33.172  21.696 -21.530  0.00  0.00    -0.060 SA
BRANCH   4   5
ATOM      5  C   UNL d   1      33.186  21.104 -22.109  0.00  0.00     0.177 A 
ATOM      6  N   UNL d   1      33.197  21.311 -22.908  0.00  0.00    -0.270 N 
ATOM      7  C   UNL d   1      33.211  20.732 -23.493  0.00  0.00     0.151 A 
ATOM      8  C   UNL d   1      33.196  22.046 -23.294  0.00  0.00     0.085 A 
ATOM      9  N   UNL d   1      33.219  21.095 -24.228  0.00  0.00    -0.227 NA
ATOM     10  C   UNL d   1      33.214  19.936 -23.264  0.00  0.00     0.052 A 
ATOM     11  C   UNL d   1      33.210  21.910 -24.108  0.00  0.00     0.099 A 
ATOM     12  C   UNL d   1      33.212  22.545 -24.629  0.00  0.00     0.021 A 
ATOM     13  C   UNL d   1      33.200  23.315 -24.336  0.00  0.00     0.002 A 
ATOM     14  C   UNL d   1      33.187  23.451 -23.523  0.00  0.00     0.002 A 
ATOM     15  C   UNL d   1      33.185  22.814 -23.004  0.00  0.00     0.019 A 
ATOM     16  C   UNL d   1      33.228  19.349 -23.843  0.00  0.00     0.004 A 
ATOM     17  C   UNL d   1      33.204  19.729 -22.466  0.00  0.00     0.086 A 
ATOM     18  C   UNL d   1      33.232  18.551 -23.623  0.00  0.00     0.000 A 
ATOM     19  C   UNL d   1      33.222  18.344 -22.825  0.00  0.00     0.002 A 
ATOM     20  C   UNL d   1      33.208  18.935 -22.246  0.00  0.00     0.019 A 
ATOM     21  N   UNL d   1      33.190  20.315 -21.888  0.00  0.00    -0.222 NA
ENDBRANCH   4   5
ENDBRANCH   3   4
TORSDOF 2
ENDMDL
MODEL 3
REMARK VINA RESULT:       0.2      4.351      5.981
REMARK  2 active torsions:
REMARK  status: ('A' for Active; 'I' for Inactive)
REMARK    1  A    between atoms: S_12  and  C_3 
REMARK    2  A    between atoms: C_14  and  S_12 
ROOT
ATOM      1  N   UNL d   1      28.284  17.552 -24.279  0.00  0.00    -0.195 NA
ATOM      2  C   UNL d   1      29.059  17.504 -24.554  0.00  0.00     0.086 C 
ATOM      3  C   UNL d   1      29.831  17.459 -24.842  0.00  0.00     0.170 C 
ENDROOT
BRANCH   3   4
ATOM      4  S   UNL d   1      30.444  17.278 -24.320  0.00  0.00    -0.060 SA
BRANCH   4   5
ATOM      5  C   UNL d   1      31.140  17.726 -24.331  0.00  0.00     0.177 A 
ATOM      6  N   UNL d   1      31.821  17.435 -23.968  0.00  0.00    -0.270 N 
ATOM      7  C   UNL d   1      32.520  17.871 -23.972  0.00  0.00     0.151 A 
ATOM      8  C   UNL d   1      31.978  16.731 -23.557  0.00  0.00     0.085 A 
ATOM      9  N   UNL d   1      33.100  17.450 -23.574  0.00  0.00    -0.227 NA
ATOM     10  C   UNL d   1      32.526  18.608 -24.349  0.00  0.00     0.052 A 
ATOM     11  C   UNL d   1      32.767  16.743 -23.315  0.00  0.00     0.099 A 
ATOM     12  C   UNL d   1      33.075  16.109 -22.892  0.00  0.00     0.021 A 
ATOM     13  C   UNL d   1      32.594  15.465 -22.713  0.00  0.00     0.002 A 
ATOM     14  C   UNL d   1      31.805  15.453 -22.954  0.00  0.00     0.002 A 
ATOM     15  C   UNL d   1      31.500  16.087 -23.376  0.00  0.00     0.019 A 
ATOM     16  C   UNL d   1      33.220  19.052 -24.359  0.00  0.00     0.004 A 
ATOM     17  C   UNL d   1      31.845  18.899 -24.713  0.00  0.00     0.086 A 
ATOM     18  C   UNL d   1      33.236  19.790 -24.733  0.00  0.00     0.000 A 
ATOM     19  C   UNL d   1      32.554  20.081 -25.097  0.00  0.00     0.002 A 
ATOM     20  C   UNL d   1      31.858  19.633 -25.086  0.00  0.00     0.019 A 
ATOM     21  N   UNL d   1      31.151  18.455 -24.703  0.00  0.00    -0.222 NA
ENDBRANCH   4   5
ENDBRANCH   3   4
TORSDOF 2
ENDMDL
