MODEL 1
REMARK VINA RESULT:      -4.7      0.000      0.000
REMARK  4 active torsions:
REMARK  status: ('A' for Active; 'I' for Inactive)
REMARK    1  A    between atoms: S_7  and  C_3 
REMARK    2  A    between atoms: C_12  and  S_7 
REMARK    3  A    between atoms: C_9  and  C_12 
REMARK    4  A    between atoms: C_11  and  C_9 
ROOT
ATOM      1  S   UNL d   1     -41.392-122.269 -52.100  0.00  0.00    -0.043 SA
ENDROOT
BRANCH   1   2
ATOM      2  C   UNL d   1     -41.381-122.641 -52.834  0.00  0.00     0.220 A 
ATOM      3  N   UNL d   1     -41.574-122.216 -53.515  0.00  0.00    -0.149 N 
ATOM      4  C   UNL d   1     -41.566-122.581 -54.260  0.00  0.00     0.303 A 
ATOM      5  N   UNL d   1     -41.777-121.419 -53.461  0.00  0.00    -0.037 N 
ATOM      6  C   UNL d   1     -41.360-123.384 -54.304  0.00  0.00     0.161 A 
ATOM      7  O   UNL d   1     -41.757-122.160 -54.934  0.00  0.00    -0.263 OA
ATOM      8  C   UNL d   1     -41.350-123.755 -55.039  0.00  0.00     0.028 C 
ATOM      9  N   UNL d   1     -41.168-123.808 -53.623  0.00  0.00    -0.141 NA
ATOM     10  N   UNL d   1     -41.180-123.434 -52.892  0.00  0.00    -0.121 NA
ENDBRANCH   1   2
BRANCH   1  11
ATOM     11  C   UNL d   1     -41.537-122.706 -51.420  0.00  0.00     0.080 C 
BRANCH  11  12
ATOM     12  C   UNL d   1     -41.523-122.334 -50.690  0.00  0.00     0.202 C 
ATOM     13  O   UNL d   1     -41.143-121.614 -50.585  0.00  0.00    -0.286 OA
BRANCH  12  14
ATOM     14  C   UNL d   1     -41.905-122.697 -50.044  0.00  0.00     0.040 A 
ATOM     15  C   UNL d   1     -41.459-123.152 -49.513  0.00  0.00     0.004 A 
ATOM     16  C   UNL d   1     -41.829-123.514 -48.871  0.00  0.00     0.011 A 
ATOM     17  C   UNL d   1     -42.651-123.421 -48.762  0.00  0.00     0.058 A 
ATOM     18  C   UNL d   1     -43.087-122.970 -49.291  0.00  0.00     0.011 A 
ATOM     19 CL   UNL d   1     -43.018-123.779 -48.128  0.00  0.00    -0.082 Cl
ATOM     20  C   UNL d   1     -42.720-122.606 -49.933  0.00  0.00     0.004 A 
ENDBRANCH  12  14
ENDBRANCH  11  12
ENDBRANCH   1  11
TORSDOF 4
ENDMDL
MODEL 2
REMARK VINA RESULT:      -2.4      2.363      4.691
REMARK  4 active torsions:
REMARK  status: ('A' for Active; 'I' for Inactive)
REMARK    1  A    between atoms: S_7  and  C_3 
REMARK    2  A    between atoms: C_12  and  S_7 
REMARK    3  A    between atoms: C_9  and  C_12 
REMARK    4  A    between atoms: C_11  and  C_9 
ROOT
ATOM      1  S   UNL d   1     -41.232-123.093 -52.453  0.00  0.00    -0.043 SA
ENDROOT
BRANCH   1   2
ATOM      2  C   UNL d   1     -41.573-123.014 -51.708  0.00  0.00     0.220 A 
ATOM      3  N   UNL d   1     -41.518-122.297 -51.303  0.00  0.00    -0.149 N 
ATOM      4  C   UNL d   1     -41.858-122.205 -50.552  0.00  0.00     0.303 A 
ATOM      5  N   UNL d   1     -41.124-121.659 -51.645  0.00  0.00    -0.037 N 
ATOM      6  C   UNL d   1     -42.253-122.853 -50.217  0.00  0.00     0.161 A 
ATOM      7  O   UNL d   1     -41.804-121.495 -50.152  0.00  0.00    -0.263 OA
ATOM      8  C   UNL d   1     -42.593-122.773 -49.472  0.00  0.00     0.028 C 
ATOM      9  N   UNL d   1     -42.308-123.570 -50.621  0.00  0.00    -0.141 NA
ATOM     10  N   UNL d   1     -41.967-123.647 -51.365  0.00  0.00    -0.121 NA
ENDBRANCH   1   2
BRANCH   1  11
ATOM     11  C   UNL d   1     -41.594-122.756 -53.108  0.00  0.00     0.080 C 
BRANCH  11  12
ATOM     12  C   UNL d   1     -41.455-123.069 -53.853  0.00  0.00     0.202 C 
ATOM     13  O   UNL d   1     -41.123-123.814 -53.947  0.00  0.00    -0.286 OA
BRANCH  12  14
ATOM     14  C   UNL d   1     -41.656-122.618 -54.525  0.00  0.00     0.040 A 
ATOM     15  C   UNL d   1     -42.375-122.203 -54.534  0.00  0.00     0.004 A 
ATOM     16  C   UNL d   1     -42.580-121.754 -55.195  0.00  0.00     0.011 A 
ATOM     17  C   UNL d   1     -42.064-121.723 -55.850  0.00  0.00     0.058 A 
ATOM     18  C   UNL d   1     -41.355-122.135 -55.834  0.00  0.00     0.011 A 
ATOM     19 CL   UNL d   1     -42.267-121.279 -56.504  0.00  0.00    -0.082 Cl
ATOM     20  C   UNL d   1     -41.146-122.584 -55.175  0.00  0.00     0.004 A 
ENDBRANCH  12  14
ENDBRANCH  11  12
ENDBRANCH   1  11
TORSDOF 4
ENDMDL
MODEL 3
REMARK VINA RESULT:      -2.2      0.705      1.333
REMARK  4 active torsions:
REMARK  status: ('A' for Active; 'I' for Inactive)
REMARK    1  A    between atoms: S_7  and  C_3 
REMARK    2  A    between atoms: C_12  and  S_7 
REMARK    3  A    between atoms: C_9  and  C_12 
REMARK    4  A    between atoms: C_11  and  C_9 
ROOT
ATOM      1  S   UNL d   1     -41.254-122.436 -51.916  0.00  0.00    -0.043 SA
ENDROOT
BRANCH   1   2
ATOM      2  C   UNL d   1     -41.536-122.353 -52.685  0.00  0.00     0.220 A 
ATOM      3  N   UNL d   1     -41.471-122.979 -53.218  0.00  0.00    -0.149 N 
ATOM      4  C   UNL d   1     -41.752-122.907 -53.995  0.00  0.00     0.303 A 
ATOM      5  N   UNL d   1     -41.123-123.688 -52.983  0.00  0.00    -0.037 N 
ATOM      6  C   UNL d   1     -42.101-122.189 -54.223  0.00  0.00     0.161 A 
ATOM      7  O   UNL d   1     -41.687-123.527 -54.523  0.00  0.00    -0.263 OA
ATOM      8  C   UNL d   1     -42.383-122.107 -54.992  0.00  0.00     0.028 C 
ATOM      9  N   UNL d   1     -42.166-121.563 -53.689  0.00  0.00    -0.141 NA
ATOM     10  N   UNL d   1     -41.883-121.649 -52.923  0.00  0.00    -0.121 NA
ENDBRANCH   1   2
BRANCH   1  11
ATOM     11  C   UNL d   1     -41.713-122.810 -51.347  0.00  0.00     0.080 C 
BRANCH  11  12
ATOM     12  C   UNL d   1     -41.695-122.542 -50.573  0.00  0.00     0.202 C 
ATOM     13  O   UNL d   1     -41.127-122.006 -50.320  0.00  0.00    -0.286 OA
BRANCH  12  14
ATOM     14  C   UNL d   1     -42.267-122.822 -50.035  0.00  0.00     0.040 A 
ATOM     15  C   UNL d   1     -42.943-122.364 -49.888  0.00  0.00     0.004 A 
ATOM     16  C   UNL d   1     -43.514-122.634 -49.356  0.00  0.00     0.011 A 
ATOM     17  C   UNL d   1     -43.405-123.367 -48.972  0.00  0.00     0.058 A 
ATOM     18  C   UNL d   1     -42.735-123.814 -49.122  0.00  0.00     0.011 A 
ATOM     19 CL   UNL d   1     -43.970-123.634 -48.447  0.00  0.00    -0.082 Cl
ATOM     20  C   UNL d   1     -42.163-123.547 -49.652  0.00  0.00     0.004 A 
ENDBRANCH  12  14
ENDBRANCH  11  12
ENDBRANCH   1  11
TORSDOF 4
ENDMDL
