MODEL 1
REMARK VINA RESULT:      -2.6      0.000      0.000
REMARK  4 active torsions:
REMARK  status: ('A' for Active; 'I' for Inactive)
REMARK    1  A    between atoms: N_4  and  S_1 
REMARK    2  A    between atoms: C_5  and  S_1 
REMARK    3  A    between atoms: S_2  and  N_3 
REMARK    4  A    between atoms: C_6  and  S_2 
ROOT
ATOM      1  N   UNL d   1      32.593  17.090 -24.161  0.00  0.00    -0.226 N 
ATOM      2  N   UNL d   1      32.825  18.452 -23.259  0.00  0.00    -0.226 N 
ATOM      3  C   UNL d   1      32.328  17.840 -24.447  0.00  0.00     0.111 A 
ATOM      4  C   UNL d   1      32.445  18.510 -23.996  0.00  0.00     0.111 A 
ATOM      5  C   UNL d   1      33.086  17.717 -22.978  0.00  0.00     0.111 A 
ATOM      6  C   UNL d   1      32.971  17.029 -23.430  0.00  0.00     0.111 A 
ENDROOT
BRANCH   1   7
ATOM      7  S   UNL d   1      32.484  16.363 -24.614  0.00  0.00     0.277 S 
ATOM      8  O   UNL d   1      33.238  16.447 -24.961  0.00  0.00    -0.199 OA
ATOM      9  O   UNL d   1      32.359  15.652 -25.047  0.00  0.00    -0.199 OA
BRANCH   7  10
ATOM     10  C   UNL d   1      31.713  16.269 -24.264  0.00  0.00     0.133 A 
ATOM     11  S   UNL d   1      31.471  16.116 -23.521  0.00  0.00    -0.074 SA
ATOM     12  C   UNL d   1      30.661  16.089 -23.521  0.00  0.00     0.036 A 
ATOM     13  C   UNL d   1      30.377  16.227 -24.274  0.00  0.00     0.008 A 
ATOM     14  C   UNL d   1      31.031  16.341 -24.748  0.00  0.00     0.020 A 
ENDBRANCH   7  10
ENDBRANCH   1   7
BRANCH   2  15
ATOM     15  S   UNL d   1      32.944  19.144 -22.800  0.00  0.00     0.277 S 
ATOM     16  O   UNL d   1      32.888  19.602 -23.488  0.00  0.00    -0.199 OA
ATOM     17  O   UNL d   1      32.997  18.666 -22.117  0.00  0.00    -0.199 OA
BRANCH  15  18
ATOM     18  C   UNL d   1      33.060  19.821 -22.344  0.00  0.00     0.133 A 
ATOM     19  S   UNL d   1      33.129  19.939 -21.530  0.00  0.00    -0.074 SA
ATOM     20  C   UNL d   1      33.241  20.749 -21.402  0.00  0.00     0.036 A 
ATOM     21  C   UNL d   1      33.241  21.120 -22.123  0.00  0.00     0.008 A 
ATOM     22  C   UNL d   1      33.130  20.559 -22.714  0.00  0.00     0.020 A 
ENDBRANCH  15  18
ENDBRANCH   2  15
TORSDOF 4
ENDMDL
MODEL 2
REMARK VINA RESULT:      -2.1      2.024      4.364
REMARK  4 active torsions:
REMARK  status: ('A' for Active; 'I' for Inactive)
REMARK    1  A    between atoms: N_4  and  S_1 
REMARK    2  A    between atoms: C_5  and  S_1 
REMARK    3  A    between atoms: S_2  and  N_3 
REMARK    4  A    between atoms: C_6  and  S_2 
ROOT
ATOM      1  N   UNL d   1      31.602  16.491 -24.534  0.00  0.00    -0.226 N 
ATOM      2  N   UNL d   1      30.030  16.186 -24.136  0.00  0.00    -0.226 N 
ATOM      3  C   UNL d   1      30.975  16.811 -25.002  0.00  0.00     0.111 A 
ATOM      4  C   UNL d   1      30.199  16.657 -24.800  0.00  0.00     0.111 A 
ATOM      5  C   UNL d   1      30.645  15.871 -23.677  0.00  0.00     0.111 A 
ATOM      6  C   UNL d   1      31.437  16.023 -23.876  0.00  0.00     0.111 A 
ENDROOT
BRANCH   1   7
ATOM      7  S   UNL d   1      32.432  16.635 -24.722  0.00  0.00     0.277 S 
ATOM      8  O   UNL d   1      32.494  15.892 -25.097  0.00  0.00    -0.199 OA
ATOM      9  O   UNL d   1      33.241  16.795 -24.896  0.00  0.00    -0.199 OA
BRANCH   7  10
ATOM     10  C   UNL d   1      32.379  17.396 -24.342  0.00  0.00     0.133 A 
ATOM     11  S   UNL d   1      32.077  18.096 -24.572  0.00  0.00    -0.074 SA
ATOM     12  C   UNL d   1      32.186  18.627 -23.970  0.00  0.00     0.036 A 
ATOM     13  C   UNL d   1      32.563  18.265 -23.343  0.00  0.00     0.008 A 
ATOM     14  C   UNL d   1      32.688  17.491 -23.567  0.00  0.00     0.020 A 
ENDBRANCH   7  10
ENDBRANCH   1   7
BRANCH   2  15
ATOM     15  S   UNL d   1      29.232  16.031 -23.934  0.00  0.00     0.277 S 
ATOM     16  O   UNL d   1      29.051  15.944 -24.737  0.00  0.00    -0.199 OA
ATOM     17  O   UNL d   1      29.432  16.122 -23.128  0.00  0.00    -0.199 OA
BRANCH  15  18
ATOM     18  C   UNL d   1      28.447  15.879 -23.728  0.00  0.00     0.133 A 
ATOM     19  S   UNL d   1      27.847  15.453 -24.100  0.00  0.00    -0.074 SA
ATOM     20  C   UNL d   1      27.173  15.498 -23.622  0.00  0.00     0.036 A 
ATOM     21  C   UNL d   1      27.357  15.944 -22.970  0.00  0.00     0.008 A 
ATOM     22  C   UNL d   1      28.141  16.186 -23.021  0.00  0.00     0.020 A 
ENDBRANCH  15  18
ENDBRANCH   2  15
TORSDOF 4
ENDMDL
MODEL 3
REMARK VINA RESULT:      -1.7      2.311      3.214
REMARK  4 active torsions:
REMARK  status: ('A' for Active; 'I' for Inactive)
REMARK    1  A    between atoms: N_4  and  S_1 
REMARK    2  A    between atoms: C_5  and  S_1 
REMARK    3  A    between atoms: S_2  and  N_3 
REMARK    4  A    between atoms: C_6  and  S_2 
ROOT
ATOM      1  N   UNL d   1      29.474  16.402 -24.458  0.00  0.00    -0.226 N 
ATOM      2  N   UNL d   1      30.826  17.347 -24.435  0.00  0.00    -0.226 N 
ATOM      3  C   UNL d   1      30.156  16.158 -24.022  0.00  0.00     0.111 A 
ATOM      4  C   UNL d   1      30.822  16.630 -24.014  0.00  0.00     0.111 A 
ATOM      5  C   UNL d   1      30.157  17.587 -24.862  0.00  0.00     0.111 A 
ATOM      6  C   UNL d   1      29.475  17.112 -24.876  0.00  0.00     0.111 A 
ENDROOT
BRANCH   1   7
ATOM      7  S   UNL d   1      28.754  15.925 -24.486  0.00  0.00     0.277 S 
ATOM      8  O   UNL d   1      29.072  15.453 -25.097  0.00  0.00    -0.199 OA
ATOM      9  O   UNL d   1      28.045  15.472 -24.498  0.00  0.00    -0.199 OA
BRANCH   7  10
ATOM     10  C   UNL d   1      28.423  16.401 -23.863  0.00  0.00     0.133 A 
ATOM     11  S   UNL d   1      28.233  17.173 -23.814  0.00  0.00    -0.074 SA
ATOM     12  C   UNL d   1      27.933  17.313 -23.074  0.00  0.00     0.036 A 
ATOM     13  C   UNL d   1      27.930  16.622 -22.639  0.00  0.00     0.008 A 
ATOM     14  C   UNL d   1      28.235  16.043 -23.127  0.00  0.00     0.020 A 
ENDBRANCH   7  10
ENDBRANCH   1   7
BRANCH   2  15
ATOM     15  S   UNL d   1      31.512  17.828 -24.423  0.00  0.00     0.277 S 
ATOM     16  O   UNL d   1      31.219  18.252 -25.071  0.00  0.00    -0.199 OA
ATOM     17  O   UNL d   1      31.793  17.388 -23.770  0.00  0.00    -0.199 OA
BRANCH  15  18
ATOM     18  C   UNL d   1      32.191  18.298 -24.407  0.00  0.00     0.133 A 
ATOM     19  S   UNL d   1      32.591  18.718 -24.993  0.00  0.00    -0.074 SA
ATOM     20  C   UNL d   1      33.241  19.087 -24.639  0.00  0.00     0.036 A 
ATOM     21  C   UNL d   1      33.239  18.896 -23.850  0.00  0.00     0.008 A 
ATOM     22  C   UNL d   1      32.596  18.409 -23.693  0.00  0.00     0.020 A 
ENDBRANCH  15  18
ENDBRANCH   2  15
TORSDOF 4
ENDMDL
MODEL 4
REMARK VINA RESULT:       0.3      1.764      2.760
REMARK  4 active torsions:
REMARK  status: ('A' for Active; 'I' for Inactive)
REMARK    1  A    between atoms: N_4  and  S_1 
REMARK    2  A    between atoms: C_5  and  S_1 
REMARK    3  A    between atoms: S_2  and  N_3 
REMARK    4  A    between atoms: C_6  and  S_2 
ROOT
ATOM      1  N   UNL d   1      32.933  19.812 -23.667  0.00  0.00    -0.226 N 
ATOM      2  N   UNL d   1      32.848  20.815 -22.360  0.00  0.00    -0.226 N 
ATOM      3  C   UNL d   1      33.241  19.564 -22.920  0.00  0.00     0.111 A 
ATOM      4  C   UNL d   1      33.196  20.065 -22.277  0.00  0.00     0.111 A 
ATOM      5  C   UNL d   1      32.546  21.059 -23.092  0.00  0.00     0.111 A 
ATOM      6  C   UNL d   1      32.587  20.556 -23.752  0.00  0.00     0.111 A 
ENDROOT
BRANCH   1   7
ATOM      7  S   UNL d   1      32.965  19.306 -24.366  0.00  0.00     0.277 S 
ATOM      8  O   UNL d   1      33.239  19.941 -24.833  0.00  0.00    -0.199 OA
ATOM      9  O   UNL d   1      32.990  18.797 -25.036  0.00  0.00    -0.199 OA
BRANCH   7  10
ATOM     10  C   UNL d   1      32.686  18.652 -23.897  0.00  0.00     0.133 A 
ATOM     11  S   UNL d   1      32.976  18.285 -23.253  0.00  0.00    -0.074 SA
ATOM     12  C   UNL d   1      32.463  17.692 -23.049  0.00  0.00     0.036 A 
ATOM     13  C   UNL d   1      31.833  17.676 -23.568  0.00  0.00     0.008 A 
ATOM     14  C   UNL d   1      31.965  18.276 -24.105  0.00  0.00     0.020 A 
ENDBRANCH   7  10
ENDBRANCH   1   7
BRANCH   2  15
ATOM     15  S   UNL d   1      32.805  21.325 -21.696  0.00  0.00     0.277 S 
ATOM     16  O   UNL d   1      32.393  20.739 -21.280  0.00  0.00    -0.199 OA
ATOM     17  O   UNL d   1      33.221  21.904 -22.130  0.00  0.00    -0.199 OA
BRANCH  15  18
ATOM     18  C   UNL d   1      32.765  21.832 -21.045  0.00  0.00     0.133 A 
ATOM     19  S   UNL d   1      32.350  22.531 -20.909  0.00  0.00    -0.074 SA
ATOM     20  C   UNL d   1      32.535  22.788 -20.145  0.00  0.00     0.036 A 
ATOM     21  C   UNL d   1      33.055  22.257 -19.820  0.00  0.00     0.008 A 
ATOM     22  C   UNL d   1      33.206  21.661 -20.364  0.00  0.00     0.020 A 
ENDBRANCH  15  18
ENDBRANCH   2  15
TORSDOF 4
ENDMDL
