MODEL 1
REMARK VINA RESULT:     106.4      0.000      0.000
REMARK  6 active torsions:
REMARK  status: ('A' for Active; 'I' for Inactive)
REMARK       I    between atoms: C_3  and  N_1 
REMARK    1  A    between atoms: C_8  and  C_3 
REMARK    2  A    between atoms: S_4  and  N_9 
REMARK    3  A    between atoms: C_24  and  S_4 
REMARK    4  A    between atoms: C_10  and  C_5 
REMARK    5  A    between atoms: C_11  and  C_6 
REMARK    6  A    between atoms: N_9  and  C_23 
ROOT
ATOM      1  N   UNL d   1     -56.578 -99.946 -43.580  0.00  0.00    -0.193 N 
ATOM      2  N   UNL d   1     -56.612-100.378 -42.858  0.00  0.00    -0.163 NA
ATOM      3  C   UNL d   1     -57.194 -99.506 -43.906  0.00  0.00     0.303 C 
ATOM      4  C   UNL d   1     -55.847-100.031 -43.901  0.00  0.00     0.088 A 
ATOM      5  C   UNL d   1     -55.877-100.728 -42.753  0.00  0.00     0.103 A 
ATOM      6  C   UNL d   1     -55.393-100.519 -43.396  0.00  0.00     0.040 A 
ATOM      7  O   UNL d   1     -57.085 -99.110 -44.615  0.00  0.00    -0.263 OA
ENDROOT
BRANCH   5   8
ATOM      8  C   UNL d   1     -55.631-101.206 -42.134  0.00  0.00     0.019 A 
ATOM      9  C   UNL d   1     -55.690-102.028 -42.209  0.00  0.00     0.003 A 
ATOM     10  C   UNL d   1     -55.447-102.508 -41.598  0.00  0.00     0.020 A 
ATOM     11  C   UNL d   1     -55.143-102.179 -40.903  0.00  0.00     0.094 A 
ATOM     12  C   UNL d   1     -55.085-101.359 -40.829  0.00  0.00     0.020 A 
ATOM     13  C   UNL d   1     -55.329-100.871 -41.445  0.00  0.00     0.003 A 
BRANCH  11  14
ATOM     14  N   UNL d   1     -54.893-102.659 -40.273  0.00  0.00    -0.158 NA
BRANCH  14  15
ATOM     15  S   UNL d   1     -55.372-102.756 -39.622  0.00  0.00     0.286 S 
ATOM     16  O   UNL d   1     -56.030-102.867 -40.118  0.00  0.00    -0.198 OA
ATOM     17  O   UNL d   1     -55.858-102.854 -38.943  0.00  0.00    -0.198 OA
BRANCH  15  18
ATOM     18  C   UNL d   1     -54.714-102.644 -39.123  0.00  0.00     0.117 C 
ATOM     19  C   UNL d   1     -54.746-102.871 -38.336  0.00  0.00     0.014 C 
ENDBRANCH  15  18
ENDBRANCH  14  15
ENDBRANCH  11  14
ENDBRANCH   5   8
BRANCH   4  20
ATOM     20  C   UNL d   1     -55.564 -99.716 -44.590  0.00  0.00     0.018 A 
ATOM     21  C   UNL d   1     -55.025 -99.091 -44.583  0.00  0.00     0.002 A 
ATOM     22  C   UNL d   1     -54.734 -98.767 -45.289  0.00  0.00     0.000 A 
ATOM     23  C   UNL d   1     -54.994 -99.082 -46.016  0.00  0.00     0.000 A 
ATOM     24  C   UNL d   1     -55.535 -99.710 -46.026  0.00  0.00     0.000 A 
ATOM     25  C   UNL d   1     -54.714 -98.771 -46.724  0.00  0.00     0.000 C 
ATOM     26  C   UNL d   1     -55.820-100.026 -45.319  0.00  0.00     0.002 A 
ENDBRANCH   4  20
BRANCH   3  27
ATOM     27  C   UNL d   1     -57.918 -99.467 -43.513  0.00  0.00     0.158 A 
ATOM     28  O   UNL d   1     -58.309-100.108 -43.168  0.00  0.00    -0.300 OA
ATOM     29  C   UNL d   1     -59.007 -99.826 -42.839  0.00  0.00     0.123 A 
ATOM     30  C   UNL d   1     -59.048 -99.011 -42.980  0.00  0.00     0.029 A 
ATOM     31  C   UNL d   1     -58.373 -98.796 -43.396  0.00  0.00     0.032 A 
ENDBRANCH   3  27
TORSDOF 6
ENDMDL
