MODEL 1
REMARK VINA RESULT:     143.8      0.000      0.000
REMARK  5 active torsions:
REMARK  status: ('A' for Active; 'I' for Inactive)
REMARK    1  A    between atoms: S_5  and  C_2 
REMARK    2  A    between atoms: C_12  and  S_5 
REMARK    3  A    between atoms: N_11  and  C_8 
REMARK    4  A    between atoms: C_19  and  N_11 
REMARK    5  A    between atoms: C_32  and  C_26 
ROOT
ATOM      1  C   UNL d   1      61.038  47.500  50.172  0.00  0.00     0.197 A 
ATOM      2  C   UNL d   1      60.871  48.285  50.352  0.00  0.00     0.227 A 
ATOM      3  N   UNL d   1      61.783  47.471  49.815  0.00  0.00    -0.192 N 
ATOM      4  N   UNL d   1      60.606  46.801  50.287  0.00  0.00    -0.206 NA
ATOM      5  N   UNL d   1      61.517  48.751  50.105  0.00  0.00    -0.115 NA
ATOM      6  N   UNL d   1      62.080  48.240  49.773  0.00  0.00    -0.058 NA
ATOM      7  C   UNL d   1      60.918  46.070  50.045  0.00  0.00     0.166 A 
ATOM      8  C   UNL d   1      61.664  46.050  49.688  0.00  0.00     0.054 A 
ATOM      9  C   UNL d   1      62.100  46.740  49.570  0.00  0.00     0.089 A 
ATOM     10  C   UNL d   1      62.844  46.717  49.215  0.00  0.00     0.020 A 
ATOM     11  C   UNL d   1      61.984  45.324  49.444  0.00  0.00     0.016 A 
ATOM     12  C   UNL d   1      62.728  45.299  49.087  0.00  0.00     0.058 A 
ATOM     13  C   UNL d   1      63.157  45.994  48.973  0.00  0.00     0.013 A 
ATOM     14 CL   UNL d   1      63.039  44.574  48.847  0.00  0.00    -0.082 Cl
ENDROOT
BRANCH   2  15
ATOM     15  S   UNL d   1      60.188  48.574  50.713  0.00  0.00     0.231 S 
ATOM     16  O   UNL d   1      60.554  48.607  51.449  0.00  0.00    -0.215 OA
ATOM     17  O   UNL d   1      59.825  48.539  49.975  0.00  0.00    -0.215 OA
BRANCH  15  18
ATOM     18  C   UNL d   1      59.478  48.859  51.015  0.00  0.00     0.090 A 
ATOM     19  C   UNL d   1      58.905  49.159  50.518  0.00  0.00     0.011 A 
ATOM     20  C   UNL d   1      58.198  49.444  50.818  0.00  0.00     0.001 A 
ATOM     21  C   UNL d   1      58.064  49.425  51.638  0.00  0.00     0.000 A 
ATOM     22  C   UNL d   1      58.646  49.120  52.141  0.00  0.00     0.001 A 
ATOM     23  C   UNL d   1      59.349  48.838  51.836  0.00  0.00     0.011 A 
BRANCH  21  24
ATOM     24  C   UNL d   1      57.359  49.707  51.941  0.00  0.00     0.000 C 
ATOM     25  C   UNL d   1      56.923  49.254  52.479  0.00  0.00     0.000 C 
ENDBRANCH  21  24
ENDBRANCH  15  18
ENDBRANCH   2  15
BRANCH   7  26
ATOM     26  N   UNL d   1      60.489  45.374  50.159  0.00  0.00    -0.227 NA
BRANCH  26  27
ATOM     27  C   UNL d   1      60.676  44.874  50.790  0.00  0.00     0.083 A 
ATOM     28  C   UNL d   1      60.514  45.106  51.562  0.00  0.00     0.021 A 
ATOM     29  C   UNL d   1      60.698  44.613  52.191  0.00  0.00     0.031 A 
ATOM     30  C   UNL d   1      61.050  43.873  52.043  0.00  0.00     0.140 A 
ATOM     31  C   UNL d   1      61.212  43.642  51.258  0.00  0.00     0.031 A 
ATOM     32  F   UNL d   1      61.234  43.381  52.671  0.00  0.00    -0.204 F 
ATOM     33  C   UNL d   1      61.021  44.148  50.641  0.00  0.00     0.021 A 
ENDBRANCH  26  27
ENDBRANCH   7  26
TORSDOF 5
ENDMDL
