MODEL 1
REMARK VINA RESULT:      -1.5      0.000      0.000
REMARK  9 active torsions:
REMARK  status: ('A' for Active; 'I' for Inactive)
REMARK    1  A    between atoms: C_17  and  N_1 
REMARK    2  A    between atoms: S_10  and  C_2 
REMARK    3  A    between atoms: N_8  and  C_9 
REMARK    4  A    between atoms: C_19  and  S_10 
REMARK    5  A    between atoms: C_11  and  C_19 
REMARK       I    between atoms: N_13  and  C_11 
REMARK    6  A    between atoms: C_20  and  N_13 
REMARK    7  A    between atoms: C_28  and  C_17 
REMARK    8  A    between atoms: C_23  and  C_20 
REMARK    9  A    between atoms: C_29  and  C_28 
ROOT
ATOM      1  N   UNL d   1      33.151  21.999 -22.153  0.00  0.00    -0.253 N 
ATOM      2  C   UNL d   1      33.182  21.175 -22.126  0.00  0.00     0.182 A 
ATOM      3  C   UNL d   1      33.093  22.434 -21.447  0.00  0.00     0.268 A 
ATOM      4  C   UNL d   1      33.067  22.043 -20.722  0.00  0.00     0.076 A 
ATOM      5  N   UNL d   1      33.156  20.786 -21.393  0.00  0.00    -0.222 NA
ATOM      6  C   UNL d   1      33.099  21.219 -20.695  0.00  0.00     0.088 A 
ATOM      7  C   UNL d   1      33.010  22.478 -20.025  0.00  0.00     0.024 A 
ATOM      8  C   UNL d   1      32.985  22.087 -19.300  0.00  0.00     0.065 A 
ATOM      9  O   UNL d   1      33.062  23.257 -21.475  0.00  0.00    -0.267 OA
ATOM     10  C   UNL d   1      33.073  20.830 -19.971  0.00  0.00     0.021 A 
ATOM     11  C   UNL d   1      33.016  21.263 -19.273  0.00  0.00     0.019 A 
ENDROOT
BRANCH   2  12
ATOM     12  S   UNL d   1      33.240  20.737 -22.826  0.00  0.00    -0.044 SA
BRANCH  12  13
ATOM     13  C   UNL d   1      33.122  19.912 -22.816  0.00  0.00     0.101 C 
BRANCH  13  14
ATOM     14  C   UNL d   1      33.017  19.502 -23.528  0.00  0.00     0.286 C 
ATOM     15  N   UNL d   1      32.760  18.713 -23.513  0.00  0.00    -0.206 NA
ATOM     16  O   UNL d   1      33.168  19.883 -24.245  0.00  0.00    -0.265 OA
BRANCH  15  17
ATOM     17  C   UNL d   1      32.654  18.302 -24.230  0.00  0.00     0.102 C 
BRANCH  17  18
ATOM     18  C   UNL d   1      32.417  17.506 -24.216  0.00  0.00     0.019 A 
ATOM     19  C   UNL d   1      32.970  16.908 -24.347  0.00  0.00     0.002 A 
ATOM     20  C   UNL d   1      32.740  16.117 -24.334  0.00  0.00     0.000 A 
ATOM     21  C   UNL d   1      31.936  15.923 -24.185  0.00  0.00     0.000 A 
ATOM     22  C   UNL d   1      31.383  16.521 -24.055  0.00  0.00     0.000 A 
ATOM     23  C   UNL d   1      31.619  17.317 -24.069  0.00  0.00     0.002 A 
ENDBRANCH  17  18
ENDBRANCH  15  17
ENDBRANCH  13  14
ENDBRANCH  12  13
ENDBRANCH   2  12
BRANCH   1  24
ATOM     24  C   UNL d   1      33.177  22.389 -22.881  0.00  0.00     0.085 C 
BRANCH  24  25
ATOM     25  C   UNL d   1      32.586  22.929 -23.081  0.00  0.00     0.019 C 
BRANCH  25  26
ATOM     26  C   UNL d   1      32.704  23.455 -23.712  0.00  0.00     0.002 C 
ATOM     27  C   UNL d   1      32.127  23.537 -24.295  0.00  0.00     0.000 C 
ENDBRANCH  25  26
ENDBRANCH  24  25
ENDBRANCH   1  24
BRANCH   8  28
ATOM     28  N   UNL d   1      32.928  22.522 -18.603  0.00  0.00    -0.300 N 
ATOM     29  C   UNL d   1      33.240  22.218 -17.904  0.00  0.00     0.107 A 
ATOM     30  C   UNL d   1      33.186  22.653 -17.195  0.00  0.00     0.142 A 
ATOM     31  O   UNL d   1      32.813  23.398 -17.196  0.00  0.00    -0.300 OA
ATOM     32  C   UNL d   1      32.498  23.701 -17.907  0.00  0.00     0.142 A 
ATOM     33  C   UNL d   1      32.555  23.267 -18.605  0.00  0.00     0.107 A 
ENDBRANCH   8  28
TORSDOF 9
ENDMDL
