MODEL 1
REMARK VINA RESULT:      -7.1      0.000      0.000
REMARK  4 active torsions:
REMARK  status: ('A' for Active; 'I' for Inactive)
REMARK    1  A    between atoms: N_5  and  C_2 
REMARK    2  A    between atoms: C_9  and  C_3 
REMARK       I    between atoms: C_7  and  N_5 
REMARK    3  A    between atoms: C_8  and  C_7 
REMARK    4  A    between atoms: O_16  and  C_13 
ROOT
ATOM      1  N   UNL d   1     -46.122  12.480  23.258  0.00  0.00    -0.200 NA
ATOM      2  C   UNL d   1     -46.294  13.173  22.855  0.00  0.00     0.216 A 
ATOM      3  C   UNL d   1     -45.449  12.146  22.925  0.00  0.00     0.172 A 
ATOM      4  N   UNL d   1     -45.202  12.638  22.310  0.00  0.00    -0.187 NA
ATOM      5  S   UNL d   1     -45.727  13.270  22.270  0.00  0.00     0.054 SA
ENDROOT
BRANCH   2   6
ATOM      6  N   UNL d   1     -46.925  13.682  23.009  0.00  0.00    -0.181 NA
ATOM      7  C   UNL d   1     -47.603  13.636  22.552  0.00  0.00     0.281 C 
ATOM      8  O   UNL d   1     -47.656  13.085  21.941  0.00  0.00    -0.265 OA
BRANCH   7   9
ATOM      9  C   UNL d   1     -48.234  14.144  22.706  0.00  0.00     0.058 A 
ATOM     10  C   UNL d   1     -48.168  14.946  22.531  0.00  0.00     0.007 A 
ATOM     11  C   UNL d   1     -48.799  15.455  22.685  0.00  0.00     0.024 A 
ATOM     12  C   UNL d   1     -49.495  15.162  23.014  0.00  0.00     0.094 A 
ATOM     13  C   UNL d   1     -49.559  14.360  23.189  0.00  0.00     0.024 A 
ATOM     14  C   UNL d   1     -48.928  13.851  23.035  0.00  0.00     0.007 A 
BRANCH  12  15
ATOM     15  O   UNL d   1     -50.126  15.671  23.169  0.00  0.00    -0.328 OA
ATOM     16  C   UNL d   1     -50.732  15.435  23.673  0.00  0.00     0.181 C 
ENDBRANCH  12  15
ENDBRANCH   7   9
ENDBRANCH   2   6
BRANCH   3  17
ATOM     17  C   UNL d   1     -45.085  11.451  23.159  0.00  0.00     0.036 A 
ATOM     18  C   UNL d   1     -45.539  10.832  23.459  0.00  0.00     0.003 A 
ATOM     19  C   UNL d   1     -45.169  10.125  23.697  0.00  0.00     0.000 A 
ATOM     20  C   UNL d   1     -44.344  10.044  23.633  0.00  0.00     0.000 A 
ATOM     21  C   UNL d   1     -43.895  10.672  23.330  0.00  0.00     0.000 A 
ATOM     22  C   UNL d   1     -44.261  11.371  23.095  0.00  0.00     0.003 A 
ENDBRANCH   3  17
TORSDOF 4
ENDMDL
MODEL 2
REMARK VINA RESULT:      -7.0      1.288      5.293
REMARK  4 active torsions:
REMARK  status: ('A' for Active; 'I' for Inactive)
REMARK    1  A    between atoms: N_5  and  C_2 
REMARK    2  A    between atoms: C_9  and  C_3 
REMARK       I    between atoms: C_7  and  N_5 
REMARK    3  A    between atoms: C_8  and  C_7 
REMARK    4  A    between atoms: O_16  and  C_13 
ROOT
ATOM      1  N   UNL d   1     -48.299  13.999  23.273  0.00  0.00    -0.200 NA
ATOM      2  C   UNL d   1     -47.512  13.961  23.044  0.00  0.00     0.216 A 
ATOM      3  C   UNL d   1     -48.639  14.663  22.930  0.00  0.00     0.172 A 
ATOM      4  N   UNL d   1     -48.057  15.041  22.483  0.00  0.00    -0.187 NA
ATOM      5  S   UNL d   1     -47.364  14.605  22.556  0.00  0.00     0.054 SA
ENDROOT
BRANCH   2   6
ATOM      6  N   UNL d   1     -46.968  13.381  23.263  0.00  0.00    -0.181 NA
ATOM      7  C   UNL d   1     -46.876  12.716  22.795  0.00  0.00     0.281 C 
ATOM      8  O   UNL d   1     -47.324  12.624  22.109  0.00  0.00    -0.265 OA
BRANCH   7   9
ATOM      9  C   UNL d   1     -46.332  12.136  23.014  0.00  0.00     0.058 A 
ATOM     10  C   UNL d   1     -46.572  11.500  23.479  0.00  0.00     0.007 A 
ATOM     11  C   UNL d   1     -46.027  10.921  23.698  0.00  0.00     0.024 A 
ATOM     12  C   UNL d   1     -45.243  10.977  23.452  0.00  0.00     0.094 A 
ATOM     13  C   UNL d   1     -45.004  11.613  22.987  0.00  0.00     0.024 A 
ATOM     14  C   UNL d   1     -45.549  12.192  22.768  0.00  0.00     0.007 A 
BRANCH  12  15
ATOM     15  O   UNL d   1     -44.698  10.397  23.671  0.00  0.00    -0.328 OA
ATOM     16  C   UNL d   1     -43.902  10.488  23.486  0.00  0.00     0.181 C 
ENDBRANCH  12  15
ENDBRANCH   7   9
ENDBRANCH   2   6
BRANCH   3  17
ATOM     17  C   UNL d   1     -49.415  14.910  23.014  0.00  0.00     0.036 A 
ATOM     18  C   UNL d   1     -49.576  15.672  23.285  0.00  0.00     0.003 A 
ATOM     19  C   UNL d   1     -50.366  15.922  23.370  0.00  0.00     0.000 A 
ATOM     20  C   UNL d   1     -50.989  15.406  23.183  0.00  0.00     0.000 A 
ATOM     21  C   UNL d   1     -50.818  14.642  22.911  0.00  0.00     0.000 A 
ATOM     22  C   UNL d   1     -50.038  14.394  22.826  0.00  0.00     0.003 A 
ENDBRANCH   3  17
TORSDOF 4
ENDMDL
MODEL 3
REMARK VINA RESULT:      -6.9      1.690      5.258
REMARK  4 active torsions:
REMARK  status: ('A' for Active; 'I' for Inactive)
REMARK    1  A    between atoms: N_5  and  C_2 
REMARK    2  A    between atoms: C_9  and  C_3 
REMARK       I    between atoms: C_7  and  N_5 
REMARK    3  A    between atoms: C_8  and  C_7 
REMARK    4  A    between atoms: O_16  and  C_13 
ROOT
ATOM      1  N   UNL d   1     -48.551  13.792  22.587  0.00  0.00    -0.200 NA
ATOM      2  C   UNL d   1     -48.140  13.097  22.732  0.00  0.00     0.216 A 
ATOM      3  C   UNL d   1     -49.284  13.743  22.956  0.00  0.00     0.172 A 
ATOM      4  N   UNL d   1     -49.327  13.010  23.332  0.00  0.00    -0.187 NA
ATOM      5  S   UNL d   1     -48.620  12.615  23.192  0.00  0.00     0.054 SA
ENDROOT
BRANCH   2   6
ATOM      6  N   UNL d   1     -47.382  12.915  22.464  0.00  0.00    -0.181 NA
ATOM      7  C   UNL d   1     -46.734  13.095  22.932  0.00  0.00     0.281 C 
ATOM      8  O   UNL d   1     -46.838  13.454  23.666  0.00  0.00    -0.265 OA
BRANCH   7   9
ATOM      9  C   UNL d   1     -45.975  12.913  22.664  0.00  0.00     0.058 A 
ATOM     10  C   UNL d   1     -45.581  13.431  22.160  0.00  0.00     0.007 A 
ATOM     11  C   UNL d   1     -44.822  13.249  21.892  0.00  0.00     0.024 A 
ATOM     12  C   UNL d   1     -44.458  12.549  22.128  0.00  0.00     0.094 A 
ATOM     13  C   UNL d   1     -44.853  12.032  22.631  0.00  0.00     0.024 A 
ATOM     14  C   UNL d   1     -45.612  12.213  22.899  0.00  0.00     0.007 A 
BRANCH  12  15
ATOM     15  O   UNL d   1     -43.699  12.367  21.860  0.00  0.00    -0.328 OA
ATOM     16  C   UNL d   1     -43.348  12.825  21.274  0.00  0.00     0.181 C 
ENDBRANCH  12  15
ENDBRANCH   7   9
ENDBRANCH   2   6
BRANCH   3  17
ATOM     17  C   UNL d   1     -49.869  14.315  22.952  0.00  0.00     0.036 A 
ATOM     18  C   UNL d   1     -50.463  14.291  22.380  0.00  0.00     0.003 A 
ATOM     19  C   UNL d   1     -51.058  14.874  22.377  0.00  0.00     0.000 A 
ATOM     20  C   UNL d   1     -51.053  15.477  22.948  0.00  0.00     0.000 A 
ATOM     21  C   UNL d   1     -50.453  15.494  23.519  0.00  0.00     0.000 A 
ATOM     22  C   UNL d   1     -49.865  14.918  23.523  0.00  0.00     0.003 A 
ENDBRANCH   3  17
TORSDOF 4
ENDMDL
MODEL 4
REMARK VINA RESULT:      -5.6      8.086      9.816
REMARK  4 active torsions:
REMARK  status: ('A' for Active; 'I' for Inactive)
REMARK    1  A    between atoms: N_5  and  C_2 
REMARK    2  A    between atoms: C_9  and  C_3 
REMARK       I    between atoms: C_7  and  N_5 
REMARK    3  A    between atoms: C_8  and  C_7 
REMARK    4  A    between atoms: O_16  and  C_13 
ROOT
ATOM      1  N   UNL d   1     -38.919  14.191  17.959  0.00  0.00    -0.200 NA
ATOM      2  C   UNL d   1     -39.528  14.174  18.508  0.00  0.00     0.216 A 
ATOM      3  C   UNL d   1     -39.215  14.485  17.250  0.00  0.00     0.172 A 
ATOM      4  N   UNL d   1     -40.016  14.651  17.363  0.00  0.00    -0.187 NA
ATOM      5  S   UNL d   1     -40.205  14.457  18.139  0.00  0.00     0.054 SA
ENDROOT
BRANCH   2   6
ATOM      6  N   UNL d   1     -39.472  13.917  19.290  0.00  0.00    -0.181 NA
ATOM      7  C   UNL d   1     -39.232  14.442  19.871  0.00  0.00     0.281 C 
ATOM      8  O   UNL d   1     -39.048  15.221  19.677  0.00  0.00    -0.265 OA
BRANCH   7   9
ATOM      9  C   UNL d   1     -39.176  14.185  20.653  0.00  0.00     0.058 A 
ATOM     10  C   UNL d   1     -38.492  13.809  20.914  0.00  0.00     0.007 A 
ATOM     11  C   UNL d   1     -38.435  13.552  21.696  0.00  0.00     0.024 A 
ATOM     12  C   UNL d   1     -39.063  13.672  22.217  0.00  0.00     0.094 A 
ATOM     13  C   UNL d   1     -39.746  14.048  21.954  0.00  0.00     0.024 A 
ATOM     14  C   UNL d   1     -39.802  14.305  21.172  0.00  0.00     0.007 A 
BRANCH  12  15
ATOM     15  O   UNL d   1     -39.006  13.415  22.999  0.00  0.00    -0.328 OA
ATOM     16  C   UNL d   1     -38.521  13.815  23.530  0.00  0.00     0.181 C 
ENDBRANCH  12  15
ENDBRANCH   7   9
ENDBRANCH   2   6
BRANCH   3  17
ATOM     17  C   UNL d   1     -38.795  14.595  16.557  0.00  0.00     0.036 A 
ATOM     18  C   UNL d   1     -38.658  15.358  16.277  0.00  0.00     0.003 A 
ATOM     19  C   UNL d   1     -38.230  15.470  15.571  0.00  0.00     0.000 A 
ATOM     20  C   UNL d   1     -37.943  14.814  15.150  0.00  0.00     0.000 A 
ATOM     21  C   UNL d   1     -38.086  14.050  15.438  0.00  0.00     0.000 A 
ATOM     22  C   UNL d   1     -38.508  13.939  16.136  0.00  0.00     0.003 A 
ENDBRANCH   3  17
TORSDOF 4
ENDMDL
MODEL 5
REMARK VINA RESULT:      -5.5      8.279      9.841
REMARK  4 active torsions:
REMARK  status: ('A' for Active; 'I' for Inactive)
REMARK    1  A    between atoms: N_5  and  C_2 
REMARK    2  A    between atoms: C_9  and  C_3 
REMARK       I    between atoms: C_7  and  N_5 
REMARK    3  A    between atoms: C_8  and  C_7 
REMARK    4  A    between atoms: O_16  and  C_13 
ROOT
ATOM      1  N   UNL d   1     -38.967  14.541  20.058  0.00  0.00    -0.200 NA
ATOM      2  C   UNL d   1     -39.409  14.623  19.372  0.00  0.00     0.216 A 
ATOM      3  C   UNL d   1     -39.483  14.514  20.698  0.00  0.00     0.172 A 
ATOM      4  N   UNL d   1     -40.251  14.579  20.404  0.00  0.00    -0.187 NA
ATOM      5  S   UNL d   1     -40.201  14.646  19.586  0.00  0.00     0.054 SA
ENDROOT
BRANCH   2   6
ATOM      6  N   UNL d   1     -39.110  14.672  18.605  0.00  0.00    -0.181 NA
ATOM      7  C   UNL d   1     -39.146  14.018  18.114  0.00  0.00     0.281 C 
ATOM      8  O   UNL d   1     -39.476  13.313  18.384  0.00  0.00    -0.265 OA
BRANCH   7   9
ATOM      9  C   UNL d   1     -38.847  14.067  17.347  0.00  0.00     0.058 A 
ATOM     10  C   UNL d   1     -39.041  14.711  16.870  0.00  0.00     0.007 A 
ATOM     11  C   UNL d   1     -38.743  14.760  16.103  0.00  0.00     0.024 A 
ATOM     12  C   UNL d   1     -38.251  14.167  15.811  0.00  0.00     0.094 A 
ATOM     13  C   UNL d   1     -38.058  13.524  16.289  0.00  0.00     0.024 A 
ATOM     14  C   UNL d   1     -38.356  13.475  17.056  0.00  0.00     0.007 A 
BRANCH  12  15
ATOM     15  O   UNL d   1     -37.953  14.216  15.044  0.00  0.00    -0.328 OA
ATOM     16  C   UNL d   1     -37.940  13.549  14.563  0.00  0.00     0.181 C 
ENDBRANCH  12  15
ENDBRANCH   7   9
ENDBRANCH   2   6
BRANCH   3  17
ATOM     17  C   UNL d   1     -39.276  14.436  21.486  0.00  0.00     0.036 A 
ATOM     18  C   UNL d   1     -39.172  13.685  21.810  0.00  0.00     0.003 A 
ATOM     19  C   UNL d   1     -38.961  13.606  22.612  0.00  0.00     0.000 A 
ATOM     20  C   UNL d   1     -38.856  14.282  23.084  0.00  0.00     0.000 A 
ATOM     21  C   UNL d   1     -38.963  15.033  22.750  0.00  0.00     0.000 A 
ATOM     22  C   UNL d   1     -39.171  15.111  21.957  0.00  0.00     0.003 A 
ENDBRANCH   3  17
TORSDOF 4
ENDMDL
MODEL 6
REMARK VINA RESULT:      -5.4      1.731      2.231
REMARK  4 active torsions:
REMARK  status: ('A' for Active; 'I' for Inactive)
REMARK    1  A    between atoms: N_5  and  C_2 
REMARK    2  A    between atoms: C_9  and  C_3 
REMARK       I    between atoms: C_7  and  N_5 
REMARK    3  A    between atoms: C_8  and  C_7 
REMARK    4  A    between atoms: O_16  and  C_13 
ROOT
ATOM      1  N   UNL d   1     -45.910  12.737  22.472  0.00  0.00    -0.200 NA
ATOM      2  C   UNL d   1     -46.527  13.249  22.644  0.00  0.00     0.216 A 
ATOM      3  C   UNL d   1     -45.256  13.183  22.250  0.00  0.00     0.172 A 
ATOM      4  N   UNL d   1     -45.471  13.979  22.286  0.00  0.00    -0.187 NA
ATOM      5  S   UNL d   1     -46.255  14.015  22.529  0.00  0.00     0.054 SA
ENDROOT
BRANCH   2   6
ATOM      6  N   UNL d   1     -47.285  13.034  22.890  0.00  0.00    -0.181 NA
ATOM      7  C   UNL d   1     -47.908  13.077  22.361  0.00  0.00     0.281 C 
ATOM      8  O   UNL d   1     -47.781  13.333  21.588  0.00  0.00    -0.265 OA
BRANCH   7   9
ATOM      9  C   UNL d   1     -48.666  12.861  22.606  0.00  0.00     0.058 A 
ATOM     10  C   UNL d   1     -49.029  13.265  23.225  0.00  0.00     0.007 A 
ATOM     11  C   UNL d   1     -49.786  13.049  23.470  0.00  0.00     0.024 A 
ATOM     12  C   UNL d   1     -50.181  12.430  23.096  0.00  0.00     0.094 A 
ATOM     13  C   UNL d   1     -49.817  12.027  22.477  0.00  0.00     0.024 A 
ATOM     14  C   UNL d   1     -49.059  12.243  22.232  0.00  0.00     0.007 A 
BRANCH  12  15
ATOM     15  O   UNL d   1     -50.939  12.214  23.341  0.00  0.00    -0.328 OA
ATOM     16  C   UNL d   1     -51.064  11.484  23.698  0.00  0.00     0.181 C 
ENDBRANCH  12  15
ENDBRANCH   7   9
ENDBRANCH   2   6
BRANCH   3  17
ATOM     17  C   UNL d   1     -44.522  12.893  22.032  0.00  0.00     0.036 A 
ATOM     18  C   UNL d   1     -44.250  12.185  22.354  0.00  0.00     0.003 A 
ATOM     19  C   UNL d   1     -43.503  11.890  22.132  0.00  0.00     0.000 A 
ATOM     20  C   UNL d   1     -43.034  12.309  21.588  0.00  0.00     0.000 A 
ATOM     21  C   UNL d   1     -43.316  13.020  21.270  0.00  0.00     0.000 A 
ATOM     22  C   UNL d   1     -44.055  13.312  21.489  0.00  0.00     0.003 A 
ENDBRANCH   3  17
TORSDOF 4
ENDMDL
MODEL 7
REMARK VINA RESULT:      -5.3      8.292      8.724
REMARK  4 active torsions:
REMARK  status: ('A' for Active; 'I' for Inactive)
REMARK    1  A    between atoms: N_5  and  C_2 
REMARK    2  A    between atoms: C_9  and  C_3 
REMARK       I    between atoms: C_7  and  N_5 
REMARK    3  A    between atoms: C_8  and  C_7 
REMARK    4  A    between atoms: O_16  and  C_13 
ROOT
ATOM      1  N   UNL d   1     -39.428  14.896  20.676  0.00  0.00    -0.200 NA
ATOM      2  C   UNL d   1     -39.211  15.287  19.988  0.00  0.00     0.216 A 
ATOM      3  C   UNL d   1     -38.766  14.832  21.159  0.00  0.00     0.172 A 
ATOM      4  N   UNL d   1     -38.134  15.187  20.766  0.00  0.00    -0.187 NA
ATOM      5  S   UNL d   1     -38.412  15.466  20.045  0.00  0.00     0.054 SA
ENDROOT
BRANCH   2   6
ATOM      6  N   UNL d   1     -39.706  15.467  19.353  0.00  0.00    -0.181 NA
ATOM      7  C   UNL d   1     -39.620  15.064  18.646  0.00  0.00     0.281 C 
ATOM      8  O   UNL d   1     -39.042  14.481  18.567  0.00  0.00    -0.265 OA
BRANCH   7   9
ATOM      9  C   UNL d   1     -40.115  15.244  18.011  0.00  0.00     0.058 A 
ATOM     10  C   UNL d   1     -40.765  15.737  18.123  0.00  0.00     0.007 A 
ATOM     11  C   UNL d   1     -41.260  15.918  17.489  0.00  0.00     0.024 A 
ATOM     12  C   UNL d   1     -41.105  15.605  16.742  0.00  0.00     0.094 A 
ATOM     13  C   UNL d   1     -40.455  15.112  16.632  0.00  0.00     0.024 A 
ATOM     14  C   UNL d   1     -39.960  14.932  17.266  0.00  0.00     0.007 A 
BRANCH  12  15
ATOM     15  O   UNL d   1     -41.600  15.785  16.107  0.00  0.00    -0.328 OA
ATOM     16  C   UNL d   1     -42.401  15.922  16.236  0.00  0.00     0.181 C 
ENDBRANCH  12  15
ENDBRANCH   7   9
ENDBRANCH   2   6
BRANCH   3  17
ATOM     17  C   UNL d   1     -38.736  14.481  21.897  0.00  0.00     0.036 A 
ATOM     18  C   UNL d   1     -38.768  13.659  21.962  0.00  0.00     0.003 A 
ATOM     19  C   UNL d   1     -38.738  13.302  22.713  0.00  0.00     0.000 A 
ATOM     20  C   UNL d   1     -38.676  13.771  23.396  0.00  0.00     0.000 A 
ATOM     21  C   UNL d   1     -38.644  14.596  23.322  0.00  0.00     0.000 A 
ATOM     22  C   UNL d   1     -38.675  14.950  22.579  0.00  0.00     0.003 A 
ENDBRANCH   3  17
TORSDOF 4
ENDMDL
MODEL 8
REMARK VINA RESULT:      -4.7      8.171      9.437
REMARK  4 active torsions:
REMARK  status: ('A' for Active; 'I' for Inactive)
REMARK    1  A    between atoms: N_5  and  C_2 
REMARK    2  A    between atoms: C_9  and  C_3 
REMARK       I    between atoms: C_7  and  N_5 
REMARK    3  A    between atoms: C_8  and  C_7 
REMARK    4  A    between atoms: O_16  and  C_13 
ROOT
ATOM      1  N   UNL d   1     -40.170  15.416  18.662  0.00  0.00    -0.200 NA
ATOM      2  C   UNL d   1     -39.424  15.399  19.002  0.00  0.00     0.216 A 
ATOM      3  C   UNL d   1     -40.094  15.650  17.878  0.00  0.00     0.172 A 
ATOM      4  N   UNL d   1     -39.292  15.778  17.731  0.00  0.00    -0.187 NA
ATOM      5  S   UNL d   1     -38.883  15.623  18.427  0.00  0.00     0.054 SA
ENDROOT
BRANCH   2   6
ATOM      6  N   UNL d   1     -39.249  15.194  19.781  0.00  0.00    -0.181 NA
ATOM      7  C   UNL d   1     -39.222  14.404  19.995  0.00  0.00     0.281 C 
ATOM      8  O   UNL d   1     -39.369  13.816  19.436  0.00  0.00    -0.265 OA
BRANCH   7   9
ATOM      9  C   UNL d   1     -39.047  14.199  20.775  0.00  0.00     0.058 A 
ATOM     10  C   UNL d   1     -38.321  13.854  20.957  0.00  0.00     0.007 A 
ATOM     11  C   UNL d   1     -38.146  13.649  21.736  0.00  0.00     0.024 A 
ATOM     12  C   UNL d   1     -38.696  13.788  22.334  0.00  0.00     0.094 A 
ATOM     13  C   UNL d   1     -39.421  14.133  22.150  0.00  0.00     0.024 A 
ATOM     14  C   UNL d   1     -39.596  14.338  21.371  0.00  0.00     0.007 A 
BRANCH  12  15
ATOM     15  O   UNL d   1     -38.521  13.583  23.113  0.00  0.00    -0.328 OA
ATOM     16  C   UNL d   1     -38.504  14.162  23.698  0.00  0.00     0.181 C 
ENDBRANCH  12  15
ENDBRANCH   7   9
ENDBRANCH   2   6
BRANCH   3  17
ATOM     17  C   UNL d   1     -40.701  15.740  17.336  0.00  0.00     0.036 A 
ATOM     18  C   UNL d   1     -41.481  15.784  17.600  0.00  0.00     0.003 A 
ATOM     19  C   UNL d   1     -42.099  15.876  17.048  0.00  0.00     0.000 A 
ATOM     20  C   UNL d   1     -41.930  15.922  16.236  0.00  0.00     0.000 A 
ATOM     21  C   UNL d   1     -41.143  15.876  15.980  0.00  0.00     0.000 A 
ATOM     22  C   UNL d   1     -40.532  15.786  16.525  0.00  0.00     0.003 A 
ENDBRANCH   3  17
TORSDOF 4
ENDMDL
MODEL 9
REMARK VINA RESULT:      -4.2      8.837     10.170
REMARK  4 active torsions:
REMARK  status: ('A' for Active; 'I' for Inactive)
REMARK    1  A    between atoms: N_5  and  C_2 
REMARK    2  A    between atoms: C_9  and  C_3 
REMARK       I    between atoms: C_7  and  N_5 
REMARK    3  A    between atoms: C_8  and  C_7 
REMARK    4  A    between atoms: O_16  and  C_13 
ROOT
ATOM      1  N   UNL d   1     -38.691  14.632  16.535  0.00  0.00    -0.200 NA
ATOM      2  C   UNL d   1     -38.740  15.233  17.091  0.00  0.00     0.216 A 
ATOM      3  C   UNL d   1     -38.375  14.944  15.843  0.00  0.00     0.172 A 
ATOM      4  N   UNL d   1     -38.228  15.745  15.973  0.00  0.00    -0.187 NA
ATOM      5  S   UNL d   1     -38.454  15.919  16.743  0.00  0.00     0.054 SA
ENDROOT
BRANCH   2   6
ATOM      6  N   UNL d   1     -39.026  15.160  17.862  0.00  0.00    -0.181 NA
ATOM      7  C   UNL d   1     -39.806  15.351  18.023  0.00  0.00     0.281 C 
ATOM      8  O   UNL d   1     -40.303  15.613  17.421  0.00  0.00    -0.265 OA
BRANCH   7   9
ATOM      9  C   UNL d   1     -40.091  15.278  18.794  0.00  0.00     0.058 A 
ATOM     10  C   UNL d   1     -39.899  15.845  19.359  0.00  0.00     0.007 A 
ATOM     11  C   UNL d   1     -40.185  15.773  20.130  0.00  0.00     0.024 A 
ATOM     12  C   UNL d   1     -40.662  15.133  20.335  0.00  0.00     0.094 A 
ATOM     13  C   UNL d   1     -40.853  14.567  19.769  0.00  0.00     0.024 A 
ATOM     14  C   UNL d   1     -40.568  14.640  18.998  0.00  0.00     0.007 A 
BRANCH  12  15
ATOM     15  O   UNL d   1     -40.948  15.061  21.106  0.00  0.00    -0.328 OA
ATOM     16  C   UNL d   1     -40.499  14.676  21.677  0.00  0.00     0.181 C 
ENDBRANCH  12  15
ENDBRANCH   7   9
ENDBRANCH   2   6
BRANCH   3  17
ATOM     17  C   UNL d   1     -38.231  14.536  15.148  0.00  0.00     0.036 A 
ATOM     18  C   UNL d   1     -38.086  14.952  14.451  0.00  0.00     0.003 A 
ATOM     19  C   UNL d   1     -37.940  14.537  13.744  0.00  0.00     0.000 A 
ATOM     20  C   UNL d   1     -37.940  13.706  13.741  0.00  0.00     0.000 A 
ATOM     21  C   UNL d   1     -38.086  13.296  14.447  0.00  0.00     0.000 A 
ATOM     22  C   UNL d   1     -38.231  13.706  15.146  0.00  0.00     0.003 A 
ENDBRANCH   3  17
TORSDOF 4
ENDMDL
