MODEL 1
REMARK VINA RESULT:      57.4      0.000      0.000
REMARK  3 active torsions:
REMARK  status: ('A' for Active; 'I' for Inactive)
REMARK    1  A    between atoms: C_2  and  C_1 
REMARK    2  A    between atoms: C_13  and  C_8 
REMARK    3  A    between atoms: O_23  and  C_20 
ROOT
ATOM      1  C   UNL d   1      13.691  13.004  -3.223  0.00  0.00     0.106 A 
ATOM      2  C   UNL d   1      13.502  12.179  -3.141  0.00  0.00     0.304 A 
ATOM      3  C   UNL d   1      14.066  13.400  -2.606  0.00  0.00     0.011 A 
ATOM      4  C   UNL d   1      14.252  13.004  -1.927  0.00  0.00     0.023 A 
ATOM      5  O   UNL d   1      13.694  11.779  -2.445  0.00  0.00    -0.273 OA
ATOM      6  C   UNL d   1      14.063  12.179  -1.845  0.00  0.00     0.103 A 
ATOM      7  C   UNL d   1      14.626  13.400  -1.310  0.00  0.00     0.002 A 
ATOM      8  O   UNL d   1      13.118  11.779  -3.778  0.00  0.00    -0.259 OA
ATOM      9  C   UNL d   1      14.255  11.780  -1.149  0.00  0.00     0.025 A 
ATOM     10  C   UNL d   1      14.821  13.004  -0.611  0.00  0.00     0.000 A 
ATOM     11  C   UNL d   1      14.632  12.180  -0.529  0.00  0.00     0.002 A 
ATOM     12  C   UNL d   1      14.801  14.203  -1.411  0.00  0.00     0.000 A 
ATOM     13  C   UNL d   1      15.187  13.400  -0.014  0.00  0.00     0.000 A 
ATOM     14  C   UNL d   1      15.178  14.602  -0.790  0.00  0.00     0.000 A 
ATOM     15  C   UNL d   1      15.371  14.204  -0.094  0.00  0.00     0.000 A 
ENDROOT
BRANCH   1  16
ATOM     16  C   UNL d   1      13.496  13.399  -3.922  0.00  0.00     0.210 A 
ATOM     17  O   UNL d   1      13.689  14.189  -4.021  0.00  0.00    -0.268 OA
ATOM     18  C   UNL d   1      13.430  14.429  -4.758  0.00  0.00     0.204 A 
ATOM     19  N   UNL d   1      13.083  13.783  -5.101  0.00  0.00    -0.121 NA
ATOM     20  N   UNL d   1      13.122  13.151  -4.590  0.00  0.00    -0.121 NA
BRANCH  18  21
ATOM     21  C   UNL d   1      13.462  15.149  -5.171  0.00  0.00     0.043 A 
ATOM     22  C   UNL d   1      14.160  15.383  -5.532  0.00  0.00     0.006 A 
ATOM     23  C   UNL d   1      14.209  16.077  -5.936  0.00  0.00     0.024 A 
ATOM     24  C   UNL d   1      13.520  16.566  -5.983  0.00  0.00     0.094 A 
ATOM     25  C   UNL d   1      12.823  16.329  -5.620  0.00  0.00     0.024 A 
ATOM     26  C   UNL d   1      12.800  15.615  -5.214  0.00  0.00     0.006 A 
BRANCH  24  27
ATOM     27  O   UNL d   1      13.530  17.285  -6.387  0.00  0.00    -0.328 OA
ATOM     28  C   UNL d   1      12.893  17.793  -6.344  0.00  0.00     0.181 C 
ENDBRANCH  24  27
ENDBRANCH  18  21
ENDBRANCH   1  16
TORSDOF 3
ENDMDL
