MODEL 1
REMARK VINA RESULT:      71.5      0.000      0.000
REMARK  5 active torsions:
REMARK  status: ('A' for Active; 'I' for Inactive)
REMARK    1  A    between atoms: N_10  and  C_3 
REMARK    2  A    between atoms: C_11  and  C_5 
REMARK    3  A    between atoms: C_15  and  C_9 
REMARK    4  A    between atoms: C_16  and  N_10 
REMARK       I    between atoms: C_12  and  N_13 
REMARK    5  A    between atoms: N_13  and  C_17 
ROOT
ATOM      1  C   UNL d   1      14.494  13.947  -1.960  0.00  0.00     0.168 A 
ATOM      2  N   UNL d   1      14.440  14.418  -2.626  0.00  0.00    -0.184 N 
ATOM      3  C   UNL d   1      14.661  15.189  -2.578  0.00  0.00     0.218 A 
ATOM      4  N   UNL d   1      13.949  13.328  -3.357  0.00  0.00    -0.162 NA
ATOM      5  C   UNL d   1      14.278  13.182  -1.998  0.00  0.00     0.055 A 
ATOM      6  N   UNL d   1      14.766  14.265  -1.272  0.00  0.00    -0.227 NA
ATOM      7  C   UNL d   1      14.940  15.508  -1.863  0.00  0.00     0.071 A 
ATOM      8  C   UNL d   1      14.002  12.857  -2.692  0.00  0.00     0.104 A 
ATOM      9  C   UNL d   1      14.983  15.032  -1.232  0.00  0.00     0.087 A 
ATOM     10  C   UNL d   1      13.788  12.097  -2.726  0.00  0.00     0.023 C 
ENDROOT
BRANCH   3  11
ATOM     11  N   UNL d   1      14.607  15.675  -3.260  0.00  0.00    -0.383 NA
BRANCH  11  12
ATOM     12  C   UNL d   1      14.616  16.225  -3.880  0.00  0.00     0.134 A 
ATOM     13  C   UNL d   1      15.011  16.942  -3.803  0.00  0.00     0.034 A 
ATOM     14  C   UNL d   1      15.014  17.497  -4.443  0.00  0.00     0.022 A 
ATOM     15  C   UNL d   1      14.617  17.319  -5.151  0.00  0.00     0.085 A 
ATOM     16  C   UNL d   1      14.214  16.592  -5.234  0.00  0.00     0.022 A 
ATOM     17  C   UNL d   1      14.207  16.034  -4.601  0.00  0.00     0.034 A 
BRANCH  15  18
ATOM     18  N   UNL d   1      14.618  17.864  -5.783  0.00  0.00    -0.208 NA
ATOM     19  C   UNL d   1      14.444  18.659  -5.648  0.00  0.00     0.279 C 
ATOM     20  O   UNL d   1      14.445  19.201  -6.278  0.00  0.00    -0.265 OA
ATOM     21  C   UNL d   1      14.265  18.924  -4.877  0.00  0.00     0.068 C 
ENDBRANCH  15  18
ENDBRANCH  11  12
ENDBRANCH   3  11
BRANCH   9  22
ATOM     22  C   UNL d   1      15.269  15.362  -0.504  0.00  0.00     0.018 C 
ATOM     23  C   UNL d   1      14.882  16.044  -0.176  0.00  0.00     0.002 C 
ATOM     24  C   UNL d   1      15.931  15.014  -0.111  0.00  0.00     0.002 C 
ENDBRANCH   9  22
BRANCH   5  25
ATOM     25  C   UNL d   1      14.332  12.706  -1.325  0.00  0.00     0.004 A 
ATOM     26  C   UNL d   1      13.685  12.597  -0.859  0.00  0.00     0.000 A 
ATOM     27  C   UNL d   1      13.738  12.128  -0.197  0.00  0.00     0.000 A 
ATOM     28  C   UNL d   1      14.437  11.779  -0.014  0.00  0.00     0.000 A 
ATOM     29  C   UNL d   1      15.088  11.892  -0.487  0.00  0.00     0.000 A 
ATOM     30  C   UNL d   1      15.027  12.355  -1.138  0.00  0.00     0.000 A 
ENDBRANCH   5  25
TORSDOF 5
ENDMDL
