MODEL 1
REMARK VINA RESULT:      -8.5      0.000      0.000
REMARK  3 active torsions:
REMARK  status: ('A' for Active; 'I' for Inactive)
REMARK    1  A    between atoms: N_10  and  C_3 
REMARK    2  A    between atoms: C_11  and  C_5 
REMARK    3  A    between atoms: C_12  and  N_10 
ROOT
ATOM      1  N   UNL d   1      52.189  34.168  53.518  0.00  0.00    -0.184 N 
ATOM      2  C   UNL d   1      52.886  33.892  53.893  0.00  0.00     0.168 A 
ATOM      3  C   UNL d   1      51.726  33.642  53.077  0.00  0.00     0.217 A 
ATOM      4  N   UNL d   1      52.430  35.470  54.026  0.00  0.00    -0.162 NA
ATOM      5  C   UNL d   1      53.338  34.404  54.324  0.00  0.00     0.055 A 
ATOM      6  N   UNL d   1      53.097  33.100  53.815  0.00  0.00    -0.227 NA
ATOM      7  C   UNL d   1      51.947  32.864  53.009  0.00  0.00     0.066 A 
ATOM      8  C   UNL d   1      53.117  35.199  54.396  0.00  0.00     0.104 A 
ATOM      9  C   UNL d   1      52.643  32.580  53.381  0.00  0.00     0.087 A 
ATOM     10  C   UNL d   1      51.615  32.232  52.623  0.00  0.00     0.006 A 
ATOM     11  C   UNL d   1      53.580  35.711  54.834  0.00  0.00     0.023 C 
ATOM     12  C   UNL d   1      52.722  31.782  53.216  0.00  0.00     0.019 A 
ATOM     13  C   UNL d   1      52.076  31.567  52.740  0.00  0.00     0.002 A 
ENDROOT
BRANCH   3  14
ATOM     14  N   UNL d   1      51.021  33.917  52.696  0.00  0.00    -0.383 NA
BRANCH  14  15
ATOM     15  C   UNL d   1      50.320  34.195  52.318  0.00  0.00     0.134 A 
ATOM     16  C   UNL d   1      50.254  34.171  51.470  0.00  0.00     0.034 A 
ATOM     17  C   UNL d   1      49.552  34.450  51.096  0.00  0.00     0.032 A 
ATOM     18  C   UNL d   1      48.917  34.752  51.557  0.00  0.00     0.140 A 
ATOM     19  C   UNL d   1      48.988  34.774  52.402  0.00  0.00     0.032 A 
ATOM     20  F   UNL d   1      48.211  35.033  51.181  0.00  0.00    -0.204 F 
ATOM     21  C   UNL d   1      49.682  34.499  52.786  0.00  0.00     0.034 A 
ENDBRANCH  14  15
ENDBRANCH   3  14
BRANCH   5  22
ATOM     22  C   UNL d   1      54.021  34.134  54.691  0.00  0.00     0.004 A 
ATOM     23  C   UNL d   1      53.986  33.824  55.451  0.00  0.00     0.000 A 
ATOM     24  C   UNL d   1      54.664  33.554  55.821  0.00  0.00     0.000 A 
ATOM     25  C   UNL d   1      55.388  33.594  55.427  0.00  0.00     0.000 A 
ATOM     26  C   UNL d   1      55.431  33.898  54.678  0.00  0.00     0.000 A 
ATOM     27  C   UNL d   1      54.740  34.172  54.305  0.00  0.00     0.000 A 
ENDBRANCH   5  22
TORSDOF 3
ENDMDL
MODEL 2
REMARK VINA RESULT:      -6.6     10.250     11.483
REMARK  3 active torsions:
REMARK  status: ('A' for Active; 'I' for Inactive)
REMARK    1  A    between atoms: N_10  and  C_3 
REMARK    2  A    between atoms: C_11  and  C_5 
REMARK    3  A    between atoms: C_12  and  N_10 
ROOT
ATOM      1  N   UNL d   1      44.789  28.775  59.587  0.00  0.00    -0.184 N 
ATOM      2  C   UNL d   1      44.884  28.440  58.824  0.00  0.00     0.168 A 
ATOM      3  C   UNL d   1      44.800  29.597  59.678  0.00  0.00     0.217 A 
ATOM      4  N   UNL d   1      44.676  27.474  60.144  0.00  0.00    -0.162 NA
ATOM      5  C   UNL d   1      44.873  27.638  58.735  0.00  0.00     0.055 A 
ATOM      6  N   UNL d   1      44.986  28.939  58.178  0.00  0.00    -0.227 NA
ATOM      7  C   UNL d   1      44.902  30.076  59.030  0.00  0.00     0.066 A 
ATOM      8  C   UNL d   1      44.769  27.145  59.392  0.00  0.00     0.104 A 
ATOM      9  C   UNL d   1      44.997  29.750  58.264  0.00  0.00     0.087 A 
ATOM     10  C   UNL d   1      44.936  30.883  58.946  0.00  0.00     0.006 A 
ATOM     11  C   UNL d   1      44.760  26.333  59.294  0.00  0.00     0.023 C 
ATOM     12  C   UNL d   1      45.088  30.362  57.727  0.00  0.00     0.019 A 
ATOM     13  C   UNL d   1      45.049  31.071  58.159  0.00  0.00     0.002 A 
ENDROOT
BRANCH   3  14
ATOM     14  N   UNL d   1      44.704  29.939  60.447  0.00  0.00    -0.383 NA
BRANCH  14  15
ATOM     15  C   UNL d   1      44.614  30.281  61.213  0.00  0.00     0.134 A 
ATOM     16  C   UNL d   1      44.734  29.806  61.909  0.00  0.00     0.034 A 
ATOM     17  C   UNL d   1      44.643  30.151  62.672  0.00  0.00     0.032 A 
ATOM     18  C   UNL d   1      44.434  30.961  62.750  0.00  0.00     0.140 A 
ATOM     19  C   UNL d   1      44.315  31.430  62.052  0.00  0.00     0.032 A 
ATOM     20  F   UNL d   1      44.342  31.308  63.518  0.00  0.00    -0.204 F 
ATOM     21  C   UNL d   1      44.403  31.098  61.287  0.00  0.00     0.034 A 
ENDBRANCH  14  15
ENDBRANCH   3  14
BRANCH   5  22
ATOM     22  C   UNL d   1      44.966  27.310  57.988  0.00  0.00     0.004 A 
ATOM     23  C   UNL d   1      45.717  27.222  57.666  0.00  0.00     0.000 A 
ATOM     24  C   UNL d   1      45.813  26.896  56.922  0.00  0.00     0.000 A 
ATOM     25  C   UNL d   1      45.152  26.654  56.492  0.00  0.00     0.000 A 
ATOM     26  C   UNL d   1      44.408  26.737  56.803  0.00  0.00     0.000 A 
ATOM     27  C   UNL d   1      44.314  27.069  57.559  0.00  0.00     0.000 A 
ENDBRANCH   5  22
TORSDOF 3
ENDMDL
MODEL 3
REMARK VINA RESULT:      -6.2      2.424      4.176
REMARK  3 active torsions:
REMARK  status: ('A' for Active; 'I' for Inactive)
REMARK    1  A    between atoms: N_10  and  C_3 
REMARK    2  A    between atoms: C_11  and  C_5 
REMARK    3  A    between atoms: C_12  and  N_10 
ROOT
ATOM      1  N   UNL d   1      53.406  32.436  54.340  0.00  0.00    -0.184 N 
ATOM      2  C   UNL d   1      53.241  33.252  54.244  0.00  0.00     0.168 A 
ATOM      3  C   UNL d   1      52.924  31.875  53.970  0.00  0.00     0.217 A 
ATOM      4  N   UNL d   1      54.516  32.757  55.164  0.00  0.00    -0.162 NA
ATOM      5  C   UNL d   1      53.711  33.801  54.605  0.00  0.00     0.055 A 
ATOM      6  N   UNL d   1      52.600  33.479  53.780  0.00  0.00    -0.227 NA
ATOM      7  C   UNL d   1      52.296  32.114  53.516  0.00  0.00     0.066 A 
ATOM      8  C   UNL d   1      54.353  33.561  55.069  0.00  0.00     0.104 A 
ATOM      9  C   UNL d   1      52.124  32.929  53.414  0.00  0.00     0.087 A 
ATOM     10  C   UNL d   1      51.737  31.704  53.093  0.00  0.00     0.006 A 
ATOM     11  C   UNL d   1      54.824  34.123  55.432  0.00  0.00     0.023 C 
ATOM     12  C   UNL d   1      51.465  33.000  52.932  0.00  0.00     0.019 A 
ATOM     13  C   UNL d   1      51.225  32.230  52.734  0.00  0.00     0.002 A 
ENDROOT
BRANCH   3  14
ATOM     14  N   UNL d   1      53.088  31.049  54.065  0.00  0.00    -0.383 NA
BRANCH  14  15
ATOM     15  C   UNL d   1      53.251  30.227  54.164  0.00  0.00     0.134 A 
ATOM     16  C   UNL d   1      53.046  29.836  54.892  0.00  0.00     0.034 A 
ATOM     17  C   UNL d   1      53.211  29.015  54.987  0.00  0.00     0.032 A 
ATOM     18  C   UNL d   1      53.578  28.581  54.368  0.00  0.00     0.140 A 
ATOM     19  C   UNL d   1      53.781  28.976  53.644  0.00  0.00     0.032 A 
ATOM     20  F   UNL d   1      53.744  27.755  54.464  0.00  0.00    -0.204 F 
ATOM     21  C   UNL d   1      53.621  29.793  53.537  0.00  0.00     0.034 A 
ENDBRANCH  14  15
ENDBRANCH   3  14
BRANCH   5  22
ATOM     22  C   UNL d   1      53.549  34.600  54.511  0.00  0.00     0.004 A 
ATOM     23  C   UNL d   1      53.090  34.997  55.064  0.00  0.00     0.000 A 
ATOM     24  C   UNL d   1      52.927  35.793  54.974  0.00  0.00     0.000 A 
ATOM     25  C   UNL d   1      53.226  36.201  54.322  0.00  0.00     0.000 A 
ATOM     26  C   UNL d   1      53.680  35.817  53.771  0.00  0.00     0.000 A 
ATOM     27  C   UNL d   1      53.844  35.008  53.867  0.00  0.00     0.000 A 
ENDBRANCH   5  22
TORSDOF 3
ENDMDL
MODEL 4
REMARK VINA RESULT:      -5.8      2.335      5.642
REMARK  3 active torsions:
REMARK  status: ('A' for Active; 'I' for Inactive)
REMARK    1  A    between atoms: N_10  and  C_3 
REMARK    2  A    between atoms: C_11  and  C_5 
REMARK    3  A    between atoms: C_12  and  N_10 
ROOT
ATOM      1  N   UNL d   1      49.173  35.223  53.103  0.00  0.00    -0.184 N 
ATOM      2  C   UNL d   1      48.407  35.390  52.804  0.00  0.00     0.168 A 
ATOM      3  C   UNL d   1      49.711  34.803  52.638  0.00  0.00     0.217 A 
ATOM      4  N   UNL d   1      48.846  35.894  54.310  0.00  0.00    -0.162 NA
ATOM      5  C   UNL d   1      47.880  35.800  53.257  0.00  0.00     0.055 A 
ATOM      6  N   UNL d   1      48.207  35.129  52.049  0.00  0.00    -0.227 NA
ATOM      7  C   UNL d   1      49.500  34.553  51.895  0.00  0.00     0.066 A 
ATOM      8  C   UNL d   1      48.092  36.058  54.015  0.00  0.00     0.104 A 
ATOM      9  C   UNL d   1      48.736  34.715  51.588  0.00  0.00     0.087 A 
ATOM     10  C   UNL d   1      49.898  34.139  51.322  0.00  0.00     0.006 A 
ATOM     11  C   UNL d   1      47.552  36.473  54.468  0.00  0.00     0.023 C 
ATOM     12  C   UNL d   1      48.683  34.397  50.834  0.00  0.00     0.019 A 
ATOM     13  C   UNL d   1      49.414  34.037  50.672  0.00  0.00     0.002 A 
ENDROOT
BRANCH   3  14
ATOM     14  N   UNL d   1      50.485  34.633  52.937  0.00  0.00    -0.383 NA
BRANCH  14  15
ATOM     15  C   UNL d   1      51.258  34.468  53.235  0.00  0.00     0.134 A 
ATOM     16  C   UNL d   1      51.849  35.080  53.247  0.00  0.00     0.034 A 
ATOM     17  C   UNL d   1      52.619  34.912  53.546  0.00  0.00     0.032 A 
ATOM     18  C   UNL d   1      52.805  34.144  53.832  0.00  0.00     0.140 A 
ATOM     19  C   UNL d   1      52.211  33.538  53.818  0.00  0.00     0.032 A 
ATOM     20  F   UNL d   1      53.580  33.975  54.133  0.00  0.00    -0.204 F 
ATOM     21  C   UNL d   1      51.441  33.693  53.523  0.00  0.00     0.034 A 
ENDBRANCH  14  15
ENDBRANCH   3  14
BRANCH   5  22
ATOM     22  C   UNL d   1      47.131  35.963  52.964  0.00  0.00     0.004 A 
ATOM     23  C   UNL d   1      46.480  35.542  53.236  0.00  0.00     0.000 A 
ATOM     24  C   UNL d   1      45.732  35.701  52.946  0.00  0.00     0.000 A 
ATOM     25  C   UNL d   1      45.630  36.289  52.377  0.00  0.00     0.000 A 
ATOM     26  C   UNL d   1      46.267  36.709  52.103  0.00  0.00     0.000 A 
ATOM     27  C   UNL d   1      47.025  36.545  52.400  0.00  0.00     0.000 A 
ENDBRANCH   5  22
TORSDOF 3
ENDMDL
MODEL 5
REMARK VINA RESULT:      -5.6      1.955      3.539
REMARK  3 active torsions:
REMARK  status: ('A' for Active; 'I' for Inactive)
REMARK    1  A    between atoms: N_10  and  C_3 
REMARK    2  A    between atoms: C_11  and  C_5 
REMARK    3  A    between atoms: C_12  and  N_10 
ROOT
ATOM      1  N   UNL d   1      52.400  31.590  53.434  0.00  0.00    -0.184 N 
ATOM      2  C   UNL d   1      52.931  31.037  53.774  0.00  0.00     0.168 A 
ATOM      3  C   UNL d   1      52.521  32.400  53.552  0.00  0.00     0.217 A 
ATOM      4  N   UNL d   1      51.649  30.525  52.873  0.00  0.00    -0.162 NA
ATOM      5  C   UNL d   1      52.813  30.247  53.659  0.00  0.00     0.055 A 
ATOM      6  N   UNL d   1      53.564  31.313  54.221  0.00  0.00    -0.227 NA
ATOM      7  C   UNL d   1      53.151  32.656  53.995  0.00  0.00     0.066 A 
ATOM      8  C   UNL d   1      52.171  29.980  53.208  0.00  0.00     0.104 A 
ATOM      9  C   UNL d   1      53.687  32.110  54.339  0.00  0.00     0.087 A 
ATOM     10  C   UNL d   1      53.409  33.397  54.204  0.00  0.00     0.006 A 
ATOM     11  C   UNL d   1      52.059  29.178  53.096  0.00  0.00     0.023 C 
ATOM     12  C   UNL d   1      54.260  32.527  54.750  0.00  0.00     0.019 A 
ATOM     13  C   UNL d   1      54.082  33.334  54.663  0.00  0.00     0.002 A 
ENDROOT
BRANCH   3  14
ATOM     14  N   UNL d   1      51.987  32.962  53.211  0.00  0.00    -0.383 NA
BRANCH  14  15
ATOM     15  C   UNL d   1      51.452  33.518  52.870  0.00  0.00     0.134 A 
ATOM     16  C   UNL d   1      50.737  33.729  53.282  0.00  0.00     0.034 A 
ATOM     17  C   UNL d   1      50.205  34.285  52.938  0.00  0.00     0.032 A 
ATOM     18  C   UNL d   1      50.376  34.631  52.192  0.00  0.00     0.140 A 
ATOM     19  C   UNL d   1      51.090  34.417  51.786  0.00  0.00     0.032 A 
ATOM     20  F   UNL d   1      49.840  35.191  51.847  0.00  0.00    -0.204 F 
ATOM     21  C   UNL d   1      51.628  33.865  52.117  0.00  0.00     0.034 A 
ENDBRANCH  14  15
ENDBRANCH   3  14
BRANCH   5  22
ATOM     22  C   UNL d   1      53.332  29.705  53.992  0.00  0.00     0.004 A 
ATOM     23  C   UNL d   1      53.155  29.351  54.711  0.00  0.00     0.000 A 
ATOM     24  C   UNL d   1      53.670  28.811  55.046  0.00  0.00     0.000 A 
ATOM     25  C   UNL d   1      54.373  28.621  54.658  0.00  0.00     0.000 A 
ATOM     26  C   UNL d   1      54.555  28.966  53.948  0.00  0.00     0.000 A 
ATOM     27  C   UNL d   1      54.030  29.514  53.611  0.00  0.00     0.000 A 
ENDBRANCH   5  22
TORSDOF 3
ENDMDL
