MODEL 1
REMARK VINA RESULT:      -6.0      0.000      0.000
REMARK  2 active torsions:
REMARK  status: ('A' for Active; 'I' for Inactive)
REMARK    1  A    between atoms: C_4  and  C_2 
REMARK    2  A    between atoms: C_8  and  C_3 
ROOT
ATOM      1  S   UNL d   1     -41.961-122.281 -53.931  0.00  0.00    -0.081 SA
ATOM      2  C   UNL d   1     -41.502-122.852 -53.549  0.00  0.00     0.031 A 
ATOM      3  C   UNL d   1     -41.871-122.385 -54.758  0.00  0.00     0.094 A 
ATOM      4  C   UNL d   1     -41.123-123.316 -54.136  0.00  0.00     0.007 A 
ATOM      5  C   UNL d   1     -41.356-123.021 -54.878  0.00  0.00     0.013 A 
ENDROOT
BRANCH   2   6
ATOM      6  C   UNL d   1     -41.426-122.953 -52.741  0.00  0.00     0.025 A 
ATOM      7  C   UNL d   1     -41.312-122.300 -52.248  0.00  0.00     0.005 A 
ATOM      8  C   UNL d   1     -41.236-122.400 -51.440  0.00  0.00     0.038 A 
ATOM      9  C   UNL d   1     -41.123-121.752 -50.952  0.00  0.00     0.003 C 
ATOM     10  C   UNL d   1     -41.275-123.161 -51.115  0.00  0.00     0.184 A 
ATOM     11  N   UNL d   1     -41.389-123.817 -51.611  0.00  0.00    -0.224 NA
ATOM     12  N   UNL d   1     -41.199-123.265 -50.303  0.00  0.00    -0.127 N 
ATOM     13  C   UNL d   1     -41.464-123.701 -52.420  0.00  0.00     0.101 A 
ENDBRANCH   2   6
BRANCH   3  14
ATOM     14  C   UNL d   1     -42.236-121.928 -55.336  0.00  0.00     0.217 C 
ATOM     15  O   UNL d   1     -41.768-121.451 -55.832  0.00  0.00    -0.643 OA
ATOM     16  O   UNL d   1     -43.040-121.935 -55.432  0.00  0.00    -0.643 OA
ENDBRANCH   3  14
TORSDOF 2
ENDMDL
MODEL 2
REMARK VINA RESULT:      -4.8      2.522      3.745
REMARK  2 active torsions:
REMARK  status: ('A' for Active; 'I' for Inactive)
REMARK    1  A    between atoms: C_4  and  C_2 
REMARK    2  A    between atoms: C_8  and  C_3 
ROOT
ATOM      1  S   UNL d   1     -41.862-122.904 -51.517  0.00  0.00    -0.081 SA
ATOM      2  C   UNL d   1     -41.498-122.465 -52.114  0.00  0.00     0.031 A 
ATOM      3  C   UNL d   1     -41.716-122.519 -50.786  0.00  0.00     0.094 A 
ATOM      4  C   UNL d   1     -41.123-121.804 -51.760  0.00  0.00     0.007 A 
ATOM      5  C   UNL d   1     -41.262-121.845 -50.941  0.00  0.00     0.013 A 
ENDROOT
BRANCH   2   6
ATOM      6  C   UNL d   1     -41.499-122.639 -52.914  0.00  0.00     0.025 A 
ATOM      7  C   UNL d   1     -41.873-122.135 -53.449  0.00  0.00     0.005 A 
ATOM      8  C   UNL d   1     -41.875-122.309 -54.249  0.00  0.00     0.038 A 
ATOM      9  C   UNL d   1     -42.246-121.808 -54.780  0.00  0.00     0.003 C 
ATOM     10  C   UNL d   1     -41.499-122.995 -54.521  0.00  0.00     0.184 A 
ATOM     11  N   UNL d   1     -41.122-123.501 -53.981  0.00  0.00    -0.224 NA
ATOM     12  N   UNL d   1     -41.498-123.173 -55.323  0.00  0.00    -0.127 N 
ATOM     13  C   UNL d   1     -41.129-123.314 -53.182  0.00  0.00     0.101 A 
ENDBRANCH   2   6
BRANCH   3  14
ATOM     14  C   UNL d   1     -41.983-122.777 -50.052  0.00  0.00     0.217 C 
ATOM     15  O   UNL d   1     -42.725-122.519 -49.776  0.00  0.00    -0.643 OA
ATOM     16  O   UNL d   1     -41.539-123.277 -49.595  0.00  0.00    -0.643 OA
ENDBRANCH   3  14
TORSDOF 2
ENDMDL
MODEL 3
REMARK VINA RESULT:      -4.6      2.131      2.956
REMARK  2 active torsions:
REMARK  status: ('A' for Active; 'I' for Inactive)
REMARK    1  A    between atoms: C_4  and  C_2 
REMARK    2  A    between atoms: C_8  and  C_3 
ROOT
ATOM      1  S   UNL d   1     -41.631-122.502 -51.274  0.00  0.00    -0.081 SA
ATOM      2  C   UNL d   1     -41.639-123.197 -50.827  0.00  0.00     0.031 A 
ATOM      3  C   UNL d   1     -41.310-122.682 -52.028  0.00  0.00     0.094 A 
ATOM      4  C   UNL d   1     -41.323-123.814 -51.298  0.00  0.00     0.007 A 
ATOM      5  C   UNL d   1     -41.122-123.488 -52.037  0.00  0.00     0.013 A 
ENDROOT
BRANCH   2   6
ATOM      6  C   UNL d   1     -41.907-123.275 -50.058  0.00  0.00     0.025 A 
ATOM      7  C   UNL d   1     -41.382-123.467 -49.451  0.00  0.00     0.005 A 
ATOM      8  C   UNL d   1     -41.650-123.545 -48.682  0.00  0.00     0.038 A 
ATOM      9  C   UNL d   1     -41.127-123.736 -48.080  0.00  0.00     0.003 C 
ATOM     10  C   UNL d   1     -42.452-123.431 -48.512  0.00  0.00     0.184 A 
ATOM     11  N   UNL d   1     -42.980-123.237 -49.124  0.00  0.00    -0.224 NA
ATOM     12  N   UNL d   1     -42.724-123.508 -47.740  0.00  0.00    -0.127 N 
ATOM     13  C   UNL d   1     -42.696-123.162 -49.891  0.00  0.00     0.101 A 
ENDBRANCH   2   6
BRANCH   3  14
ATOM     14  C   UNL d   1     -41.205-122.143 -52.640  0.00  0.00     0.217 C 
ATOM     15  O   UNL d   1     -41.184-122.420 -53.425  0.00  0.00    -0.643 OA
ATOM     16  O   UNL d   1     -41.123-121.351 -52.494  0.00  0.00    -0.643 OA
ENDBRANCH   3  14
TORSDOF 2
ENDMDL
MODEL 4
REMARK VINA RESULT:      -4.5      2.965      4.213
REMARK  2 active torsions:
REMARK  status: ('A' for Active; 'I' for Inactive)
REMARK    1  A    between atoms: C_4  and  C_2 
REMARK    2  A    between atoms: C_8  and  C_3 
ROOT
ATOM      1  S   UNL d   1     -42.440-122.704 -50.341  0.00  0.00    -0.081 SA
ATOM      2  C   UNL d   1     -41.705-122.736 -50.716  0.00  0.00     0.031 A 
ATOM      3  C   UNL d   1     -42.321-122.850 -49.524  0.00  0.00     0.094 A 
ATOM      4  C   UNL d   1     -41.123-122.902 -50.136  0.00  0.00     0.007 A 
ATOM      5  C   UNL d   1     -41.512-122.971 -49.404  0.00  0.00     0.013 A 
ENDROOT
BRANCH   2   6
ATOM      6  C   UNL d   1     -41.564-122.626 -51.515  0.00  0.00     0.025 A 
ATOM      7  C   UNL d   1     -41.421-123.274 -52.006  0.00  0.00     0.005 A 
ATOM      8  C   UNL d   1     -41.279-123.163 -52.804  0.00  0.00     0.038 A 
ATOM      9  C   UNL d   1     -41.137-123.807 -53.291  0.00  0.00     0.003 C 
ATOM     10  C   UNL d   1     -41.279-122.398 -53.120  0.00  0.00     0.184 A 
ATOM     11  N   UNL d   1     -41.423-121.747 -52.625  0.00  0.00    -0.224 NA
ATOM     12  N   UNL d   1     -41.137-122.284 -53.922  0.00  0.00    -0.127 N 
ATOM     13  C   UNL d   1     -41.564-121.873 -51.826  0.00  0.00     0.101 A 
ENDBRANCH   2   6
BRANCH   3  14
ATOM     14  C   UNL d   1     -42.913-122.867 -48.953  0.00  0.00     0.217 C 
ATOM     15  O   UNL d   1     -43.485-123.471 -48.980  0.00  0.00    -0.643 OA
ATOM     16  O   UNL d   1     -42.950-122.309 -48.368  0.00  0.00    -0.643 OA
ENDBRANCH   3  14
TORSDOF 2
ENDMDL
