MODEL 1
REMARK VINA RESULT:      -7.1      0.000      0.000
REMARK  3 active torsions:
REMARK  status: ('A' for Active; 'I' for Inactive)
REMARK    1  A    between atoms: N_5  and  C_2 
REMARK    2  A    between atoms: C_9  and  C_3 
REMARK       I    between atoms: C_7  and  N_5 
REMARK    3  A    between atoms: C_8  and  C_7 
ROOT
ATOM      1  N   UNL d   1     -41.782-122.788 -52.507  0.00  0.00    -0.200 NA
ATOM      2  C   UNL d   1     -41.507-122.469 -51.806  0.00  0.00     0.216 A 
ATOM      3  C   UNL d   1     -41.562-122.265 -53.118  0.00  0.00     0.172 A 
ATOM      4  N   UNL d   1     -41.156-121.634 -52.779  0.00  0.00    -0.187 NA
ATOM      5  S   UNL d   1     -41.123-121.761 -51.968  0.00  0.00     0.054 SA
ENDROOT
BRANCH   2   6
ATOM      6  N   UNL d   1     -41.604-122.807 -51.062  0.00  0.00    -0.181 NA
ATOM      7  C   UNL d   1     -42.127-122.463 -50.519  0.00  0.00     0.281 C 
ATOM      8  O   UNL d   1     -42.547-121.787 -50.721  0.00  0.00    -0.265 OA
BRANCH   7   9
ATOM      9  C   UNL d   1     -42.223-122.800 -49.779  0.00  0.00     0.058 A 
ATOM     10  C   UNL d   1     -42.922-122.686 -49.363  0.00  0.00     0.005 A 
ATOM     11  C   UNL d   1     -43.020-123.026 -48.615  0.00  0.00     0.000 A 
ATOM     12  C   UNL d   1     -42.417-123.478 -48.287  0.00  0.00     0.000 A 
ATOM     13  C   UNL d   1     -41.711-123.595 -48.703  0.00  0.00     0.000 A 
ATOM     14  C   UNL d   1     -42.514-123.816 -47.543  0.00  0.00     0.000 C 
ATOM     15  C   UNL d   1     -41.613-123.255 -49.451  0.00  0.00     0.005 A 
ENDBRANCH   7   9
ENDBRANCH   2   6
BRANCH   3  16
ATOM     16  C   UNL d   1     -41.722-122.362 -53.915  0.00  0.00     0.036 A 
ATOM     17  C   UNL d   1     -41.374-122.992 -54.326  0.00  0.00     0.003 A 
ATOM     18  C   UNL d   1     -41.542-123.082 -55.130  0.00  0.00     0.000 A 
ATOM     19  C   UNL d   1     -42.049-122.551 -55.520  0.00  0.00     0.000 A 
ATOM     20  C   UNL d   1     -42.387-121.932 -55.104  0.00  0.00     0.000 A 
ATOM     21  C   UNL d   1     -42.225-121.834 -54.299  0.00  0.00     0.003 A 
ENDBRANCH   3  16
TORSDOF 3
ENDMDL
MODEL 2
REMARK VINA RESULT:      -4.6      0.971      5.077
REMARK  3 active torsions:
REMARK  status: ('A' for Active; 'I' for Inactive)
REMARK    1  A    between atoms: N_5  and  C_2 
REMARK    2  A    between atoms: C_9  and  C_3 
REMARK       I    between atoms: C_7  and  N_5 
REMARK    3  A    between atoms: C_8  and  C_7 
ROOT
ATOM      1  N   UNL d   1     -42.054-122.666 -51.145  0.00  0.00    -0.200 NA
ATOM      2  C   UNL d   1     -41.660-122.915 -51.818  0.00  0.00     0.216 A 
ATOM      3  C   UNL d   1     -41.906-123.232 -50.550  0.00  0.00     0.172 A 
ATOM      4  N   UNL d   1     -41.424-123.817 -50.870  0.00  0.00    -0.187 NA
ATOM      5  S   UNL d   1     -41.273-123.621 -51.653  0.00  0.00     0.054 SA
ENDROOT
BRANCH   2   6
ATOM      6  N   UNL d   1     -41.658-122.519 -52.538  0.00  0.00    -0.181 NA
ATOM      7  C   UNL d   1     -41.994-122.876 -53.206  0.00  0.00     0.281 C 
ATOM      8  O   UNL d   1     -42.328-123.624 -53.150  0.00  0.00    -0.265 OA
BRANCH   7   9
ATOM      9  C   UNL d   1     -41.991-122.481 -53.923  0.00  0.00     0.058 A 
ATOM     10  C   UNL d   1     -41.747-122.869 -54.605  0.00  0.00     0.005 A 
ATOM     11  C   UNL d   1     -41.745-122.469 -55.330  0.00  0.00     0.000 A 
ATOM     12  C   UNL d   1     -41.985-121.685 -55.369  0.00  0.00     0.000 A 
ATOM     13  C   UNL d   1     -42.232-121.291 -54.683  0.00  0.00     0.000 A 
ATOM     14  C   UNL d   1     -41.983-121.288 -56.090  0.00  0.00     0.000 C 
ATOM     15  C   UNL d   1     -42.234-121.690 -53.958  0.00  0.00     0.005 A 
ENDBRANCH   7   9
ENDBRANCH   2   6
BRANCH   3  16
ATOM     16  C   UNL d   1     -42.190-123.208 -49.783  0.00  0.00     0.036 A 
ATOM     17  C   UNL d   1     -41.659-123.266 -49.150  0.00  0.00     0.003 A 
ATOM     18  C   UNL d   1     -41.956-123.241 -48.379  0.00  0.00     0.000 A 
ATOM     19  C   UNL d   1     -42.772-123.159 -48.241  0.00  0.00     0.000 A 
ATOM     20  C   UNL d   1     -43.288-123.102 -48.875  0.00  0.00     0.000 A 
ATOM     21  C   UNL d   1     -42.999-123.127 -49.649  0.00  0.00     0.003 A 
ENDBRANCH   3  16
TORSDOF 3
ENDMDL
