MODEL 1
REMARK VINA RESULT:      -6.6      0.000      0.000
REMARK  1 active torsions:
REMARK  status: ('A' for Active; 'I' for Inactive)
REMARK    1  A    between atoms: C_5  and  C_1 
ROOT
ATOM      1  N   UNL d   1     -41.724-123.082 -51.668  0.00  0.00    -0.242 NA
ATOM      2  C   UNL d   1     -41.522-122.395 -52.077  0.00  0.00     0.117 A 
ATOM      3  C   UNL d   1     -41.615-123.103 -50.841  0.00  0.00     0.081 A 
ATOM      4  C   UNL d   1     -41.222-121.748 -51.691  0.00  0.00     0.022 A 
ATOM      5  C   UNL d   1     -41.318-122.463 -50.455  0.00  0.00     0.018 A 
ATOM      6  C   UNL d   1     -41.123-121.792 -50.872  0.00  0.00     0.003 A 
ATOM      7  C   UNL d   1     -41.816-123.785 -50.428  0.00  0.00     0.019 A 
ATOM      8  C   UNL d   1     -41.219-122.507 -49.636  0.00  0.00     0.002 A 
ATOM      9  C   UNL d   1     -41.712-123.818 -49.605  0.00  0.00     0.002 A 
ATOM     10  C   UNL d   1     -41.413-123.173 -49.219  0.00  0.00     0.000 A 
ENDROOT
BRANCH   2  11
ATOM     11  C   UNL d   1     -41.620-122.352 -52.887  0.00  0.00     0.180 A 
ATOM     12  N   UNL d   1     -41.215-122.800 -53.461  0.00  0.00    -0.224 NA
ATOM     13  C   UNL d   1     -41.487-122.575 -54.190  0.00  0.00     0.101 A 
ATOM     14  C   UNL d   1     -41.289-122.830 -54.965  0.00  0.00     0.021 A 
ATOM     15  C   UNL d   1     -42.061-121.989 -54.090  0.00  0.00     0.101 A 
ATOM     16  C   UNL d   1     -41.661-122.499 -55.620  0.00  0.00     0.002 A 
ATOM     17  C   UNL d   1     -42.234-121.913 -55.519  0.00  0.00     0.002 A 
ATOM     18  C   UNL d   1     -42.441-121.652 -54.763  0.00  0.00     0.021 A 
ATOM     19  N   UNL d   1     -42.149-121.845 -53.297  0.00  0.00    -0.224 NA
ENDBRANCH   2  11
TORSDOF 1
ENDMDL
MODEL 2
REMARK VINA RESULT:      -6.3      0.803      1.069
REMARK  1 active torsions:
REMARK  status: ('A' for Active; 'I' for Inactive)
REMARK    1  A    between atoms: C_5  and  C_1 
ROOT
ATOM      1  N   UNL d   1     -42.248-122.680 -51.149  0.00  0.00    -0.242 NA
ATOM      2  C   UNL d   1     -41.685-123.025 -51.642  0.00  0.00     0.117 A 
ATOM      3  C   UNL d   1     -42.232-122.861 -50.335  0.00  0.00     0.081 A 
ATOM      4  C   UNL d   1     -41.123-123.531 -51.351  0.00  0.00     0.022 A 
ATOM      5  C   UNL d   1     -41.676-123.363 -50.041  0.00  0.00     0.018 A 
ATOM      6  C   UNL d   1     -41.126-123.696 -50.541  0.00  0.00     0.003 A 
ATOM      7  C   UNL d   1     -42.791-122.520 -49.837  0.00  0.00     0.019 A 
ATOM      8  C   UNL d   1     -41.680-123.528 -49.232  0.00  0.00     0.002 A 
ATOM      9  C   UNL d   1     -42.785-122.693 -49.025  0.00  0.00     0.002 A 
ATOM     10  C   UNL d   1     -42.226-123.198 -48.734  0.00  0.00     0.000 A 
ENDROOT
BRANCH   2  11
ATOM     11  C   UNL d   1     -41.681-122.862 -52.444  0.00  0.00     0.180 A 
ATOM     12  N   UNL d   1     -41.430-123.372 -53.052  0.00  0.00    -0.224 NA
ATOM     13  C   UNL d   1     -41.523-122.982 -53.757  0.00  0.00     0.101 A 
ATOM     14  C   UNL d   1     -41.366-123.212 -54.549  0.00  0.00     0.021 A 
ATOM     15  C   UNL d   1     -41.830-122.230 -53.606  0.00  0.00     0.101 A 
ATOM     16  C   UNL d   1     -41.517-122.694 -55.170  0.00  0.00     0.002 A 
ATOM     17  C   UNL d   1     -41.824-121.943 -55.019  0.00  0.00     0.002 A 
ATOM     18  C   UNL d   1     -41.983-121.701 -54.245  0.00  0.00     0.021 A 
ATOM     19  N   UNL d   1     -41.930-122.147 -52.805  0.00  0.00    -0.224 NA
ENDBRANCH   2  11
TORSDOF 1
ENDMDL
MODEL 3
REMARK VINA RESULT:      -6.2      1.039      4.377
REMARK  1 active torsions:
REMARK  status: ('A' for Active; 'I' for Inactive)
REMARK    1  A    between atoms: C_5  and  C_1 
ROOT
ATOM      1  N   UNL d   1     -41.657-123.373 -52.030  0.00  0.00    -0.242 NA
ATOM      2  C   UNL d   1     -41.552-122.767 -51.482  0.00  0.00     0.117 A 
ATOM      3  C   UNL d   1     -41.508-123.215 -52.836  0.00  0.00     0.081 A 
ATOM      4  C   UNL d   1     -41.309-122.028 -51.712  0.00  0.00     0.022 A 
ATOM      5  C   UNL d   1     -41.266-122.484 -53.068  0.00  0.00     0.018 A 
ATOM      6  C   UNL d   1     -41.167-121.895 -52.515  0.00  0.00     0.003 A 
ATOM      7  C   UNL d   1     -41.610-123.816 -53.388  0.00  0.00     0.019 A 
ATOM      8  C   UNL d   1     -41.125-122.351 -53.871  0.00  0.00     0.002 A 
ATOM      9  C   UNL d   1     -41.465-123.671 -54.192  0.00  0.00     0.002 A 
ATOM     10  C   UNL d   1     -41.223-122.935 -54.422  0.00  0.00     0.000 A 
ENDROOT
BRANCH   2  11
ATOM     11  C   UNL d   1     -41.692-122.899 -50.687  0.00  0.00     0.180 A 
ATOM     12  N   UNL d   1     -42.421-122.817 -50.292  0.00  0.00    -0.224 NA
ATOM     13  C   UNL d   1     -42.303-123.004 -49.512  0.00  0.00     0.101 A 
ATOM     14  C   UNL d   1     -42.825-123.022 -48.855  0.00  0.00     0.021 A 
ATOM     15  C   UNL d   1     -41.508-123.203 -49.405  0.00  0.00     0.101 A 
ATOM     16  C   UNL d   1     -42.550-123.236 -48.110  0.00  0.00     0.002 A 
ATOM     17  C   UNL d   1     -41.755-123.435 -48.003  0.00  0.00     0.002 A 
ATOM     18  C   UNL d   1     -41.229-123.422 -48.639  0.00  0.00     0.021 A 
ATOM     19  N   UNL d   1     -41.126-123.141 -50.117  0.00  0.00    -0.224 NA
ENDBRANCH   2  11
TORSDOF 1
ENDMDL
MODEL 4
REMARK VINA RESULT:      -5.5      1.088      1.917
REMARK  1 active torsions:
REMARK  status: ('A' for Active; 'I' for Inactive)
REMARK    1  A    between atoms: C_5  and  C_1 
ROOT
ATOM      1  N   UNL d   1     -41.444-123.243 -50.085  0.00  0.00    -0.242 NA
ATOM      2  C   UNL d   1     -41.970-122.912 -50.626  0.00  0.00     0.117 A 
ATOM      3  C   UNL d   1     -41.643-123.231 -49.274  0.00  0.00     0.081 A 
ATOM      4  C   UNL d   1     -42.668-122.578 -50.386  0.00  0.00     0.022 A 
ATOM      5  C   UNL d   1     -42.335-122.901 -49.032  0.00  0.00     0.018 A 
ATOM      6  C   UNL d   1     -42.844-122.577 -49.579  0.00  0.00     0.003 A 
ATOM      7  C   UNL d   1     -41.123-123.560 -48.729  0.00  0.00     0.019 A 
ATOM      8  C   UNL d   1     -42.511-122.900 -48.224  0.00  0.00     0.002 A 
ATOM      9  C   UNL d   1     -41.310-123.554 -47.920  0.00  0.00     0.002 A 
ATOM     10  C   UNL d   1     -42.006-123.221 -47.679  0.00  0.00     0.000 A 
ENDROOT
BRANCH   2  11
ATOM     11  C   UNL d   1     -41.795-122.912 -51.425  0.00  0.00     0.180 A 
ATOM     12  N   UNL d   1     -41.834-122.260 -51.942  0.00  0.00    -0.224 NA
ATOM     13  C   UNL d   1     -41.614-122.515 -52.680  0.00  0.00     0.101 A 
ATOM     14  C   UNL d   1     -41.548-122.112 -53.414  0.00  0.00     0.021 A 
ATOM     15  C   UNL d   1     -41.436-123.320 -52.641  0.00  0.00     0.101 A 
ATOM     16  C   UNL d   1     -41.307-122.516 -54.089  0.00  0.00     0.002 A 
ATOM     17  C   UNL d   1     -41.129-123.321 -54.049  0.00  0.00     0.002 A 
ATOM     18  C   UNL d   1     -41.190-123.731 -53.335  0.00  0.00     0.021 A 
ATOM     19  N   UNL d   1     -41.544-123.573 -51.878  0.00  0.00    -0.224 NA
ENDBRANCH   2  11
TORSDOF 1
ENDMDL
MODEL 5
REMARK VINA RESULT:      -5.0      0.651      4.260
REMARK  1 active torsions:
REMARK  status: ('A' for Active; 'I' for Inactive)
REMARK    1  A    between atoms: C_5  and  C_1 
ROOT
ATOM      1  N   UNL d   1     -41.908-122.283 -53.213  0.00  0.00    -0.242 NA
ATOM      2  C   UNL d   1     -41.525-122.909 -52.837  0.00  0.00     0.117 A 
ATOM      3  C   UNL d   1     -41.884-122.242 -54.046  0.00  0.00     0.081 A 
ATOM      4  C   UNL d   1     -41.132-123.478 -53.260  0.00  0.00     0.022 A 
ATOM      5  C   UNL d   1     -41.496-122.804 -54.469  0.00  0.00     0.018 A 
ATOM      6  C   UNL d   1     -41.123-123.417 -54.084  0.00  0.00     0.003 A 
ATOM      7  C   UNL d   1     -42.264-121.620 -54.427  0.00  0.00     0.019 A 
ATOM      8  C   UNL d   1     -41.486-122.742 -55.293  0.00  0.00     0.002 A 
ATOM      9  C   UNL d   1     -42.248-121.568 -55.255  0.00  0.00     0.002 A 
ATOM     10  C   UNL d   1     -41.856-122.134 -55.678  0.00  0.00     0.000 A 
ENDROOT
BRANCH   2  11
ATOM     11  C   UNL d   1     -41.535-122.970 -52.021  0.00  0.00     0.180 A 
ATOM     12  N   UNL d   1     -41.186-123.574 -51.565  0.00  0.00    -0.224 NA
ATOM     13  C   UNL d   1     -41.333-123.411 -50.784  0.00  0.00     0.101 A 
ATOM     14  C   UNL d   1     -41.122-123.815 -50.079  0.00  0.00     0.021 A 
ATOM     15  C   UNL d   1     -41.770-122.711 -50.737  0.00  0.00     0.101 A 
ATOM     16  C   UNL d   1     -41.349-123.518 -49.346  0.00  0.00     0.002 A 
ATOM     17  C   UNL d   1     -41.786-122.819 -49.299  0.00  0.00     0.002 A 
ATOM     18  C   UNL d   1     -42.001-122.410 -49.984  0.00  0.00     0.021 A 
ATOM     19  N   UNL d   1     -41.898-122.434 -51.488  0.00  0.00    -0.224 NA
ENDBRANCH   2  11
TORSDOF 1
ENDMDL
