MODEL 1
REMARK VINA RESULT:      45.2      0.000      0.000
REMARK  6 active torsions:
REMARK  status: ('A' for Active; 'I' for Inactive)
REMARK    1  A    between atoms: C_6  and  N_1 
REMARK    2  A    between atoms: C_13  and  C_6 
REMARK    3  A    between atoms: N_12  and  C_22 
REMARK    4  A    between atoms: C_23  and  N_12 
REMARK    5  A    between atoms: C_22  and  C_13 
REMARK    6  A    between atoms: C_20  and  C_23 
ROOT
ATOM      1  N   UNL d   1     -57.471 -98.779 -43.938  0.00  0.00    -0.303 N 
ATOM      2  C   UNL d   1     -58.708 -98.773 -44.431  0.00  0.00     0.018 A 
ATOM      3  C   UNL d   1     -58.765 -98.776 -43.603  0.00  0.00     0.018 A 
ATOM      4  C   UNL d   1     -57.910 -98.775 -44.637  0.00  0.00     0.064 A 
ATOM      5  C   UNL d   1     -57.990 -98.779 -43.305  0.00  0.00     0.064 A 
ATOM      6  C   UNL d   1     -57.863 -98.782 -42.495  0.00  0.00     0.018 A 
ATOM      7  C   UNL d   1     -57.693 -98.773 -45.430  0.00  0.00     0.018 A 
ATOM      8  C   UNL d   1     -59.407 -98.775 -43.089  0.00  0.00     0.008 A 
ATOM      9  C   UNL d   1     -59.290 -98.769 -45.017  0.00  0.00     0.008 A 
ATOM     10  C   UNL d   1     -59.066 -98.767 -45.810  0.00  0.00     0.035 A 
ATOM     11  C   UNL d   1     -59.284 -98.779 -42.268  0.00  0.00     0.035 A 
ATOM     12  C   UNL d   1     -58.510 -98.782 -41.966  0.00  0.00     0.008 A 
ATOM     13  C   UNL d   1     -58.267 -98.769 -46.017  0.00  0.00     0.008 A 
ATOM     14 BR   UNL d   1     -59.643 -98.763 -46.396  0.00  0.00    -0.049 Br
ATOM     15 BR   UNL d   1     -59.926 -98.778 -41.754  0.00  0.00    -0.049 Br
ENDROOT
BRANCH   1  16
ATOM     16  C   UNL d   1     -56.646 -98.781 -43.894  0.00  0.00     0.124 C 
BRANCH  16  17
ATOM     17  C   UNL d   1     -56.216 -99.430 -44.158  0.00  0.00     0.232 C 
ATOM     18  O   UNL d   1     -56.586-100.171 -44.225  0.00  0.00    -0.283 OA
BRANCH  17  19
ATOM     19  C   UNL d   1     -55.419 -99.351 -44.358  0.00  0.00     0.142 C 
BRANCH  19  20
ATOM     20  N   UNL d   1     -54.983-100.020 -44.568  0.00  0.00    -0.237 NA
BRANCH  20  21
ATOM     21  C   UNL d   1     -55.198-100.763 -44.280  0.00  0.00     0.124 C 
BRANCH  21  22
ATOM     22  C   UNL d   1     -55.169-101.419 -44.766  0.00  0.00     0.119 A 
ATOM     23  O   UNL d   1     -55.376-101.436 -45.570  0.00  0.00    -0.304 OA
ATOM     24  C   UNL d   1     -55.262-102.212 -45.843  0.00  0.00     0.123 A 
ATOM     25  C   UNL d   1     -54.986-102.665 -45.210  0.00  0.00     0.029 A 
ATOM     26  C   UNL d   1     -54.929-102.179 -44.550  0.00  0.00     0.028 A 
ENDBRANCH  21  22
ENDBRANCH  20  21
ENDBRANCH  19  20
ENDBRANCH  17  19
ENDBRANCH  16  17
ENDBRANCH   1  16
TORSDOF 6
ENDMDL
