MODEL 1
REMARK VINA RESULT:      -3.3      0.000      0.000
REMARK  4 active torsions:
REMARK  status: ('A' for Active; 'I' for Inactive)
REMARK    1  A    between atoms: N_7  and  C_1 
REMARK    2  A    between atoms: S_2  and  C_8 
REMARK    3  A    between atoms: C_10  and  S_2 
REMARK       I    between atoms: C_9  and  N_7 
REMARK    4  A    between atoms: C_8  and  C_9 
ROOT
ATOM      1  N   UNL d   1      32.217  18.381 -24.256  0.00  0.00    -0.182 NA
ATOM      2  C   UNL d   1      32.598  18.350 -23.527  0.00  0.00     0.293 C 
ATOM      3  O   UNL d   1      32.344  17.826 -22.941  0.00  0.00    -0.264 OA
ENDROOT
BRANCH   2   4
ATOM      4  C   UNL d   1      33.234  18.836 -23.365  0.00  0.00     0.161 C 
BRANCH   4   5
ATOM      5  S   UNL d   1      33.152  19.435 -22.780  0.00  0.00     0.215 S 
ATOM      6  O   UNL d   1      33.065  20.011 -23.380  0.00  0.00    -0.217 OA
ATOM      7  O   UNL d   1      33.239  18.863 -22.189  0.00  0.00    -0.217 OA
BRANCH   5   8
ATOM      8  C   UNL d   1      33.070  20.029 -22.203  0.00  0.00     0.088 A 
ATOM      9  C   UNL d   1      32.900  20.802 -22.431  0.00  0.00     0.012 A 
ATOM     10  C   UNL d   1      32.820  21.386 -21.862  0.00  0.00     0.012 A 
ATOM     11  C   UNL d   1      32.910  21.198 -21.065  0.00  0.00     0.058 A 
ATOM     12  C   UNL d   1      33.079  20.433 -20.834  0.00  0.00     0.012 A 
ATOM     13 CL   UNL d   1      32.828  21.789 -20.493  0.00  0.00    -0.082 Cl
ATOM     14  C   UNL d   1      33.159  19.846 -21.409  0.00  0.00     0.012 A 
ENDBRANCH   5   8
ENDBRANCH   4   5
ENDBRANCH   2   4
BRANCH   1  15
ATOM     15  C   UNL d   1      31.601  17.906 -24.402  0.00  0.00     0.197 A 
ATOM     16  N   UNL d   1      30.792  18.136 -24.374  0.00  0.00    -0.221 NA
ATOM     17  C   UNL d   1      30.329  17.468 -24.564  0.00  0.00     0.090 A 
ATOM     18  C   UNL d   1      29.511  17.360 -24.623  0.00  0.00     0.018 A 
ATOM     19  C   UNL d   1      30.851  16.829 -24.707  0.00  0.00     0.060 A 
ATOM     20  C   UNL d   1      29.206  16.611 -24.827  0.00  0.00     0.002 A 
ATOM     21  C   UNL d   1      29.021  17.966 -24.487  0.00  0.00     0.002 C 
ATOM     22  C   UNL d   1      29.724  15.959 -24.974  0.00  0.00     0.012 A 
ATOM     23  C   UNL d   1      30.548  16.077 -24.912  0.00  0.00     0.065 A 
ATOM     24 CL   UNL d   1      31.063  15.453 -25.051  0.00  0.00    -0.082 Cl
ATOM     25  S   UNL d   1      31.638  17.110 -24.604  0.00  0.00    -0.046 SA
ENDBRANCH   1  15
TORSDOF 4
ENDMDL
MODEL 2
REMARK VINA RESULT:      -2.9      0.953      1.300
REMARK  4 active torsions:
REMARK  status: ('A' for Active; 'I' for Inactive)
REMARK    1  A    between atoms: N_7  and  C_1 
REMARK    2  A    between atoms: S_2  and  C_8 
REMARK    3  A    between atoms: C_10  and  S_2 
REMARK       I    between atoms: C_9  and  N_7 
REMARK    4  A    between atoms: C_8  and  C_9 
ROOT
ATOM      1  N   UNL d   1      32.487  18.524 -23.959  0.00  0.00    -0.182 NA
ATOM      2  C   UNL d   1      32.664  18.812 -23.209  0.00  0.00     0.293 C 
ATOM      3  O   UNL d   1      32.261  18.532 -22.544  0.00  0.00    -0.264 OA
ENDROOT
BRANCH   2   4
ATOM      4  C   UNL d   1      33.241  19.380 -23.102  0.00  0.00     0.161 C 
BRANCH   4   5
ATOM      5  S   UNL d   1      33.084  20.031 -22.591  0.00  0.00     0.215 S 
ATOM      6  O   UNL d   1      33.049  20.542 -23.252  0.00  0.00    -0.217 OA
ATOM      7  O   UNL d   1      33.119  19.521 -21.941  0.00  0.00    -0.217 OA
BRANCH   5   8
ATOM      8  C   UNL d   1      32.928  20.675 -22.088  0.00  0.00     0.088 A 
ATOM      9  C   UNL d   1      33.045  21.444 -22.358  0.00  0.00     0.012 A 
ATOM     10  C   UNL d   1      32.891  22.077 -21.862  0.00  0.00     0.012 A 
ATOM     11  C   UNL d   1      32.621  21.942 -21.095  0.00  0.00     0.058 A 
ATOM     12  C   UNL d   1      32.504  21.182 -20.823  0.00  0.00     0.012 A 
ATOM     13 CL   UNL d   1      32.467  22.583 -20.596  0.00  0.00    -0.082 Cl
ATOM     14  C   UNL d   1      32.659  20.544 -21.325  0.00  0.00     0.012 A 
ENDBRANCH   5   8
ENDBRANCH   4   5
ENDBRANCH   2   4
BRANCH   1  15
ATOM     15  C   UNL d   1      31.927  17.973 -24.049  0.00  0.00     0.197 A 
ATOM     16  N   UNL d   1      31.983  17.174 -23.790  0.00  0.00    -0.221 NA
ATOM     17  C   UNL d   1      31.273  16.787 -23.997  0.00  0.00     0.090 A 
ATOM     18  C   UNL d   1      31.014  16.009 -23.885  0.00  0.00     0.018 A 
ATOM     19  C   UNL d   1      30.781  17.345 -24.381  0.00  0.00     0.060 A 
ATOM     20  C   UNL d   1      30.260  15.781 -24.158  0.00  0.00     0.002 A 
ATOM     21  C   UNL d   1      31.481  15.485 -23.522  0.00  0.00     0.002 C 
ATOM     22  C   UNL d   1      29.754  16.336 -24.548  0.00  0.00     0.012 A 
ATOM     23  C   UNL d   1      30.025  17.119 -24.655  0.00  0.00     0.065 A 
ATOM     24 CL   UNL d   1      29.545  17.669 -25.032  0.00  0.00    -0.082 Cl
ATOM     25  S   UNL d   1      31.195  18.077 -24.409  0.00  0.00    -0.046 SA
ENDBRANCH   1  15
TORSDOF 4
ENDMDL
MODEL 3
REMARK VINA RESULT:      -2.6      1.468      5.223
REMARK  4 active torsions:
REMARK  status: ('A' for Active; 'I' for Inactive)
REMARK    1  A    between atoms: N_7  and  C_1 
REMARK    2  A    between atoms: S_2  and  C_8 
REMARK    3  A    between atoms: C_10  and  S_2 
REMARK       I    between atoms: C_9  and  N_7 
REMARK    4  A    between atoms: C_8  and  C_9 
ROOT
ATOM      1  N   UNL d   1      33.167  19.863 -22.084  0.00  0.00    -0.182 NA
ATOM      2  C   UNL d   1      33.052  19.528 -22.826  0.00  0.00     0.293 C 
ATOM      3  O   UNL d   1      32.743  19.976 -23.448  0.00  0.00    -0.264 OA
ENDROOT
BRANCH   2   4
ATOM      4  C   UNL d   1      33.241  18.745 -22.968  0.00  0.00     0.161 C 
BRANCH   4   5
ATOM      5  S   UNL d   1      32.675  18.251 -23.347  0.00  0.00     0.215 S 
ATOM      6  O   UNL d   1      32.965  18.491 -24.094  0.00  0.00    -0.217 OA
ATOM      7  O   UNL d   1      32.391  18.017 -22.606  0.00  0.00    -0.217 OA
BRANCH   5   8
ATOM      8  C   UNL d   1      32.117  17.764 -23.725  0.00  0.00     0.088 A 
ATOM      9  C   UNL d   1      31.822  17.973 -24.465  0.00  0.00     0.012 A 
ATOM     10  C   UNL d   1      31.272  17.491 -24.835  0.00  0.00     0.012 A 
ATOM     11  C   UNL d   1      31.016  16.801 -24.465  0.00  0.00     0.058 A 
ATOM     12  C   UNL d   1      31.305  16.589 -23.732  0.00  0.00     0.012 A 
ATOM     13 CL   UNL d   1      30.461  16.317 -24.841  0.00  0.00    -0.082 Cl
ATOM     14  C   UNL d   1      31.860  17.075 -23.360  0.00  0.00     0.012 A 
ENDBRANCH   5   8
ENDBRANCH   4   5
ENDBRANCH   2   4
BRANCH   1  15
ATOM     15  C   UNL d   1      32.981  20.621 -21.958  0.00  0.00     0.197 A 
ATOM     16  N   UNL d   1      33.169  21.260 -22.473  0.00  0.00    -0.221 NA
ATOM     17  C   UNL d   1      32.872  21.961 -22.132  0.00  0.00     0.090 A 
ATOM     18  C   UNL d   1      32.890  22.749 -22.382  0.00  0.00     0.018 A 
ATOM     19  C   UNL d   1      32.501  21.755 -21.410  0.00  0.00     0.060 A 
ATOM     20  C   UNL d   1      32.538  23.341 -21.912  0.00  0.00     0.002 A 
ATOM     21  C   UNL d   1      33.241  22.940 -23.065  0.00  0.00     0.002 C 
ATOM     22  C   UNL d   1      32.160  23.145 -21.181  0.00  0.00     0.012 A 
ATOM     23  C   UNL d   1      32.147  22.346 -20.937  0.00  0.00     0.065 A 
ATOM     24 CL   UNL d   1      31.785  22.141 -20.229  0.00  0.00    -0.082 Cl
ATOM     25  S   UNL d   1      32.574  20.922 -21.311  0.00  0.00    -0.046 SA
ENDBRANCH   1  15
TORSDOF 4
ENDMDL
MODEL 4
REMARK VINA RESULT:      -0.8      4.355      5.797
REMARK  4 active torsions:
REMARK  status: ('A' for Active; 'I' for Inactive)
REMARK    1  A    between atoms: N_7  and  C_1 
REMARK    2  A    between atoms: S_2  and  C_8 
REMARK    3  A    between atoms: C_10  and  S_2 
REMARK       I    between atoms: C_9  and  N_7 
REMARK    4  A    between atoms: C_8  and  C_9 
ROOT
ATOM      1  N   UNL d   1      31.964  22.769 -20.435  0.00  0.00    -0.182 NA
ATOM      2  C   UNL d   1      32.456  23.285 -20.025  0.00  0.00     0.293 C 
ATOM      3  O   UNL d   1      33.241  23.396 -20.260  0.00  0.00    -0.264 OA
ENDROOT
BRANCH   2   4
ATOM      4  C   UNL d   1      32.183  23.701 -19.377  0.00  0.00     0.161 C 
BRANCH   4   5
ATOM      5  S   UNL d   1      32.399  23.442 -18.606  0.00  0.00     0.215 S 
ATOM      6  O   UNL d   1      31.594  23.440 -18.380  0.00  0.00    -0.217 OA
ATOM      7  O   UNL d   1      33.195  23.446 -18.834  0.00  0.00    -0.217 OA
BRANCH   5   8
ATOM      8  C   UNL d   1      32.611  23.187 -17.843  0.00  0.00     0.088 A 
ATOM      9  C   UNL d   1      32.542  23.701 -17.204  0.00  0.00     0.012 A 
ATOM     10  C   UNL d   1      32.751  23.448 -16.453  0.00  0.00     0.012 A 
ATOM     11  C   UNL d   1      33.028  22.681 -16.341  0.00  0.00     0.058 A 
ATOM     12  C   UNL d   1      33.098  22.167 -16.971  0.00  0.00     0.012 A 
ATOM     13 CL   UNL d   1      33.238  22.428 -15.582  0.00  0.00    -0.082 Cl
ATOM     14  C   UNL d   1      32.887  22.424 -17.727  0.00  0.00     0.012 A 
ENDBRANCH   5   8
ENDBRANCH   4   5
ENDBRANCH   2   4
BRANCH   1  15
ATOM     15  C   UNL d   1      32.240  22.372 -21.061  0.00  0.00     0.197 A 
ATOM     16  N   UNL d   1      32.414  21.548 -21.078  0.00  0.00    -0.221 NA
ATOM     17  C   UNL d   1      32.690  21.360 -21.842  0.00  0.00     0.090 A 
ATOM     18  C   UNL d   1      32.941  20.648 -22.180  0.00  0.00     0.018 A 
ATOM     19  C   UNL d   1      32.686  22.064 -22.295  0.00  0.00     0.060 A 
ATOM     20  C   UNL d   1      33.191  20.631 -22.975  0.00  0.00     0.002 A 
ATOM     21  C   UNL d   1      32.943  19.984 -21.749  0.00  0.00     0.002 C 
ATOM     22  C   UNL d   1      33.191  21.337 -23.442  0.00  0.00     0.012 A 
ATOM     23  C   UNL d   1      32.936  22.051 -23.093  0.00  0.00     0.065 A 
ATOM     24 CL   UNL d   1      32.931  22.744 -23.534  0.00  0.00    -0.082 Cl
ATOM     25  S   UNL d   1      32.405  22.686 -21.802  0.00  0.00    -0.046 SA
ENDBRANCH   1  15
TORSDOF 4
ENDMDL
