MODEL 1
REMARK VINA RESULT:      58.5      0.000      0.000
REMARK  5 active torsions:
REMARK  status: ('A' for Active; 'I' for Inactive)
REMARK    1  A    between atoms: O_8  and  S_1 
REMARK    2  A    between atoms: C_9  and  S_1 
REMARK    3  A    between atoms: C_7  and  C_2 
REMARK    4  A    between atoms: C_20  and  C_7 
REMARK    5  A    between atoms: C_14  and  O_8 
ROOT
ATOM      1  C   UNL d   1     -56.810 -99.367 -44.250  0.00  0.00     0.139 A 
ATOM      2  C   UNL d   1     -55.709-100.098 -44.102  0.00  0.00     0.064 A 
ATOM      3  C   UNL d   1     -55.997 -99.384 -44.390  0.00  0.00     0.220 A 
ATOM      4  C   UNL d   1     -56.338-100.526 -43.783  0.00  0.00     0.105 A 
ATOM      5  O   UNL d   1     -57.022-100.072 -43.875  0.00  0.00    -0.304 OA
ATOM      6  C   UNL d   1     -56.203-101.261 -43.457  0.00  0.00     0.050 A 
ATOM      7  C   UNL d   1     -54.948-100.413 -44.090  0.00  0.00     0.007 A 
ATOM      8  C   UNL d   1     -55.442-101.576 -43.445  0.00  0.00     0.116 A 
ATOM      9  O   UNL d   1     -55.561 -98.786 -44.754  0.00  0.00    -0.284 OA
ATOM     10  C   UNL d   1     -54.819-101.152 -43.761  0.00  0.00     0.026 A 
ENDROOT
BRANCH   8  11
ATOM     11  O   UNL d   1     -55.311-102.318 -43.115  0.00  0.00    -0.227 OA
BRANCH  11  12
ATOM     12  S   UNL d   1     -55.390-102.428 -42.301  0.00  0.00     0.304 S 
ATOM     13  O   UNL d   1     -56.064-102.865 -42.426  0.00  0.00    -0.193 OA
ATOM     14  O   UNL d   1     -54.711-101.988 -42.162  0.00  0.00    -0.193 OA
BRANCH  12  15
ATOM     15  C   UNL d   1     -55.475-102.542 -41.479  0.00  0.00     0.111 A 
ATOM     16  C   UNL d   1     -54.806-102.520 -40.994  0.00  0.00     0.014 A 
ATOM     17  C   UNL d   1     -54.889-102.633 -40.181  0.00  0.00     0.012 A 
ATOM     18  C   UNL d   1     -55.641-102.768 -39.853  0.00  0.00     0.058 A 
ATOM     19  C   UNL d   1     -56.303-102.788 -40.351  0.00  0.00     0.012 A 
ATOM     20 CL   UNL d   1     -55.722-102.879 -39.053  0.00  0.00    -0.082 Cl
ATOM     21  C   UNL d   1     -56.217-102.675 -41.164  0.00  0.00     0.014 A 
ENDBRANCH  12  15
ENDBRANCH  11  12
ENDBRANCH   8  11
BRANCH   1  22
ATOM     22  C   UNL d   1     -57.327 -98.755 -44.448  0.00  0.00     0.029 C 
BRANCH  22  23
ATOM     23  C   UNL d   1     -58.111 -98.763 -44.181  0.00  0.00     0.021 A 
ATOM     24  C   UNL d   1     -58.259 -98.757 -43.375  0.00  0.00     0.099 A 
ATOM     25  N   UNL d   1     -59.030 -98.764 -43.098  0.00  0.00    -0.242 NA
ATOM     26  C   UNL d   1     -59.665 -98.779 -43.638  0.00  0.00     0.099 A 
ATOM     27  C   UNL d   1     -59.510 -98.786 -44.451  0.00  0.00     0.021 A 
ATOM     28  C   UNL d   1     -58.727 -98.778 -44.716  0.00  0.00     0.003 A 
ENDBRANCH  22  23
ENDBRANCH   1  22
TORSDOF 5
ENDMDL
