MODEL 1
REMARK VINA RESULT:      79.1      0.000      0.000
REMARK  4 active torsions:
REMARK  status: ('A' for Active; 'I' for Inactive)
REMARK    1  A    between atoms: C_23  and  N_1 
REMARK       I    between atoms: N_7  and  C_10 
REMARK    2  A    between atoms: C_10  and  C_25 
REMARK    3  A    between atoms: C_26  and  C_23 
REMARK    4  A    between atoms: C_25  and  C_26 
ROOT
ATOM      1  N   UNL d   1      59.766  49.687  51.260  0.00  0.00    -0.249 N 
ATOM      2  C   UNL d   1      59.399  49.684  50.523  0.00  0.00     0.268 A 
ATOM      3  C   UNL d   1      59.315  49.698  51.939  0.00  0.00     0.208 A 
ATOM      4  C   UNL d   1      58.575  49.690  50.469  0.00  0.00     0.076 A 
ATOM      5  C   UNL d   1      58.124  49.700  51.148  0.00  0.00     0.090 A 
ATOM      6  N   UNL d   1      58.506  49.704  51.868  0.00  0.00    -0.218 NA
ATOM      7  C   UNL d   1      58.203  49.686  49.729  0.00  0.00     0.033 A 
ATOM      8  C   UNL d   1      57.309  49.707  51.073  0.00  0.00     0.046 A 
ATOM      9  C   UNL d   1      57.368  49.693  49.669  0.00  0.00     0.119 A 
ATOM     10  C   UNL d   1      56.928  49.703  50.355  0.00  0.00     0.121 A 
ATOM     11  S   UNL d   1      59.704  49.701  52.672  0.00  0.00    -0.038 SA
ATOM     12  O   UNL d   1      59.845  49.673  49.851  0.00  0.00    -0.267 OA
ATOM     13  O   UNL d   1      56.846  49.692  49.034  0.00  0.00    -0.300 OA
ATOM     14  O   UNL d   1      56.133  49.708  50.114  0.00  0.00    -0.299 OA
ATOM     15  C   UNL d   1      56.076  49.701  49.303  0.00  0.00     0.304 A 
ENDROOT
BRANCH   1  16
ATOM     16  C   UNL d   1      60.601  49.681  51.321  0.00  0.00     0.085 C 
BRANCH  16  17
ATOM     17  C   UNL d   1      61.037  49.319  50.747  0.00  0.00     0.024 C 
BRANCH  17  18
ATOM     18  C   UNL d   1      61.247  48.539  50.843  0.00  0.00     0.063 C 
BRANCH  18  19
ATOM     19  C   UNL d   1      61.622  48.150  50.244  0.00  0.00     0.265 C 
ATOM     20  N   UNL d   1      61.558  47.329  50.195  0.00  0.00    -0.272 N 
ATOM     21  C   UNL d   1      61.108  46.920  50.764  0.00  0.00     0.083 A 
ATOM     22  C   UNL d   1      61.936  46.921  49.588  0.00  0.00     0.083 A 
ATOM     23  C   UNL d   1      61.040  46.097  50.719  0.00  0.00     0.018 A 
ATOM     24  C   UNL d   1      60.595  45.692  51.280  0.00  0.00     0.002 A 
ATOM     25  C   UNL d   1      61.421  45.677  50.106  0.00  0.00     0.003 A 
ATOM     26  C   UNL d   1      60.528  44.868  51.234  0.00  0.00     0.000 A 
ATOM     27  C   UNL d   1      60.907  44.450  50.625  0.00  0.00     0.000 A 
ATOM     28  C   UNL d   1      61.353  44.860  50.062  0.00  0.00     0.000 A 
ATOM     29  C   UNL d   1      61.869  46.094  49.541  0.00  0.00     0.019 A 
ATOM     30  O   UNL d   1      62.064  48.596  49.694  0.00  0.00    -0.267 OA
ENDBRANCH  18  19
ENDBRANCH  17  18
ENDBRANCH  16  17
ENDBRANCH   1  16
TORSDOF 4
ENDMDL
