MODEL 1
REMARK VINA RESULT:      74.3      0.000      0.000
REMARK  4 active torsions:
REMARK  status: ('A' for Active; 'I' for Inactive)
REMARK    1  A    between atoms: N_8  and  C_1 
REMARK    2  A    between atoms: C_12  and  C_2 
REMARK    3  A    between atoms: C_4  and  C_10 
REMARK       I    between atoms: C_10  and  N_8 
REMARK       I    between atoms: C_14  and  N_11 
REMARK    4  A    between atoms: O_22  and  C_12 
ROOT
ATOM      1  C   UNL d   1     -50.425  26.363  33.787  0.00  0.00     0.119 A 
ATOM      2  C   UNL d   1     -50.244  25.594  33.560  0.00  0.00     0.088 A 
ATOM      3  C   UNL d   1     -51.565  25.676  33.708  0.00  0.00     0.049 A 
ATOM      4  C   UNL d   1     -50.953  25.168  33.512  0.00  0.00     0.016 A 
ATOM      5  S   UNL d   1     -51.250  26.412  33.878  0.00  0.00    -0.066 SA
ATOM      6  N   UNL d   1     -52.508  24.616  33.510  0.00  0.00    -0.272 N 
ATOM      7  C   UNL d   1     -52.350  25.391  33.705  0.00  0.00     0.089 A 
ATOM      8  C   UNL d   1     -53.283  24.323  33.504  0.00  0.00     0.265 C 
ATOM      9  C   UNL d   1     -51.105  24.379  33.312  0.00  0.00     0.020 A 
ATOM     10  C   UNL d   1     -51.880  24.106  33.312  0.00  0.00     0.083 A 
ATOM     11  O   UNL d   1     -53.904  24.828  33.700  0.00  0.00    -0.267 OA
ATOM     12  C   UNL d   1     -53.442  23.546  33.308  0.00  0.00     0.066 C 
ENDROOT
BRANCH   1  13
ATOM     13  N   UNL d   1     -49.884  26.983  33.904  0.00  0.00    -0.200 NA
ATOM     14  C   UNL d   1     -49.877  27.382  34.626  0.00  0.00     0.303 C 
ATOM     15  O   UNL d   1     -50.393  27.177  35.227  0.00  0.00    -0.263 OA
BRANCH  14  16
ATOM     16  C   UNL d   1     -49.340  27.997  34.742  0.00  0.00     0.169 A 
ATOM     17  N   UNL d   1     -49.328  28.726  34.340  0.00  0.00    -0.234 NA
ATOM     18  C   UNL d   1     -48.682  29.164  34.651  0.00  0.00     0.088 A 
ATOM     19  C   UNL d   1     -48.394  29.916  34.474  0.00  0.00     0.020 A 
ATOM     20  C   UNL d   1     -48.326  28.688  35.228  0.00  0.00     0.049 A 
ATOM     21  C   UNL d   1     -47.733  30.199  34.886  0.00  0.00     0.002 A 
ATOM     22  C   UNL d   1     -47.373  29.726  35.464  0.00  0.00     0.001 A 
ATOM     23  C   UNL d   1     -47.667  28.980  35.632  0.00  0.00     0.008 A 
ATOM     24  S   UNL d   1     -48.736  27.983  35.272  0.00  0.00    -0.062 SA
ENDBRANCH  14  16
ENDBRANCH   1  13
BRANCH   2  25
ATOM     25  C   UNL d   1     -49.495  25.303  33.411  0.00  0.00     0.298 C 
ATOM     26  O   UNL d   1     -48.867  25.824  33.306  0.00  0.00    -0.259 OA
BRANCH  25  27
ATOM     27  O   UNL d   1     -49.369  24.476  33.364  0.00  0.00    -0.296 OA
ATOM     28  C   UNL d   1     -48.603  24.176  33.306  0.00  0.00     0.185 C 
ENDBRANCH  25  27
ENDBRANCH   2  25
TORSDOF 4
ENDMDL
