MODEL 1
REMARK VINA RESULT:     126.1      0.000      0.000
REMARK  4 active torsions:
REMARK  status: ('A' for Active; 'I' for Inactive)
REMARK    1  A    between atoms: N_7  and  C_1 
REMARK    2  A    between atoms: C_11  and  C_2 
REMARK    3  A    between atoms: N_6  and  C_12 
REMARK       I    between atoms: C_8  and  N_7 
REMARK    4  A    between atoms: C_14  and  C_8 
REMARK       I    between atoms: N_26  and  C_11 
ROOT
ATOM      1  N   UNL d   1      60.574  47.007  51.274  0.00  0.00    -0.201 NA
ATOM      2  C   UNL d   1      60.680  46.502  50.407  0.00  0.00     0.280 C 
ATOM      3  O   UNL d   1      60.502  46.623  49.724  0.00  0.00    -0.265 OA
ENDROOT
BRANCH   1   4
ATOM      4  C   UNL d   1      60.211  47.678  51.133  0.00  0.00     0.119 A 
ATOM      5  C   UNL d   1      60.279  48.484  51.081  0.00  0.00     0.082 A 
ATOM      6  C   UNL d   1      59.542  48.794  50.883  0.00  0.00     0.013 A 
ATOM      7  C   UNL d   1      59.281  49.565  50.757  0.00  0.00     0.001 A 
ATOM      8  C   UNL d   1      59.016  48.157  50.814  0.00  0.00     0.031 A 
ATOM      9  C   UNL d   1      58.489  49.708  50.561  0.00  0.00     0.000 A 
ATOM     10  C   UNL d   1      57.969  49.070  50.493  0.00  0.00     0.001 A 
ATOM     11  C   UNL d   1      58.227  48.303  50.617  0.00  0.00     0.006 A 
ATOM     12  C   UNL d   1      57.178  49.205  50.297  0.00  0.00     0.000 C 
ATOM     13  S   UNL d   1      59.428  47.469  50.968  0.00  0.00    -0.068 SA
BRANCH   5  14
ATOM     14  C   UNL d   1      60.973  48.914  51.207  0.00  0.00     0.281 C 
ATOM     15  O   UNL d   1      61.535  48.984  50.608  0.00  0.00    -0.265 OA
ATOM     16  N   UNL d   1      61.103  49.275  51.938  0.00  0.00    -0.205 NA
ATOM     17  C   UNL d   1      61.794  49.706  52.072  0.00  0.00     0.123 C 
ENDBRANCH   5  14
ENDBRANCH   1   4
BRANCH   2  18
ATOM     18  C   UNL d   1      61.063  45.779  50.510  0.00  0.00     0.058 A 
ATOM     19  C   UNL d   1      61.548  45.479  49.918  0.00  0.00     0.006 A 
ATOM     20  C   UNL d   1      61.927  44.762  50.021  0.00  0.00     0.018 A 
ATOM     21  C   UNL d   1      61.836  44.329  50.706  0.00  0.00     0.070 A 
ATOM     22  C   UNL d   1      61.343  44.628  51.314  0.00  0.00     0.018 A 
ATOM     23  C   UNL d   1      60.960  45.343  51.223  0.00  0.00     0.006 A 
BRANCH  21  24
ATOM     24  N   UNL d   1      62.220  43.607  50.805  0.00  0.00    -0.242 N 
ATOM     25  C   UNL d   1      62.833  43.334  50.316  0.00  0.00     0.267 A 
ATOM     26  C   UNL d   1      63.077  42.587  50.590  0.00  0.00     0.066 A 
ATOM     27  O   UNL d   1      63.157  43.744  49.647  0.00  0.00    -0.267 OA
ATOM     28  C   UNL d   1      62.613  42.410  51.245  0.00  0.00     0.066 A 
ATOM     29  C   UNL d   1      62.093  43.025  51.378  0.00  0.00     0.267 A 
ATOM     30  O   UNL d   1      61.530  43.064  51.984  0.00  0.00    -0.267 OA
ENDBRANCH  21  24
ENDBRANCH   2  18
TORSDOF 4
ENDMDL
