MODEL 1
REMARK VINA RESULT:      -2.3      0.000      0.000
REMARK  6 active torsions:
REMARK  status: ('A' for Active; 'I' for Inactive)
REMARK    1  A    between atoms: N_2  and  S_1 
REMARK    2  A    between atoms: C_6  and  S_1 
REMARK    3  A    between atoms: C_4  and  N_2 
REMARK    4  A    between atoms: C_5  and  C_3 
REMARK    5  A    between atoms: O_12  and  C_5 
REMARK    6  A    between atoms: C_18  and  O_12 
ROOT
ATOM      1  C   UNL d   1      32.579  17.189 -23.816  0.00  0.00     0.082 A 
ATOM      2  C   UNL d   1      31.877  16.794 -23.965  0.00  0.00     0.099 A 
ATOM      3  C   UNL d   1      33.239  16.769 -23.554  0.00  0.00     0.007 A 
ATOM      4  C   UNL d   1      31.835  15.979 -23.852  0.00  0.00     0.020 A 
ATOM      5  C   UNL d   1      33.193  15.956 -23.442  0.00  0.00     0.000 A 
ATOM      6  C   UNL d   1      32.491  15.561 -23.591  0.00  0.00     0.002 A 
ENDROOT
BRANCH   2   7
ATOM      7  N   UNL d   1      31.201  17.214 -24.232  0.00  0.00    -0.158 NA
BRANCH   7   8
ATOM      8  S   UNL d   1      30.462  16.859 -24.171  0.00  0.00     0.285 S 
ATOM      9  O   UNL d   1      30.389  16.849 -25.015  0.00  0.00    -0.198 OA
ATOM     10  O   UNL d   1      30.508  16.857 -23.350  0.00  0.00    -0.198 OA
BRANCH   8  11
ATOM     11  C   UNL d   1      29.707  16.499 -24.130  0.00  0.00     0.105 A 
ATOM     12  C   UNL d   1      29.515  15.895 -24.665  0.00  0.00     0.013 A 
ATOM     13  C   UNL d   1      28.771  15.539 -24.624  0.00  0.00     0.001 A 
ATOM     14  C   UNL d   1      28.239  15.796 -24.049  0.00  0.00     0.000 A 
ATOM     15  C   UNL d   1      28.423  16.394 -23.515  0.00  0.00     0.001 A 
ATOM     16  C   UNL d   1      27.489  15.453 -23.992  0.00  0.00     0.000 C 
ATOM     17  C   UNL d   1      29.167  16.750 -23.556  0.00  0.00     0.013 A 
ENDBRANCH   8  11
ENDBRANCH   7   8
ENDBRANCH   2   7
BRANCH   1  18
ATOM     18  C   UNL d   1      32.625  18.034 -23.933  0.00  0.00     0.302 C 
ATOM     19  O   UNL d   1      32.638  18.339 -24.689  0.00  0.00    -0.259 OA
BRANCH  18  20
ATOM     20  O   UNL d   1      32.656  18.551 -23.285  0.00  0.00    -0.271 OA
BRANCH  20  21
ATOM     21  C   UNL d   1      32.954  19.325 -23.390  0.00  0.00     0.126 C 
ATOM     22  C   UNL d   1      33.219  19.751 -22.747  0.00  0.00     0.029 C 
ENDBRANCH  20  21
ENDBRANCH  18  20
ENDBRANCH   1  18
TORSDOF 6
ENDMDL
MODEL 2
REMARK VINA RESULT:       0.3      3.720      5.812
REMARK  6 active torsions:
REMARK  status: ('A' for Active; 'I' for Inactive)
REMARK    1  A    between atoms: N_2  and  S_1 
REMARK    2  A    between atoms: C_6  and  S_1 
REMARK    3  A    between atoms: C_4  and  N_2 
REMARK    4  A    between atoms: C_5  and  C_3 
REMARK    5  A    between atoms: O_12  and  C_5 
REMARK    6  A    between atoms: C_18  and  O_12 
ROOT
ATOM      1  C   UNL d   1      32.725  22.742 -21.604  0.00  0.00     0.082 A 
ATOM      2  C   UNL d   1      32.995  22.059 -21.968  0.00  0.00     0.099 A 
ATOM      3  C   UNL d   1      32.691  23.449 -22.029  0.00  0.00     0.007 A 
ATOM      4  C   UNL d   1      33.231  22.084 -22.757  0.00  0.00     0.020 A 
ATOM      5  C   UNL d   1      32.928  23.468 -22.816  0.00  0.00     0.000 A 
ATOM      6  C   UNL d   1      33.198  22.786 -23.180  0.00  0.00     0.002 A 
ENDROOT
BRANCH   2   7
ATOM      7  N   UNL d   1      33.032  21.337 -21.543  0.00  0.00    -0.158 NA
BRANCH   7   8
ATOM      8  S   UNL d   1      33.051  20.629 -21.961  0.00  0.00     0.285 S 
ATOM      9  O   UNL d   1      33.146  20.197 -21.238  0.00  0.00    -0.198 OA
ATOM     10  O   UNL d   1      32.959  21.024 -22.676  0.00  0.00    -0.198 OA
BRANCH   8  11
ATOM     11  C   UNL d   1      33.072  19.898 -22.368  0.00  0.00     0.105 A 
ATOM     12  C   UNL d   1      32.953  19.885 -23.189  0.00  0.00     0.013 A 
ATOM     13  C   UNL d   1      32.974  19.164 -23.591  0.00  0.00     0.001 A 
ATOM     14  C   UNL d   1      33.113  18.474 -23.161  0.00  0.00     0.000 A 
ATOM     15  C   UNL d   1      33.232  18.479 -22.347  0.00  0.00     0.001 A 
ATOM     16  C   UNL d   1      33.138  17.742 -23.544  0.00  0.00     0.000 C 
ATOM     17  C   UNL d   1      33.211  19.200 -21.945  0.00  0.00     0.013 A 
ENDBRANCH   8  11
ENDBRANCH   7   8
ENDBRANCH   2   7
BRANCH   1  18
ATOM     18  C   UNL d   1      32.479  22.719 -20.786  0.00  0.00     0.302 C 
ATOM     19  O   UNL d   1      31.825  22.283 -20.572  0.00  0.00    -0.259 OA
BRANCH  18  20
ATOM     20  O   UNL d   1      32.900  23.136 -20.205  0.00  0.00    -0.271 OA
BRANCH  20  21
ATOM     21  C   UNL d   1      32.649  23.097 -19.409  0.00  0.00     0.126 C 
ATOM     22  C   UNL d   1      32.905  23.656 -18.873  0.00  0.00     0.029 C 
ENDBRANCH  20  21
ENDBRANCH  18  20
ENDBRANCH   1  18
TORSDOF 6
ENDMDL
MODEL 3
REMARK VINA RESULT:       0.4      1.077      3.963
REMARK  6 active torsions:
REMARK  status: ('A' for Active; 'I' for Inactive)
REMARK    1  A    between atoms: N_2  and  S_1 
REMARK    2  A    between atoms: C_6  and  S_1 
REMARK    3  A    between atoms: C_4  and  N_2 
REMARK    4  A    between atoms: C_5  and  C_3 
REMARK    5  A    between atoms: O_12  and  C_5 
REMARK    6  A    between atoms: C_18  and  O_12 
ROOT
ATOM      1  C   UNL d   1      31.166  15.982 -23.779  0.00  0.00     0.082 A 
ATOM      2  C   UNL d   1      31.733  16.566 -23.876  0.00  0.00     0.099 A 
ATOM      3  C   UNL d   1      31.225  15.453 -23.148  0.00  0.00     0.007 A 
ATOM      4  C   UNL d   1      32.359  16.619 -23.342  0.00  0.00     0.020 A 
ATOM      5  C   UNL d   1      31.851  15.510 -22.618  0.00  0.00     0.000 A 
ATOM      6  C   UNL d   1      32.418  16.093 -22.715  0.00  0.00     0.002 A 
ENDROOT
BRANCH   2   7
ATOM      7  N   UNL d   1      31.681  17.108 -24.514  0.00  0.00    -0.158 NA
BRANCH   7   8
ATOM      8  S   UNL d   1      32.005  17.859 -24.427  0.00  0.00     0.285 S 
ATOM      9  O   UNL d   1      31.465  18.026 -23.796  0.00  0.00    -0.198 OA
ATOM     10  O   UNL d   1      32.539  17.721 -25.037  0.00  0.00    -0.198 OA
BRANCH   8  11
ATOM     11  C   UNL d   1      32.322  18.626 -24.323  0.00  0.00     0.105 A 
ATOM     12  C   UNL d   1      32.796  18.955 -24.919  0.00  0.00     0.013 A 
ATOM     13  C   UNL d   1      33.108  19.713 -24.817  0.00  0.00     0.001 A 
ATOM     14  C   UNL d   1      32.938  20.122 -24.121  0.00  0.00     0.000 A 
ATOM     15  C   UNL d   1      32.469  19.802 -23.526  0.00  0.00     0.001 A 
ATOM     16  C   UNL d   1      33.241  20.881 -23.999  0.00  0.00     0.000 C 
ATOM     17  C   UNL d   1      32.156  19.044 -23.629  0.00  0.00     0.013 A 
ENDBRANCH   8  11
ENDBRANCH   7   8
ENDBRANCH   2   7
BRANCH   1  18
ATOM     18  C   UNL d   1      30.517  15.925 -24.330  0.00  0.00     0.302 C 
ATOM     19  O   UNL d   1      30.631  15.570 -25.055  0.00  0.00    -0.259 OA
BRANCH  18  20
ATOM     20  O   UNL d   1      29.768  16.226 -24.137  0.00  0.00    -0.271 OA
BRANCH  20  21
ATOM     21  C   UNL d   1      29.085  15.871 -24.464  0.00  0.00     0.126 C 
ATOM     22  C   UNL d   1      28.344  16.133 -24.245  0.00  0.00     0.029 C 
ENDBRANCH  20  21
ENDBRANCH  18  20
ENDBRANCH   1  18
TORSDOF 6
ENDMDL
MODEL 4
REMARK VINA RESULT:       0.5      2.104      4.940
REMARK  6 active torsions:
REMARK  status: ('A' for Active; 'I' for Inactive)
REMARK    1  A    between atoms: N_2  and  S_1 
REMARK    2  A    between atoms: C_6  and  S_1 
REMARK    3  A    between atoms: C_4  and  N_2 
REMARK    4  A    between atoms: C_5  and  C_3 
REMARK    5  A    between atoms: O_12  and  C_5 
REMARK    6  A    between atoms: C_18  and  O_12 
ROOT
ATOM      1  C   UNL d   1      32.602  18.122 -23.939  0.00  0.00     0.082 A 
ATOM      2  C   UNL d   1      32.861  18.775 -23.516  0.00  0.00     0.099 A 
ATOM      3  C   UNL d   1      32.387  18.205 -24.731  0.00  0.00     0.007 A 
ATOM      4  C   UNL d   1      32.904  19.510 -23.886  0.00  0.00     0.020 A 
ATOM      5  C   UNL d   1      32.431  18.940 -25.097  0.00  0.00     0.000 A 
ATOM      6  C   UNL d   1      32.690  19.593 -24.674  0.00  0.00     0.002 A 
ENDROOT
BRANCH   2   7
ATOM      7  N   UNL d   1      33.081  18.700 -22.710  0.00  0.00    -0.158 NA
BRANCH   7   8
ATOM      8  S   UNL d   1      33.116  19.375 -22.241  0.00  0.00     0.285 S 
ATOM      9  O   UNL d   1      32.990  18.906 -21.546  0.00  0.00    -0.198 OA
ATOM     10  O   UNL d   1      33.239  19.851 -22.899  0.00  0.00    -0.198 OA
BRANCH   8  11
ATOM     11  C   UNL d   1      33.147  20.049 -21.747  0.00  0.00     0.105 A 
ATOM     12  C   UNL d   1      33.143  19.951 -20.923  0.00  0.00     0.013 A 
ATOM     13  C   UNL d   1      33.174  20.616 -20.435  0.00  0.00     0.001 A 
ATOM     14  C   UNL d   1      33.209  21.363 -20.784  0.00  0.00     0.000 A 
ATOM     15  C   UNL d   1      33.214  21.468 -21.599  0.00  0.00     0.001 A 
ATOM     16  C   UNL d   1      33.241  22.041 -20.313  0.00  0.00     0.000 C 
ATOM     17  C   UNL d   1      33.183  20.802 -22.087  0.00  0.00     0.013 A 
ENDBRANCH   8  11
ENDBRANCH   7   8
ENDBRANCH   2   7
BRANCH   1  18
ATOM     18  C   UNL d   1      32.557  17.360 -23.557  0.00  0.00     0.302 C 
ATOM     19  O   UNL d   1      33.241  16.972 -23.343  0.00  0.00    -0.259 OA
BRANCH  18  20
ATOM     20  O   UNL d   1      31.822  17.007 -23.400  0.00  0.00    -0.271 OA
BRANCH  20  21
ATOM     21  C   UNL d   1      31.786  16.188 -23.234  0.00  0.00     0.126 C 
ATOM     22  C   UNL d   1      31.086  15.853 -22.985  0.00  0.00     0.029 C 
ENDBRANCH  20  21
ENDBRANCH  18  20
ENDBRANCH   1  18
TORSDOF 6
ENDMDL
MODEL 5
REMARK VINA RESULT:       0.6      6.223      7.340
REMARK  6 active torsions:
REMARK  status: ('A' for Active; 'I' for Inactive)
REMARK    1  A    between atoms: N_2  and  S_1 
REMARK    2  A    between atoms: C_6  and  S_1 
REMARK    3  A    between atoms: C_4  and  N_2 
REMARK    4  A    between atoms: C_5  and  C_3 
REMARK    5  A    between atoms: O_12  and  C_5 
REMARK    6  A    between atoms: C_18  and  O_12 
ROOT
ATOM      1  C   UNL d   1      32.853  22.324 -19.804  0.00  0.00     0.082 A 
ATOM      2  C   UNL d   1      32.747  22.420 -20.610  0.00  0.00     0.099 A 
ATOM      3  C   UNL d   1      33.048  21.581 -19.501  0.00  0.00     0.007 A 
ATOM      4  C   UNL d   1      32.834  21.774 -21.114  0.00  0.00     0.020 A 
ATOM      5  C   UNL d   1      33.135  20.939 -20.007  0.00  0.00     0.000 A 
ATOM      6  C   UNL d   1      33.028  21.035 -20.813  0.00  0.00     0.002 A 
ENDROOT
BRANCH   2   7
ATOM      7  N   UNL d   1      32.549  23.172 -20.926  0.00  0.00    -0.158 NA
BRANCH   7   8
ATOM      8  S   UNL d   1      32.534  23.270 -21.743  0.00  0.00     0.285 S 
ATOM      9  O   UNL d   1      31.807  23.701 -21.684  0.00  0.00    -0.198 OA
ATOM     10  O   UNL d   1      33.238  22.855 -21.827  0.00  0.00    -0.198 OA
BRANCH   8  11
ATOM     11  C   UNL d   1      32.500  23.381 -22.572  0.00  0.00     0.105 A 
ATOM     12  C   UNL d   1      31.778  23.583 -22.927  0.00  0.00     0.013 A 
ATOM     13  C   UNL d   1      31.745  23.692 -23.745  0.00  0.00     0.001 A 
ATOM     14  C   UNL d   1      32.435  23.596 -24.186  0.00  0.00     0.000 A 
ATOM     15  C   UNL d   1      33.154  23.396 -23.841  0.00  0.00     0.001 A 
ATOM     16  C   UNL d   1      32.423  23.701 -25.006  0.00  0.00     0.000 C 
ATOM     17  C   UNL d   1      33.187  23.287 -23.023  0.00  0.00     0.013 A 
ENDBRANCH   8  11
ENDBRANCH   7   8
ENDBRANCH   2   7
BRANCH   1  18
ATOM     18  C   UNL d   1      32.763  22.992 -19.280  0.00  0.00     0.302 C 
ATOM     19  O   UNL d   1      33.150  23.691 -19.443  0.00  0.00    -0.259 OA
BRANCH  18  20
ATOM     20  O   UNL d   1      32.284  22.940 -18.604  0.00  0.00    -0.271 OA
BRANCH  20  21
ATOM     21  C   UNL d   1      32.587  23.188 -17.865  0.00  0.00     0.126 C 
ATOM     22  C   UNL d   1      32.080  23.325 -17.241  0.00  0.00     0.029 C 
ENDBRANCH  20  21
ENDBRANCH  18  20
ENDBRANCH   1  18
TORSDOF 6
ENDMDL
