MODEL 1
REMARK VINA RESULT:      -5.8      0.000      0.000
REMARK  6 active torsions:
REMARK  status: ('A' for Active; 'I' for Inactive)
REMARK    1  A    between atoms: C_11  and  S_1 
REMARK    2  A    between atoms: C_2  and  C_5 
REMARK       I    between atoms: N_3  and  C_2 
REMARK    3  A    between atoms: C_12  and  N_3 
REMARK    4  A    between atoms: N_4  and  C_5 
REMARK       I    between atoms: C_6  and  N_4 
REMARK    5  A    between atoms: C_5  and  C_7 
REMARK    6  A    between atoms: C_7  and  C_11 
ROOT
ATOM      1  C   UNL d   1     -48.682  13.367  22.874  0.00  0.00     0.143 C 
ENDROOT
BRANCH   1   2
ATOM      2  C   UNL d   1     -47.942  13.030  22.716  0.00  0.00     0.297 C 
ATOM      3  N   UNL d   1     -47.300  13.197  23.202  0.00  0.00    -0.207 NA
ATOM      4  O   UNL d   1     -47.845  12.524  22.068  0.00  0.00    -0.264 OA
BRANCH   3   5
ATOM      5  C   UNL d   1     -46.554  12.853  23.036  0.00  0.00     0.085 A 
ATOM      6  C   UNL d   1     -46.040  13.281  22.546  0.00  0.00     0.019 A 
ATOM      7  C   UNL d   1     -45.291  12.941  22.376  0.00  0.00     0.002 A 
ATOM      8  C   UNL d   1     -44.757  13.362  21.880  0.00  0.00     0.000 C 
ATOM      9  C   UNL d   1     -45.084  12.219  22.682  0.00  0.00     0.000 A 
ATOM     10  C   UNL d   1     -45.618  11.815  23.167  0.00  0.00     0.002 A 
ATOM     11  C   UNL d   1     -46.356  12.141  23.341  0.00  0.00     0.019 A 
ENDBRANCH   3   5
ENDBRANCH   1   2
BRANCH   1  12
ATOM     12  N   UNL d   1     -48.740  14.174  23.029  0.00  0.00    -0.203 NA
ATOM     13  C   UNL d   1     -48.990  14.689  22.439  0.00  0.00     0.280 C 
ATOM     14  O   UNL d   1     -49.182  14.398  21.695  0.00  0.00    -0.265 OA
ATOM     15  C   UNL d   1     -49.049  15.496  22.594  0.00  0.00     0.068 C 
ENDBRANCH   1  12
BRANCH   1  16
ATOM     16  C   UNL d   1     -49.357  12.897  22.876  0.00  0.00     0.036 C 
BRANCH  16  17
ATOM     17  C   UNL d   1     -49.643  12.595  23.585  0.00  0.00     0.096 C 
BRANCH  17  18
ATOM     18  S   UNL d   1     -50.353  12.181  23.596  0.00  0.00     0.192 S 
ATOM     19  O   UNL d   1     -50.939  11.590  23.633  0.00  0.00    -0.222 OA
ATOM     20  O   UNL d   1     -49.771  11.597  23.691  0.00  0.00    -0.222 OA
ATOM     21  C   UNL d   1     -51.064  12.585  23.515  0.00  0.00     0.145 C 
ENDBRANCH  17  18
ENDBRANCH  16  17
ENDBRANCH   1  16
TORSDOF 6
ENDMDL
MODEL 2
REMARK VINA RESULT:      -5.8      1.722      4.123
REMARK  6 active torsions:
REMARK  status: ('A' for Active; 'I' for Inactive)
REMARK    1  A    between atoms: C_11  and  S_1 
REMARK    2  A    between atoms: C_2  and  C_5 
REMARK       I    between atoms: N_3  and  C_2 
REMARK    3  A    between atoms: C_12  and  N_3 
REMARK    4  A    between atoms: N_4  and  C_5 
REMARK       I    between atoms: C_6  and  N_4 
REMARK    5  A    between atoms: C_5  and  C_7 
REMARK    6  A    between atoms: C_7  and  C_11 
ROOT
ATOM      1  C   UNL d   1     -47.772  12.561  22.980  0.00  0.00     0.143 C 
ENDROOT
BRANCH   1   2
ATOM      2  C   UNL d   1     -48.166  13.242  22.718  0.00  0.00     0.297 C 
ATOM      3  N   UNL d   1     -48.587  13.706  23.251  0.00  0.00    -0.207 NA
ATOM      4  O   UNL d   1     -48.137  13.457  21.919  0.00  0.00    -0.264 OA
BRANCH   3   5
ATOM      5  C   UNL d   1     -48.983  14.392  22.978  0.00  0.00     0.085 A 
ATOM      6  C   UNL d   1     -49.794  14.449  23.136  0.00  0.00     0.019 A 
ATOM      7  C   UNL d   1     -50.196  15.135  22.865  0.00  0.00     0.002 A 
ATOM      8  C   UNL d   1     -51.021  15.209  23.017  0.00  0.00     0.000 C 
ATOM      9  C   UNL d   1     -49.799  15.718  22.464  0.00  0.00     0.000 A 
ATOM     10  C   UNL d   1     -48.989  15.632  22.321  0.00  0.00     0.002 A 
ATOM     11  C   UNL d   1     -48.585  14.962  22.583  0.00  0.00     0.019 A 
ENDBRANCH   3   5
ENDBRANCH   1   2
BRANCH   1  12
ATOM     12  N   UNL d   1     -48.153  12.037  23.489  0.00  0.00    -0.203 NA
ATOM     13  C   UNL d   1     -48.513  11.362  23.189  0.00  0.00     0.280 C 
ATOM     14  O   UNL d   1     -48.492  11.209  22.382  0.00  0.00    -0.265 OA
ATOM     15  C   UNL d   1     -48.895  10.838  23.698  0.00  0.00     0.068 C 
ENDBRANCH   1  12
BRANCH   1  16
ATOM     16  C   UNL d   1     -47.002  12.409  22.733  0.00  0.00     0.036 C 
BRANCH  16  17
ATOM     17  C   UNL d   1     -46.371  12.582  23.230  0.00  0.00     0.096 C 
BRANCH  17  18
ATOM     18  S   UNL d   1     -45.601  12.466  22.968  0.00  0.00     0.192 S 
ATOM     19  O   UNL d   1     -44.807  12.228  22.885  0.00  0.00    -0.222 OA
ATOM     20  O   UNL d   1     -45.647  12.035  23.675  0.00  0.00    -0.222 OA
ATOM     21  C   UNL d   1     -45.349  12.818  22.268  0.00  0.00     0.145 C 
ENDBRANCH  17  18
ENDBRANCH  16  17
ENDBRANCH   1  16
TORSDOF 6
ENDMDL
MODEL 3
REMARK VINA RESULT:      -5.7      1.955      3.927
REMARK  6 active torsions:
REMARK  status: ('A' for Active; 'I' for Inactive)
REMARK    1  A    between atoms: C_11  and  S_1 
REMARK    2  A    between atoms: C_2  and  C_5 
REMARK       I    between atoms: N_3  and  C_2 
REMARK    3  A    between atoms: C_12  and  N_3 
REMARK    4  A    between atoms: N_4  and  C_5 
REMARK       I    between atoms: C_6  and  N_4 
REMARK    5  A    between atoms: C_5  and  C_7 
REMARK    6  A    between atoms: C_7  and  C_11 
ROOT
ATOM      1  C   UNL d   1     -46.786  12.826  22.940  0.00  0.00     0.143 C 
ENDROOT
BRANCH   1   2
ATOM      2  C   UNL d   1     -47.610  12.756  22.984  0.00  0.00     0.297 C 
ATOM      3  N   UNL d   1     -48.040  12.512  22.326  0.00  0.00    -0.207 NA
ATOM      4  O   UNL d   1     -48.005  12.930  23.691  0.00  0.00    -0.264 OA
BRANCH   3   5
ATOM      5  C   UNL d   1     -48.874  12.443  22.379  0.00  0.00     0.085 A 
ATOM      6  C   UNL d   1     -49.324  13.069  22.077  0.00  0.00     0.019 A 
ATOM      7  C   UNL d   1     -50.161  13.005  22.127  0.00  0.00     0.002 A 
ATOM      8  C   UNL d   1     -50.635  13.632  21.825  0.00  0.00     0.000 C 
ATOM      9  C   UNL d   1     -50.509  12.353  22.460  0.00  0.00     0.000 A 
ATOM     10  C   UNL d   1     -50.031  11.744  22.752  0.00  0.00     0.002 A 
ATOM     11  C   UNL d   1     -49.209  11.797  22.708  0.00  0.00     0.019 A 
ENDBRANCH   3   5
ENDBRANCH   1   2
BRANCH   1  12
ATOM     12  N   UNL d   1     -46.450  13.421  22.478  0.00  0.00    -0.203 NA
ATOM     13  C   UNL d   1     -46.207  14.124  22.828  0.00  0.00     0.280 C 
ATOM     14  O   UNL d   1     -46.299  14.234  23.636  0.00  0.00    -0.265 OA
ATOM     15  C   UNL d   1     -45.871  14.718  22.367  0.00  0.00     0.068 C 
ENDBRANCH   1  12
BRANCH   1  16
ATOM     16  C   UNL d   1     -46.304  12.305  23.355  0.00  0.00     0.036 C 
BRANCH  16  17
ATOM     17  C   UNL d   1     -45.808  11.792  22.946  0.00  0.00     0.096 C 
BRANCH  17  18
ATOM     18  S   UNL d   1     -45.427  11.185  23.347  0.00  0.00     0.192 S 
ATOM     19  O   UNL d   1     -44.863  10.682  23.697  0.00  0.00    -0.222 OA
ATOM     20  O   UNL d   1     -44.813  11.676  23.084  0.00  0.00    -0.222 OA
ATOM     21  C   UNL d   1     -45.868  10.582  23.691  0.00  0.00     0.145 C 
ENDBRANCH  17  18
ENDBRANCH  16  17
ENDBRANCH   1  16
TORSDOF 6
ENDMDL
MODEL 4
REMARK VINA RESULT:      -5.6      1.583      3.722
REMARK  6 active torsions:
REMARK  status: ('A' for Active; 'I' for Inactive)
REMARK    1  A    between atoms: C_11  and  S_1 
REMARK    2  A    between atoms: C_2  and  C_5 
REMARK       I    between atoms: N_3  and  C_2 
REMARK    3  A    between atoms: C_12  and  N_3 
REMARK    4  A    between atoms: N_4  and  C_5 
REMARK       I    between atoms: C_6  and  N_4 
REMARK    5  A    between atoms: C_5  and  C_7 
REMARK    6  A    between atoms: C_7  and  C_11 
ROOT
ATOM      1  C   UNL d   1     -47.143  13.150  22.743  0.00  0.00     0.143 C 
ENDROOT
BRANCH   1   2
ATOM      2  C   UNL d   1     -47.747  13.709  22.842  0.00  0.00     0.297 C 
ATOM      3  N   UNL d   1     -48.262  13.875  22.222  0.00  0.00    -0.207 NA
ATOM      4  O   UNL d   1     -47.834  14.102  23.566  0.00  0.00    -0.264 OA
BRANCH   3   5
ATOM      5  C   UNL d   1     -48.869  14.442  22.331  0.00  0.00     0.085 A 
ATOM      6  C   UNL d   1     -49.646  14.196  22.180  0.00  0.00     0.019 A 
ATOM      7  C   UNL d   1     -50.260  14.761  22.287  0.00  0.00     0.002 A 
ATOM      8  C   UNL d   1     -51.055  14.528  22.138  0.00  0.00     0.000 C 
ATOM      9  C   UNL d   1     -50.092  15.516  22.528  0.00  0.00     0.000 A 
ATOM     10  C   UNL d   1     -49.306  15.731  22.671  0.00  0.00     0.002 A 
ATOM     11  C   UNL d   1     -48.696  15.185  22.569  0.00  0.00     0.019 A 
ENDBRANCH   3   5
ENDBRANCH   1   2
BRANCH   1  12
ATOM     12  N   UNL d   1     -46.555  13.278  22.181  0.00  0.00    -0.203 NA
ATOM     13  C   UNL d   1     -45.810  13.535  22.417  0.00  0.00     0.280 C 
ATOM     14  O   UNL d   1     -45.654  13.665  23.213  0.00  0.00    -0.265 OA
ATOM     15  C   UNL d   1     -45.221  13.663  21.855  0.00  0.00     0.068 C 
ENDBRANCH   1  12
BRANCH   1  16
ATOM     16  C   UNL d   1     -47.132  12.469  23.204  0.00  0.00     0.036 C 
BRANCH  16  17
ATOM     17  C   UNL d   1     -47.579  11.816  22.982  0.00  0.00     0.096 C 
BRANCH  17  18
ATOM     18  S   UNL d   1     -47.472  11.097  23.365  0.00  0.00     0.192 S 
ATOM     19  O   UNL d   1     -47.573  10.340  23.697  0.00  0.00    -0.222 OA
ATOM     20  O   UNL d   1     -48.261  11.080  23.109  0.00  0.00    -0.222 OA
ATOM     21  C   UNL d   1     -46.742  10.915  23.698  0.00  0.00     0.145 C 
ENDBRANCH  17  18
ENDBRANCH  16  17
ENDBRANCH   1  16
TORSDOF 6
ENDMDL
MODEL 5
REMARK VINA RESULT:      -4.7      1.403      2.371
REMARK  6 active torsions:
REMARK  status: ('A' for Active; 'I' for Inactive)
REMARK    1  A    between atoms: C_11  and  S_1 
REMARK    2  A    between atoms: C_2  and  C_5 
REMARK       I    between atoms: N_3  and  C_2 
REMARK    3  A    between atoms: C_12  and  N_3 
REMARK    4  A    between atoms: N_4  and  C_5 
REMARK       I    between atoms: C_6  and  N_4 
REMARK    5  A    between atoms: C_5  and  C_7 
REMARK    6  A    between atoms: C_7  and  C_11 
ROOT
ATOM      1  C   UNL d   1     -48.407  13.101  22.604  0.00  0.00     0.143 C 
ENDROOT
BRANCH   1   2
ATOM      2  C   UNL d   1     -47.604  12.905  22.543  0.00  0.00     0.297 C 
ATOM      3  N   UNL d   1     -47.250  12.433  23.117  0.00  0.00    -0.207 NA
ATOM      4  O   UNL d   1     -47.156  13.182  21.905  0.00  0.00    -0.264 OA
BRANCH   3   5
ATOM      5  C   UNL d   1     -46.437  12.239  23.049  0.00  0.00     0.085 A 
ATOM      6  C   UNL d   1     -46.187  11.530  23.396  0.00  0.00     0.019 A 
ATOM      7  C   UNL d   1     -45.374  11.330  23.331  0.00  0.00     0.002 A 
ATOM      8  C   UNL d   1     -45.102  10.613  23.678  0.00  0.00     0.000 C 
ATOM      9  C   UNL d   1     -44.856  11.818  22.940  0.00  0.00     0.000 A 
ATOM     10  C   UNL d   1     -45.136  12.520  22.603  0.00  0.00     0.002 A 
ATOM     11  C   UNL d   1     -45.933  12.725  22.662  0.00  0.00     0.019 A 
ENDBRANCH   3   5
ENDBRANCH   1   2
BRANCH   1  12
ATOM     12  N   UNL d   1     -48.948  12.536  22.862  0.00  0.00    -0.203 NA
ATOM     13  C   UNL d   1     -49.457  12.179  22.323  0.00  0.00     0.280 C 
ATOM     14  O   UNL d   1     -49.425  12.385  21.529  0.00  0.00    -0.265 OA
ATOM     15  C   UNL d   1     -49.998  11.613  22.580  0.00  0.00     0.068 C 
ENDBRANCH   1  12
BRANCH   1  16
ATOM     16  C   UNL d   1     -48.663  13.858  22.408  0.00  0.00     0.036 C 
BRANCH  16  17
ATOM     17  C   UNL d   1     -48.743  14.427  22.996  0.00  0.00     0.096 C 
BRANCH  17  18
ATOM     18  S   UNL d   1     -49.055  15.164  22.810  0.00  0.00     0.192 S 
ATOM     19  O   UNL d   1     -49.483  15.879  22.807  0.00  0.00    -0.222 OA
ATOM     20  O   UNL d   1     -49.432  14.952  23.517  0.00  0.00    -0.222 OA
ATOM     21  C   UNL d   1     -48.805  15.555  22.130  0.00  0.00     0.145 C 
ENDBRANCH  17  18
ENDBRANCH  16  17
ENDBRANCH   1  16
TORSDOF 6
ENDMDL
MODEL 6
REMARK VINA RESULT:      -4.6      8.232      9.957
REMARK  6 active torsions:
REMARK  status: ('A' for Active; 'I' for Inactive)
REMARK    1  A    between atoms: C_11  and  S_1 
REMARK    2  A    between atoms: C_2  and  C_5 
REMARK       I    between atoms: N_3  and  C_2 
REMARK    3  A    between atoms: C_12  and  N_3 
REMARK    4  A    between atoms: N_4  and  C_5 
REMARK       I    between atoms: C_6  and  N_4 
REMARK    5  A    between atoms: C_5  and  C_7 
REMARK    6  A    between atoms: C_7  and  C_11 
ROOT
ATOM      1  C   UNL d   1     -39.283  14.437  19.840  0.00  0.00     0.143 C 
ENDROOT
BRANCH   1   2
ATOM      2  C   UNL d   1     -39.130  14.628  19.048  0.00  0.00     0.297 C 
ATOM      3  N   UNL d   1     -39.392  14.132  18.446  0.00  0.00    -0.207 NA
ATOM      4  O   UNL d   1     -38.713  15.318  18.860  0.00  0.00    -0.264 OA
BRANCH   3   5
ATOM      5  C   UNL d   1     -39.233  14.331  17.647  0.00  0.00     0.085 A 
ATOM      6  C   UNL d   1     -38.671  13.872  17.248  0.00  0.00     0.019 A 
ATOM      7  C   UNL d   1     -38.508  14.068  16.447  0.00  0.00     0.002 A 
ATOM      8  C   UNL d   1     -37.940  13.612  16.025  0.00  0.00     0.000 C 
ATOM      9  C   UNL d   1     -38.890  14.684  16.083  0.00  0.00     0.000 A 
ATOM     10  C   UNL d   1     -39.446  15.124  16.509  0.00  0.00     0.002 A 
ATOM     11  C   UNL d   1     -39.613  14.940  17.296  0.00  0.00     0.019 A 
ENDBRANCH   3   5
ENDBRANCH   1   2
BRANCH   1  12
ATOM     12  N   UNL d   1     -38.951  13.759  20.169  0.00  0.00    -0.203 NA
ATOM     13  C   UNL d   1     -38.294  13.819  20.660  0.00  0.00     0.280 C 
ATOM     14  O   UNL d   1     -37.969  14.556  20.821  0.00  0.00    -0.265 OA
ATOM     15  C   UNL d   1     -37.962  13.141  20.989  0.00  0.00     0.068 C 
ENDBRANCH   1  12
BRANCH   1  16
ATOM     16  C   UNL d   1     -39.764  14.924  20.296  0.00  0.00     0.036 C 
BRANCH  16  17
ATOM     17  C   UNL d   1     -40.543  14.706  20.444  0.00  0.00     0.096 C 
BRANCH  17  18
ATOM     18  S   UNL d   1     -41.036  15.213  20.863  0.00  0.00     0.192 S 
ATOM     19  O   UNL d   1     -41.684  15.570  21.245  0.00  0.00    -0.222 OA
ATOM     20  O   UNL d   1     -41.523  14.575  20.653  0.00  0.00    -0.222 OA
ATOM     21  C   UNL d   1     -40.738  15.918  21.164  0.00  0.00     0.145 C 
ENDBRANCH  17  18
ENDBRANCH  16  17
ENDBRANCH   1  16
TORSDOF 6
ENDMDL
MODEL 7
REMARK VINA RESULT:      -4.5      7.171      9.383
REMARK  6 active torsions:
REMARK  status: ('A' for Active; 'I' for Inactive)
REMARK    1  A    between atoms: C_11  and  S_1 
REMARK    2  A    between atoms: C_2  and  C_5 
REMARK       I    between atoms: N_3  and  C_2 
REMARK    3  A    between atoms: C_12  and  N_3 
REMARK    4  A    between atoms: N_4  and  C_5 
REMARK       I    between atoms: C_6  and  N_4 
REMARK    5  A    between atoms: C_5  and  C_7 
REMARK    6  A    between atoms: C_7  and  C_11 
ROOT
ATOM      1  C   UNL d   1     -40.183  14.462  20.416  0.00  0.00     0.143 C 
ENDROOT
BRANCH   1   2
ATOM      2  C   UNL d   1     -40.057  14.770  19.657  0.00  0.00     0.297 C 
ATOM      3  N   UNL d   1     -40.159  14.292  18.995  0.00  0.00    -0.207 NA
ATOM      4  O   UNL d   1     -39.829  15.560  19.562  0.00  0.00    -0.264 OA
BRANCH   3   5
ATOM      5  C   UNL d   1     -40.030  14.611  18.231  0.00  0.00     0.085 A 
ATOM      6  C   UNL d   1     -40.693  14.895  17.823  0.00  0.00     0.019 A 
ATOM      7  C   UNL d   1     -40.569  15.216  17.056  0.00  0.00     0.002 A 
ATOM      8  C   UNL d   1     -41.232  15.509  16.628  0.00  0.00     0.000 C 
ATOM      9  C   UNL d   1     -39.826  15.245  16.732  0.00  0.00     0.000 A 
ATOM     10  C   UNL d   1     -39.184  14.953  17.165  0.00  0.00     0.002 A 
ATOM     11  C   UNL d   1     -39.295  14.636  17.918  0.00  0.00     0.019 A 
ENDBRANCH   3   5
ENDBRANCH   1   2
BRANCH   1  12
ATOM     12  N   UNL d   1     -40.877  14.049  20.580  0.00  0.00    -0.203 NA
ATOM     13  C   UNL d   1     -41.509  14.434  20.938  0.00  0.00     0.280 C 
ATOM     14  O   UNL d   1     -41.449  15.231  21.130  0.00  0.00    -0.265 OA
ATOM     15  C   UNL d   1     -42.203  14.022  21.102  0.00  0.00     0.068 C 
ENDBRANCH   1  12
BRANCH   1  16
ATOM     16  C   UNL d   1     -39.617  14.567  21.003  0.00  0.00     0.036 C 
BRANCH  16  17
ATOM     17  C   UNL d   1     -39.150  13.933  21.240  0.00  0.00     0.096 C 
BRANCH  17  18
ATOM     18  S   UNL d   1     -38.570  14.044  21.811  0.00  0.00     0.192 S 
ATOM     19  O   UNL d   1     -37.941  13.945  22.348  0.00  0.00    -0.222 OA
ATOM     20  O   UNL d   1     -38.488  13.251  21.584  0.00  0.00    -0.222 OA
ATOM     21  C   UNL d   1     -38.484  14.779  22.170  0.00  0.00     0.145 C 
ENDBRANCH  17  18
ENDBRANCH  16  17
ENDBRANCH   1  16
TORSDOF 6
ENDMDL
MODEL 8
REMARK VINA RESULT:      -4.4      1.353      1.789
REMARK  6 active torsions:
REMARK  status: ('A' for Active; 'I' for Inactive)
REMARK    1  A    between atoms: C_11  and  S_1 
REMARK    2  A    between atoms: C_2  and  C_5 
REMARK       I    between atoms: N_3  and  C_2 
REMARK    3  A    between atoms: C_12  and  N_3 
REMARK    4  A    between atoms: N_4  and  C_5 
REMARK       I    between atoms: C_6  and  N_4 
REMARK    5  A    between atoms: C_5  and  C_7 
REMARK    6  A    between atoms: C_7  and  C_11 
ROOT
ATOM      1  C   UNL d   1     -47.133  13.068  22.746  0.00  0.00     0.143 C 
ENDROOT
BRANCH   1   2
ATOM      2  C   UNL d   1     -46.326  12.880  22.779  0.00  0.00     0.297 C 
ATOM      3  N   UNL d   1     -45.925  12.659  22.096  0.00  0.00    -0.207 NA
ATOM      4  O   UNL d   1     -45.922  12.914  23.501  0.00  0.00    -0.264 OA
BRANCH   3   5
ATOM      5  C   UNL d   1     -45.110  12.470  22.138  0.00  0.00     0.085 A 
ATOM      6  C   UNL d   1     -44.597  12.898  21.647  0.00  0.00     0.019 A 
ATOM      7  C   UNL d   1     -43.778  12.713  21.685  0.00  0.00     0.002 A 
ATOM      8  C   UNL d   1     -43.243  13.137  21.193  0.00  0.00     0.000 C 
ATOM      9  C   UNL d   1     -43.505  12.136  22.186  0.00  0.00     0.000 A 
ATOM     10  C   UNL d   1     -44.042  11.727  22.664  0.00  0.00     0.002 A 
ATOM     11  C   UNL d   1     -44.848  11.901  22.634  0.00  0.00     0.019 A 
ENDBRANCH   3   5
ENDBRANCH   1   2
BRANCH   1  12
ATOM     12  N   UNL d   1     -47.385  13.711  22.296  0.00  0.00    -0.203 NA
ATOM     13  C   UNL d   1     -47.509  14.440  22.655  0.00  0.00     0.280 C 
ATOM     14  O   UNL d   1     -47.380  14.528  23.461  0.00  0.00    -0.265 OA
ATOM     15  C   UNL d   1     -47.761  15.083  22.205  0.00  0.00     0.068 C 
ENDBRANCH   1  12
BRANCH   1  16
ATOM     16  C   UNL d   1     -47.680  12.615  23.160  0.00  0.00     0.036 C 
BRANCH  16  17
ATOM     17  C   UNL d   1     -48.165  12.089  22.756  0.00  0.00     0.096 C 
BRANCH  17  18
ATOM     18  S   UNL d   1     -48.729  11.654  23.167  0.00  0.00     0.192 S 
ATOM     19  O   UNL d   1     -49.212  11.048  23.470  0.00  0.00    -0.222 OA
ATOM     20  O   UNL d   1     -48.335  11.094  22.699  0.00  0.00    -0.222 OA
ATOM     21  C   UNL d   1     -49.233  12.033  23.695  0.00  0.00     0.145 C 
ENDBRANCH  17  18
ENDBRANCH  16  17
ENDBRANCH   1  16
TORSDOF 6
ENDMDL
