MODEL 1
REMARK VINA RESULT:      22.2      0.000      0.000
REMARK  2 active torsions:
REMARK  status: ('A' for Active; 'I' for Inactive)
REMARK       I    between atoms: N_2  and  C_1 
REMARK    1  A    between atoms: C_6  and  C_1 
REMARK    2  A    between atoms: C_4  and  N_2 
ROOT
ATOM      1  C   UNL d   1     -57.175 -99.092 -44.425  0.00  0.00     0.279 C 
ATOM      2  N   UNL d   1     -56.486 -99.344 -44.053  0.00  0.00    -0.204 NA
ATOM      3  O   UNL d   1     -57.167 -98.922 -45.239  0.00  0.00    -0.265 OA
ENDROOT
BRANCH   1   4
ATOM      4  C   UNL d   1     -57.874 -99.008 -43.996  0.00  0.00     0.058 A 
ATOM      5  C   UNL d   1     -57.853 -98.862 -43.197  0.00  0.00     0.006 A 
ATOM      6  C   UNL d   1     -58.553 -98.777 -42.768  0.00  0.00     0.012 A 
ATOM      7  C   UNL d   1     -59.281 -98.838 -43.132  0.00  0.00     0.058 A 
ATOM      8  C   UNL d   1     -59.311 -98.990 -43.962  0.00  0.00     0.012 A 
ATOM      9 CL   UNL d   1     -59.961 -98.755 -42.714  0.00  0.00    -0.082 Cl
ATOM     10  C   UNL d   1     -58.612 -99.074 -44.391  0.00  0.00     0.006 A 
ENDBRANCH   1   4
BRANCH   2  11
ATOM     11  C   UNL d   1     -55.786 -99.427 -44.494  0.00  0.00     0.130 A 
ATOM     12  C   UNL d   1     -55.364-100.116 -44.621  0.00  0.00     0.243 A 
ATOM     13  S   UNL d   1     -54.711 -99.935 -45.089  0.00  0.00    -0.044 SA
ATOM     14  O   UNL d   1     -55.565-100.867 -44.326  0.00  0.00    -0.278 OA
ATOM     15  C   UNL d   1     -54.731 -99.122 -45.252  0.00  0.00     0.040 A 
ATOM     16  C   UNL d   1     -55.396 -98.805 -44.885  0.00  0.00     0.030 A 
ENDBRANCH   2  11
TORSDOF 2
ENDMDL
