MODEL 1
REMARK VINA RESULT:      -8.8      0.000      0.000
REMARK  6 active torsions:
REMARK  status: ('A' for Active; 'I' for Inactive)
REMARK    1  A    between atoms: C_5  and  C_1 
REMARK       I    between atoms: N_10  and  C_5 
REMARK    2  A    between atoms: C_9  and  C_6 
REMARK    3  A    between atoms: C_17  and  N_7 
REMARK    4  A    between atoms: O_23  and  C_8 
REMARK    5  A    between atoms: O_25  and  C_12 
REMARK    6  A    between atoms: C_18  and  C_17 
ROOT
ATOM      1  C   UNL d   1      50.276  34.420  52.549  0.00  0.00     0.316 C 
ATOM      2  N   UNL d   1      48.498  35.521  52.570  0.00  0.00    -0.143 NA
ATOM      3  N   UNL d   1      49.513  35.131  53.114  0.00  0.00    -0.104 NA
ATOM      4  O   UNL d   1      50.120  34.187  51.781  0.00  0.00    -0.262 OA
ENDROOT
BRANCH   1   5
ATOM      5  C   UNL d   1      50.957  34.166  52.933  0.00  0.00     0.164 A 
ATOM      6  C   UNL d   1      51.612  34.646  52.970  0.00  0.00     0.047 A 
ATOM      7  C   UNL d   1      52.305  33.646  53.699  0.00  0.00     0.105 A 
ATOM      8  N   UNL d   1      51.640  33.163  53.659  0.00  0.00    -0.148 NA
ATOM      9  N   UNL d   1      50.972  33.417  53.281  0.00  0.00    -0.143 NA
BRANCH   7  10
ATOM     10  C   UNL d   1      53.054  33.575  54.026  0.00  0.00     0.019 A 
ATOM     11  C   UNL d   1      53.595  33.061  53.711  0.00  0.00     0.002 A 
ATOM     12  C   UNL d   1      54.341  32.988  54.034  0.00  0.00     0.011 A 
ATOM     13  C   UNL d   1      54.539  33.443  54.685  0.00  0.00     0.058 A 
ATOM     14  C   UNL d   1      54.002  33.961  55.008  0.00  0.00     0.011 A 
ATOM     15 CL   UNL d   1      55.289  33.374  55.016  0.00  0.00    -0.082 Cl
ATOM     16  C   UNL d   1      53.253  34.033  54.681  0.00  0.00     0.002 A 
ENDBRANCH   7  10
ENDBRANCH   1   5
BRANCH   2  17
ATOM     17  C   UNL d   1      47.957  36.027  52.974  0.00  0.00     0.122 C 
BRANCH  17  18
ATOM     18  C   UNL d   1      47.103  36.072  52.726  0.00  0.00     0.023 A 
ATOM     19  C   UNL d   1      46.458  36.054  53.351  0.00  0.00     0.028 A 
ATOM     20  C   UNL d   1      45.596  36.099  53.095  0.00  0.00     0.116 A 
ATOM     21  C   UNL d   1      45.381  36.162  52.224  0.00  0.00     0.116 A 
ATOM     22  C   UNL d   1      46.027  36.178  51.613  0.00  0.00     0.026 A 
ATOM     23  C   UNL d   1      46.896  36.134  51.860  0.00  0.00     0.004 A 
BRANCH  20  24
ATOM     24  O   UNL d   1      44.951  36.081  53.720  0.00  0.00    -0.326 OA
ATOM     25  C   UNL d   1      45.117  35.729  54.520  0.00  0.00     0.181 C 
ENDBRANCH  20  24
BRANCH  21  26
ATOM     26  O   UNL d   1      44.521  36.206  51.983  0.00  0.00    -0.326 OA
ATOM     27  C   UNL d   1      44.314  36.264  51.117  0.00  0.00     0.181 C 
ENDBRANCH  21  26
ENDBRANCH  17  18
ENDBRANCH   2  17
TORSDOF 6
ENDMDL
MODEL 2
REMARK VINA RESULT:      -8.5      0.478      1.306
REMARK  6 active torsions:
REMARK  status: ('A' for Active; 'I' for Inactive)
REMARK    1  A    between atoms: C_5  and  C_1 
REMARK       I    between atoms: N_10  and  C_5 
REMARK    2  A    between atoms: C_9  and  C_6 
REMARK    3  A    between atoms: C_17  and  N_7 
REMARK    4  A    between atoms: O_23  and  C_8 
REMARK    5  A    between atoms: O_25  and  C_12 
REMARK    6  A    between atoms: C_18  and  C_17 
ROOT
ATOM      1  C   UNL d   1      50.210  34.397  52.687  0.00  0.00     0.316 C 
ATOM      2  N   UNL d   1      48.528  35.636  52.767  0.00  0.00    -0.143 NA
ATOM      3  N   UNL d   1      49.571  35.228  53.241  0.00  0.00    -0.104 NA
ATOM      4  O   UNL d   1      49.948  34.092  51.975  0.00  0.00    -0.262 OA
ENDROOT
BRANCH   1   5
ATOM      5  C   UNL d   1      50.912  34.132  53.022  0.00  0.00     0.164 A 
ATOM      6  C   UNL d   1      51.548  34.633  53.097  0.00  0.00     0.047 A 
ATOM      7  C   UNL d   1      52.303  33.590  53.691  0.00  0.00     0.105 A 
ATOM      8  N   UNL d   1      51.658  33.085  53.613  0.00  0.00    -0.148 NA
ATOM      9  N   UNL d   1      50.968  33.351  53.283  0.00  0.00    -0.143 NA
BRANCH   7  10
ATOM     10  C   UNL d   1      53.064  33.516  53.988  0.00  0.00     0.019 A 
ATOM     11  C   UNL d   1      53.593  33.007  53.647  0.00  0.00     0.002 A 
ATOM     12  C   UNL d   1      54.351  32.931  53.940  0.00  0.00     0.011 A 
ATOM     13  C   UNL d   1      54.573  33.378  54.589  0.00  0.00     0.058 A 
ATOM     14  C   UNL d   1      54.048  33.893  54.937  0.00  0.00     0.011 A 
ATOM     15 CL   UNL d   1      55.335  33.307  54.890  0.00  0.00    -0.082 Cl
ATOM     16  C   UNL d   1      53.287  33.967  54.640  0.00  0.00     0.002 A 
ENDBRANCH   7  10
ENDBRANCH   1   5
BRANCH   2  17
ATOM     17  C   UNL d   1      48.075  36.228  53.164  0.00  0.00     0.122 C 
BRANCH  17  18
ATOM     18  C   UNL d   1      47.208  36.105  53.325  0.00  0.00     0.023 A 
ATOM     19  C   UNL d   1      46.637  36.017  52.636  0.00  0.00     0.028 A 
ATOM     20  C   UNL d   1      45.761  35.892  52.802  0.00  0.00     0.116 A 
ATOM     21  C   UNL d   1      45.458  35.856  53.648  0.00  0.00     0.116 A 
ATOM     22  C   UNL d   1      46.031  35.945  54.323  0.00  0.00     0.026 A 
ATOM     23  C   UNL d   1      46.913  36.070  54.166  0.00  0.00     0.004 A 
BRANCH  20  24
ATOM     24  O   UNL d   1      45.191  35.804  52.113  0.00  0.00    -0.326 OA
ATOM     25  C   UNL d   1      45.486  35.898  51.279  0.00  0.00     0.181 C 
ENDBRANCH  20  24
BRANCH  21  26
ATOM     26  O   UNL d   1      44.586  35.733  53.800  0.00  0.00    -0.326 OA
ATOM     27  C   UNL d   1      44.315  35.504  54.619  0.00  0.00     0.181 C 
ENDBRANCH  21  26
ENDBRANCH  17  18
ENDBRANCH   2  17
TORSDOF 6
ENDMDL
MODEL 3
REMARK VINA RESULT:      -8.0      1.560      1.824
REMARK  6 active torsions:
REMARK  status: ('A' for Active; 'I' for Inactive)
REMARK    1  A    between atoms: C_5  and  C_1 
REMARK       I    between atoms: N_10  and  C_5 
REMARK    2  A    between atoms: C_9  and  C_6 
REMARK    3  A    between atoms: C_17  and  N_7 
REMARK    4  A    between atoms: O_23  and  C_8 
REMARK    5  A    between atoms: O_25  and  C_12 
REMARK    6  A    between atoms: C_18  and  C_17 
ROOT
ATOM      1  C   UNL d   1      50.788  34.463  52.892  0.00  0.00     0.316 C 
ATOM      2  N   UNL d   1      48.990  35.237  52.155  0.00  0.00    -0.143 NA
ATOM      3  N   UNL d   1      49.809  34.341  52.234  0.00  0.00    -0.104 NA
ATOM      4  O   UNL d   1      50.918  35.160  53.300  0.00  0.00    -0.262 OA
ENDROOT
BRANCH   1   5
ATOM      5  C   UNL d   1      51.330  33.847  52.934  0.00  0.00     0.164 A 
ATOM      6  C   UNL d   1      51.177  33.194  53.392  0.00  0.00     0.047 A 
ATOM      7  C   UNL d   1      52.420  32.629  53.006  0.00  0.00     0.105 A 
ATOM      8  N   UNL d   1      52.571  33.292  52.543  0.00  0.00    -0.148 NA
ATOM      9  N   UNL d   1      52.034  33.896  52.505  0.00  0.00    -0.143 NA
BRANCH   7  10
ATOM     10  C   UNL d   1      52.823  31.934  53.172  0.00  0.00     0.019 A 
ATOM     11  C   UNL d   1      52.549  31.223  52.900  0.00  0.00     0.002 A 
ATOM     12  C   UNL d   1      52.947  30.530  53.063  0.00  0.00     0.011 A 
ATOM     13  C   UNL d   1      53.633  30.561  53.510  0.00  0.00     0.058 A 
ATOM     14  C   UNL d   1      53.916  31.271  53.787  0.00  0.00     0.011 A 
ATOM     15 CL   UNL d   1      54.040  29.866  53.678  0.00  0.00    -0.082 Cl
ATOM     16  C   UNL d   1      53.513  31.966  53.621  0.00  0.00     0.002 A 
ENDBRANCH   7  10
ENDBRANCH   1   5
BRANCH   2  17
ATOM     17  C   UNL d   1      48.294  35.147  51.686  0.00  0.00     0.122 C 
BRANCH  17  18
ATOM     18  C   UNL d   1      47.530  35.535  51.928  0.00  0.00     0.023 A 
ATOM     19  C   UNL d   1      47.451  35.883  52.753  0.00  0.00     0.028 A 
ATOM     20  C   UNL d   1      46.677  36.274  52.994  0.00  0.00     0.116 A 
ATOM     21  C   UNL d   1      45.989  36.318  52.416  0.00  0.00     0.116 A 
ATOM     22  C   UNL d   1      46.078  35.971  51.602  0.00  0.00     0.026 A 
ATOM     23  C   UNL d   1      46.851  35.576  51.351  0.00  0.00     0.004 A 
BRANCH  20  24
ATOM     24  O   UNL d   1      46.598  36.621  53.819  0.00  0.00    -0.326 OA
ATOM     25  C   UNL d   1      47.153  36.363  54.464  0.00  0.00     0.181 C 
ENDBRANCH  20  24
BRANCH  21  26
ATOM     26  O   UNL d   1      45.226  36.709  52.667  0.00  0.00    -0.326 OA
ATOM     27  C   UNL d   1      44.490  36.582  52.179  0.00  0.00     0.181 C 
ENDBRANCH  21  26
ENDBRANCH  17  18
ENDBRANCH   2  17
TORSDOF 6
ENDMDL
MODEL 4
REMARK VINA RESULT:      -7.2      2.928      7.692
REMARK  6 active torsions:
REMARK  status: ('A' for Active; 'I' for Inactive)
REMARK    1  A    between atoms: C_5  and  C_1 
REMARK       I    between atoms: N_10  and  C_5 
REMARK    2  A    between atoms: C_9  and  C_6 
REMARK    3  A    between atoms: C_17  and  N_7 
REMARK    4  A    between atoms: O_23  and  C_8 
REMARK    5  A    between atoms: O_25  and  C_12 
REMARK    6  A    between atoms: C_18  and  C_17 
ROOT
ATOM      1  C   UNL d   1      49.474  35.175  52.937  0.00  0.00     0.316 C 
ATOM      2  N   UNL d   1      51.296  34.158  53.066  0.00  0.00    -0.143 NA
ATOM      3  N   UNL d   1      50.223  34.353  52.527  0.00  0.00    -0.104 NA
ATOM      4  O   UNL d   1      49.678  35.620  53.592  0.00  0.00    -0.262 OA
ENDROOT
BRANCH   1   5
ATOM      5  C   UNL d   1      48.753  35.293  52.560  0.00  0.00     0.164 A 
ATOM      6  C   UNL d   1      48.193  35.784  52.886  0.00  0.00     0.047 A 
ATOM      7  C   UNL d   1      47.323  35.518  51.798  0.00  0.00     0.105 A 
ATOM      8  N   UNL d   1      47.892  35.021  51.470  0.00  0.00    -0.148 NA
ATOM      9  N   UNL d   1      48.600  34.908  51.845  0.00  0.00    -0.143 NA
BRANCH   7  10
ATOM     10  C   UNL d   1      46.569  35.756  51.581  0.00  0.00     0.019 A 
ATOM     11  C   UNL d   1      46.153  36.279  52.038  0.00  0.00     0.002 A 
ATOM     12  C   UNL d   1      45.402  36.518  51.825  0.00  0.00     0.011 A 
ATOM     13  C   UNL d   1      45.070  36.221  51.138  0.00  0.00     0.058 A 
ATOM     14  C   UNL d   1      45.481  35.695  50.673  0.00  0.00     0.011 A 
ATOM     15 CL   UNL d   1      44.314  36.457  50.917  0.00  0.00    -0.082 Cl
ATOM     16  C   UNL d   1      46.235  35.457  50.889  0.00  0.00     0.002 A 
ENDBRANCH   7  10
ENDBRANCH   1   5
BRANCH   2  17
ATOM     17  C   UNL d   1      51.827  33.572  52.773  0.00  0.00     0.122 C 
BRANCH  17  18
ATOM     18  C   UNL d   1      52.587  33.392  53.201  0.00  0.00     0.023 A 
ATOM     19  C   UNL d   1      52.883  32.544  53.242  0.00  0.00     0.028 A 
ATOM     20  C   UNL d   1      53.651  32.365  53.675  0.00  0.00     0.116 A 
ATOM     21  C   UNL d   1      54.120  33.028  54.065  0.00  0.00     0.116 A 
ATOM     22  C   UNL d   1      53.818  33.863  54.018  0.00  0.00     0.026 A 
ATOM     23  C   UNL d   1      53.048  34.052  53.585  0.00  0.00     0.004 A 
BRANCH  20  24
ATOM     24  O   UNL d   1      53.946  31.518  53.717  0.00  0.00    -0.326 OA
ATOM     25  C   UNL d   1      53.388  30.845  53.553  0.00  0.00     0.181 C 
ENDBRANCH  20  24
BRANCH  21  26
ATOM     26  O   UNL d   1      54.881  32.838  54.492  0.00  0.00    -0.326 OA
ATOM     27  C   UNL d   1      55.225  33.438  55.056  0.00  0.00     0.181 C 
ENDBRANCH  21  26
ENDBRANCH  17  18
ENDBRANCH   2  17
TORSDOF 6
ENDMDL
