MODEL 1
REMARK VINA RESULT:      -7.3      0.000      0.000
REMARK  2 active torsions:
REMARK  status: ('A' for Active; 'I' for Inactive)
REMARK    1  A    between atoms: S_2  and  N_1 
REMARK    2  A    between atoms: C_10  and  S_2 
ROOT
ATOM      1  S   UNL d   1     -48.414  14.057  22.819  0.00  0.00     0.273 S 
ATOM      2  O   UNL d   1     -48.689  13.384  23.209  0.00  0.00    -0.200 OA
ATOM      3  O   UNL d   1     -48.148  14.733  22.430  0.00  0.00    -0.200 OA
ENDROOT
BRANCH   1   4
ATOM      4  N   UNL d   1     -49.186  14.344  22.762  0.00  0.00    -0.207 N 
ATOM      5  C   UNL d   1     -49.612  14.072  22.110  0.00  0.00     0.148 A 
ATOM      6  N   UNL d   1     -50.394  14.252  21.893  0.00  0.00    -0.198 NA
ATOM      7  C   UNL d   1     -50.925  14.738  22.270  0.00  0.00     0.066 A 
ATOM      8  C   UNL d   1     -49.879  14.581  22.682  0.00  0.00     0.169 A 
ATOM      9  C   UNL d   1     -50.828  15.176  22.961  0.00  0.00     0.066 A 
ATOM     10  N   UNL d   1     -50.160  15.230  23.446  0.00  0.00    -0.198 NA
ATOM     11  C   UNL d   1     -49.433  14.860  23.355  0.00  0.00     0.148 A 
ENDBRANCH   1   4
BRANCH   1  12
ATOM     12  C   UNL d   1     -47.642  13.774  22.874  0.00  0.00     0.104 A 
ATOM     13  C   UNL d   1     -47.006  14.277  22.724  0.00  0.00     0.013 A 
ATOM     14  C   UNL d   1     -46.234  13.994  22.779  0.00  0.00     0.001 A 
ATOM     15  C   UNL d   1     -46.097  13.208  22.985  0.00  0.00     0.000 A 
ATOM     16  C   UNL d   1     -46.733  12.703  23.135  0.00  0.00     0.001 A 
ATOM     17  C   UNL d   1     -47.505  12.986  23.080  0.00  0.00     0.013 A 
ENDBRANCH   1  12
TORSDOF 2
ENDMDL
MODEL 2
REMARK VINA RESULT:      -7.3      1.901      3.517
REMARK  2 active torsions:
REMARK  status: ('A' for Active; 'I' for Inactive)
REMARK    1  A    between atoms: S_2  and  N_1 
REMARK    2  A    between atoms: C_10  and  S_2 
ROOT
ATOM      1  S   UNL d   1     -48.442  12.606  23.066  0.00  0.00     0.273 S 
ATOM      2  O   UNL d   1     -48.323  11.847  22.765  0.00  0.00    -0.200 OA
ATOM      3  O   UNL d   1     -48.553  13.365  23.365  0.00  0.00    -0.200 OA
ENDROOT
BRANCH   1   4
ATOM      4  N   UNL d   1     -47.642  12.777  22.962  0.00  0.00    -0.207 N 
ATOM      5  C   UNL d   1     -47.445  13.095  22.226  0.00  0.00     0.148 A 
ATOM      6  N   UNL d   1     -46.697  13.326  21.947  0.00  0.00    -0.198 NA
ATOM      7  C   UNL d   1     -45.981  13.295  22.330  0.00  0.00     0.066 A 
ATOM      8  C   UNL d   1     -46.934  12.942  22.836  0.00  0.00     0.169 A 
ATOM      9  C   UNL d   1     -45.812  13.027  23.091  0.00  0.00     0.066 A 
ATOM     10  N   UNL d   1     -46.332  12.722  23.657  0.00  0.00    -0.198 NA
ATOM     11  C   UNL d   1     -47.144  12.612  23.597  0.00  0.00     0.148 A 
ENDBRANCH   1   4
BRANCH   1  12
ATOM     12  C   UNL d   1     -49.242  12.438  23.171  0.00  0.00     0.104 A 
ATOM     13  C   UNL d   1     -49.815  12.942  22.856  0.00  0.00     0.013 A 
ATOM     14  C   UNL d   1     -50.615  12.774  22.961  0.00  0.00     0.001 A 
ATOM     15  C   UNL d   1     -50.843  12.103  23.381  0.00  0.00     0.000 A 
ATOM     16  C   UNL d   1     -50.272  11.598  23.696  0.00  0.00     0.001 A 
ATOM     17  C   UNL d   1     -49.472  11.765  23.591  0.00  0.00     0.013 A 
ENDBRANCH   1  12
TORSDOF 2
ENDMDL
MODEL 3
REMARK VINA RESULT:      -7.2      1.626      2.093
REMARK  2 active torsions:
REMARK  status: ('A' for Active; 'I' for Inactive)
REMARK    1  A    between atoms: S_2  and  N_1 
REMARK    2  A    between atoms: C_10  and  S_2 
ROOT
ATOM      1  S   UNL d   1     -48.134  12.910  22.954  0.00  0.00     0.273 S 
ATOM      2  O   UNL d   1     -48.028  12.437  22.287  0.00  0.00    -0.200 OA
ATOM      3  O   UNL d   1     -48.247  13.380  23.622  0.00  0.00    -0.200 OA
ENDROOT
BRANCH   1   4
ATOM      4  N   UNL d   1     -48.876  12.574  23.081  0.00  0.00    -0.207 N 
ATOM      5  C   UNL d   1     -49.511  13.003  22.775  0.00  0.00     0.148 A 
ATOM      6  N   UNL d   1     -50.322  12.820  22.807  0.00  0.00    -0.198 NA
ATOM      7  C   UNL d   1     -50.683  12.176  23.145  0.00  0.00     0.066 A 
ATOM      8  C   UNL d   1     -49.555  12.300  23.176  0.00  0.00     0.169 A 
ATOM      9  C   UNL d   1     -50.341  11.540  23.543  0.00  0.00     0.066 A 
ATOM     10  N   UNL d   1     -49.541  11.399  23.697  0.00  0.00    -0.198 NA
ATOM     11  C   UNL d   1     -48.893  11.860  23.491  0.00  0.00     0.148 A 
ENDBRANCH   1   4
BRANCH   1  12
ATOM     12  C   UNL d   1     -47.393  13.249  22.831  0.00  0.00     0.104 A 
ATOM     13  C   UNL d   1     -46.738  12.769  22.685  0.00  0.00     0.013 A 
ATOM     14  C   UNL d   1     -45.997  13.107  22.562  0.00  0.00     0.001 A 
ATOM     15  C   UNL d   1     -45.909  13.926  22.586  0.00  0.00     0.000 A 
ATOM     16  C   UNL d   1     -46.563  14.408  22.732  0.00  0.00     0.001 A 
ATOM     17  C   UNL d   1     -47.304  14.070  22.855  0.00  0.00     0.013 A 
ENDBRANCH   1  12
TORSDOF 2
ENDMDL
MODEL 4
REMARK VINA RESULT:      -7.2      1.620      3.492
REMARK  2 active torsions:
REMARK  status: ('A' for Active; 'I' for Inactive)
REMARK    1  A    between atoms: S_2  and  N_1 
REMARK    2  A    between atoms: C_10  and  S_2 
ROOT
ATOM      1  S   UNL d   1     -48.210  13.242  22.892  0.00  0.00     0.273 S 
ATOM      2  O   UNL d   1     -47.957  13.139  22.114  0.00  0.00    -0.200 OA
ATOM      3  O   UNL d   1     -48.458  13.338  23.672  0.00  0.00    -0.200 OA
ENDROOT
BRANCH   1   4
ATOM      4  N   UNL d   1     -47.702  12.641  23.141  0.00  0.00    -0.207 N 
ATOM      5  C   UNL d   1     -46.921  12.875  23.268  0.00  0.00     0.148 A 
ATOM      6  N   UNL d   1     -46.277  12.412  23.518  0.00  0.00    -0.198 NA
ATOM      7  C   UNL d   1     -46.262  11.619  23.697  0.00  0.00     0.066 A 
ATOM      8  C   UNL d   1     -47.221  12.128  23.365  0.00  0.00     0.169 A 
ATOM      9  C   UNL d   1     -46.878  11.072  23.677  0.00  0.00     0.066 A 
ATOM     10  N   UNL d   1     -47.669  11.194  23.470  0.00  0.00    -0.198 NA
ATOM     11  C   UNL d   1     -48.032  11.892  23.232  0.00  0.00     0.148 A 
ENDBRANCH   1   4
BRANCH   1  12
ATOM     12  C   UNL d   1     -48.719  13.842  22.647  0.00  0.00     0.104 A 
ATOM     13  C   UNL d   1     -48.632  14.605  22.948  0.00  0.00     0.013 A 
ATOM     14  C   UNL d   1     -49.141  15.205  22.703  0.00  0.00     0.001 A 
ATOM     15  C   UNL d   1     -49.737  15.043  22.157  0.00  0.00     0.000 A 
ATOM     16  C   UNL d   1     -49.825  14.280  21.856  0.00  0.00     0.001 A 
ATOM     17  C   UNL d   1     -49.316  13.680  22.101  0.00  0.00     0.013 A 
ENDBRANCH   1  12
TORSDOF 2
ENDMDL
