MODEL 1
REMARK VINA RESULT:      -8.1      0.000      0.000
REMARK  4 active torsions:
REMARK  status: ('A' for Active; 'I' for Inactive)
REMARK    1  A    between atoms: N_2  and  C_1 
REMARK    2  A    between atoms: C_4  and  C_8 
REMARK       I    between atoms: N_5  and  C_4 
REMARK    3  A    between atoms: C_9  and  C_7 
REMARK    4  A    between atoms: C_8  and  C_9 
ROOT
ATOM      1  C   UNL d   1      52.936  32.059  53.291  0.00  0.00     0.062 C 
ENDROOT
BRANCH   1   2
ATOM      2  C   UNL d   1      53.159  32.833  53.263  0.00  0.00     0.265 C 
ATOM      3  N   UNL d   1      52.595  33.424  53.197  0.00  0.00    -0.272 N 
ATOM      4  C   UNL d   1      51.797  33.230  53.158  0.00  0.00     0.083 A 
ATOM      5  C   UNL d   1      52.825  34.224  53.168  0.00  0.00     0.083 A 
ATOM      6  C   UNL d   1      51.225  33.816  53.092  0.00  0.00     0.019 A 
ATOM      7  C   UNL d   1      51.449  34.608  53.063  0.00  0.00     0.003 A 
ATOM      8  C   UNL d   1      52.250  34.812  53.101  0.00  0.00     0.019 A 
ATOM      9  O   UNL d   1      53.955  33.024  53.301  0.00  0.00    -0.267 OA
ENDBRANCH   1   2
BRANCH   1  10
ATOM     10  C   UNL d   1      53.555  31.450  53.338  0.00  0.00     0.011 C 
BRANCH  10  11
ATOM     11  C   UNL d   1      53.358  30.644  53.494  0.00  0.00     0.031 A 
ATOM     12  S   UNL d   1      53.547  30.250  54.162  0.00  0.00    -0.064 SA
ATOM     13  C   UNL d   1      53.250  29.481  54.084  0.00  0.00     0.156 A 
ATOM     14  C   UNL d   1      52.880  29.439  53.348  0.00  0.00     0.031 A 
ATOM     15  C   UNL d   1      52.950  30.140  53.002  0.00  0.00     0.009 A 
BRANCH  13  16
ATOM     16  N   UNL d   1      53.306  28.848  54.643  0.00  0.00    -0.107 N 
ATOM     17  O   UNL d   1      52.951  28.928  55.404  0.00  0.00    -0.531 OA
ATOM     18  O   UNL d   1      53.714  28.137  54.447  0.00  0.00    -0.531 OA
ENDBRANCH  13  16
ENDBRANCH  10  11
ENDBRANCH   1  10
TORSDOF 4
ENDMDL
MODEL 2
REMARK VINA RESULT:      -7.8      2.041      4.540
REMARK  4 active torsions:
REMARK  status: ('A' for Active; 'I' for Inactive)
REMARK    1  A    between atoms: N_2  and  C_1 
REMARK    2  A    between atoms: C_4  and  C_8 
REMARK       I    between atoms: N_5  and  C_4 
REMARK    3  A    between atoms: C_9  and  C_7 
REMARK    4  A    between atoms: C_8  and  C_9 
ROOT
ATOM      1  C   UNL d   1      52.913  32.337  53.338  0.00  0.00     0.062 C 
ENDROOT
BRANCH   1   2
ATOM      2  C   UNL d   1      52.804  31.645  52.940  0.00  0.00     0.265 C 
ATOM      3  N   UNL d   1      52.974  30.929  53.301  0.00  0.00    -0.272 N 
ATOM      4  C   UNL d   1      53.255  30.914  54.073  0.00  0.00     0.083 A 
ATOM      5  C   UNL d   1      52.862  30.213  52.891  0.00  0.00     0.083 A 
ATOM      6  C   UNL d   1      53.428  30.201  54.444  0.00  0.00     0.019 A 
ATOM      7  C   UNL d   1      53.318  29.491  54.041  0.00  0.00     0.003 A 
ATOM      8  C   UNL d   1      53.035  29.497  53.264  0.00  0.00     0.019 A 
ATOM      9  O   UNL d   1      52.523  31.663  52.170  0.00  0.00    -0.267 OA
ENDBRANCH   1   2
BRANCH   1  10
ATOM     10  C   UNL d   1      52.824  33.084  52.902  0.00  0.00     0.011 C 
BRANCH  10  11
ATOM     11  C   UNL d   1      52.683  33.810  53.311  0.00  0.00     0.031 A 
ATOM     12  S   UNL d   1      53.181  34.141  53.839  0.00  0.00    -0.064 SA
ATOM     13  C   UNL d   1      52.827  34.842  54.102  0.00  0.00     0.156 A 
ATOM     14  C   UNL d   1      52.105  34.909  53.709  0.00  0.00     0.031 A 
ATOM     15  C   UNL d   1      52.027  34.286  53.238  0.00  0.00     0.009 A 
BRANCH  13  16
ATOM     16  N   UNL d   1      53.134  35.394  54.664  0.00  0.00    -0.107 N 
ATOM     17  O   UNL d   1      53.253  36.198  54.441  0.00  0.00    -0.531 OA
ATOM     18  O   UNL d   1      53.324  35.147  55.448  0.00  0.00    -0.531 OA
ENDBRANCH  13  16
ENDBRANCH  10  11
ENDBRANCH   1  10
TORSDOF 4
ENDMDL
MODEL 3
REMARK VINA RESULT:      -7.5      2.259      4.631
REMARK  4 active torsions:
REMARK  status: ('A' for Active; 'I' for Inactive)
REMARK    1  A    between atoms: N_2  and  C_1 
REMARK    2  A    between atoms: C_4  and  C_8 
REMARK       I    between atoms: N_5  and  C_4 
REMARK    3  A    between atoms: C_9  and  C_7 
REMARK    4  A    between atoms: C_8  and  C_9 
ROOT
ATOM      1  C   UNL d   1      52.529  32.502  53.019  0.00  0.00     0.062 C 
ENDROOT
BRANCH   1   2
ATOM      2  C   UNL d   1      53.111  32.115  53.422  0.00  0.00     0.265 C 
ATOM      3  N   UNL d   1      53.145  31.297  53.415  0.00  0.00    -0.272 N 
ATOM      4  C   UNL d   1      52.585  30.864  52.997  0.00  0.00     0.083 A 
ATOM      5  C   UNL d   1      53.746  30.896  53.831  0.00  0.00     0.083 A 
ATOM      6  C   UNL d   1      52.612  30.043  52.984  0.00  0.00     0.019 A 
ATOM      7  C   UNL d   1      53.204  29.645  53.394  0.00  0.00     0.003 A 
ATOM      8  C   UNL d   1      53.772  30.072  53.818  0.00  0.00     0.019 A 
ATOM      9  O   UNL d   1      53.669  32.549  53.839  0.00  0.00    -0.267 OA
ENDBRANCH   1   2
BRANCH   1  10
ATOM     10  C   UNL d   1      52.342  33.320  53.245  0.00  0.00     0.011 C 
BRANCH  10  11
ATOM     11  C   UNL d   1      51.742  33.755  52.839  0.00  0.00     0.031 A 
ATOM     12  S   UNL d   1      51.005  33.881  53.116  0.00  0.00    -0.064 SA
ATOM     13  C   UNL d   1      50.604  34.329  52.546  0.00  0.00     0.156 A 
ATOM     14  C   UNL d   1      51.134  34.460  51.927  0.00  0.00     0.031 A 
ATOM     15  C   UNL d   1      51.812  34.112  52.112  0.00  0.00     0.009 A 
BRANCH  13  16
ATOM     16  N   UNL d   1      49.806  34.606  52.577  0.00  0.00    -0.107 N 
ATOM     17  O   UNL d   1      49.278  34.440  51.941  0.00  0.00    -0.531 OA
ATOM     18  O   UNL d   1      49.531  35.048  53.240  0.00  0.00    -0.531 OA
ENDBRANCH  13  16
ENDBRANCH  10  11
ENDBRANCH   1  10
TORSDOF 4
ENDMDL
MODEL 4
REMARK VINA RESULT:      -7.1      2.698      4.638
REMARK  4 active torsions:
REMARK  status: ('A' for Active; 'I' for Inactive)
REMARK    1  A    between atoms: N_2  and  C_1 
REMARK    2  A    between atoms: C_4  and  C_8 
REMARK       I    between atoms: N_5  and  C_4 
REMARK    3  A    between atoms: C_9  and  C_7 
REMARK    4  A    between atoms: C_8  and  C_9 
ROOT
ATOM      1  C   UNL d   1      52.402  33.511  53.589  0.00  0.00     0.062 C 
ENDROOT
BRANCH   1   2
ATOM      2  C   UNL d   1      52.965  33.003  53.862  0.00  0.00     0.265 C 
ATOM      3  N   UNL d   1      53.570  33.277  54.343  0.00  0.00    -0.272 N 
ATOM      4  C   UNL d   1      53.606  34.072  54.549  0.00  0.00     0.083 A 
ATOM      5  C   UNL d   1      54.153  32.753  54.626  0.00  0.00     0.083 A 
ATOM      6  C   UNL d   1      54.208  34.355  55.030  0.00  0.00     0.019 A 
ATOM      7  C   UNL d   1      54.785  33.840  55.312  0.00  0.00     0.003 A 
ATOM      8  C   UNL d   1      54.758  33.038  55.110  0.00  0.00     0.019 A 
ATOM      9  O   UNL d   1      52.928  32.210  53.656  0.00  0.00    -0.267 OA
ENDBRANCH   1   2
BRANCH   1  10
ATOM     10  C   UNL d   1      51.738  33.185  53.131  0.00  0.00     0.011 C 
BRANCH  10  11
ATOM     11  C   UNL d   1      51.195  33.696  52.733  0.00  0.00     0.031 A 
ATOM     12  S   UNL d   1      50.496  33.939  53.032  0.00  0.00    -0.064 SA
ATOM     13  C   UNL d   1      50.145  34.428  52.463  0.00  0.00     0.156 A 
ATOM     14  C   UNL d   1      50.664  34.462  51.821  0.00  0.00     0.031 A 
ATOM     15  C   UNL d   1      51.289  34.020  51.993  0.00  0.00     0.009 A 
BRANCH  13  16
ATOM     16  N   UNL d   1      49.400  34.824  52.514  0.00  0.00    -0.107 N 
ATOM     17  O   UNL d   1      48.857  34.781  51.870  0.00  0.00    -0.531 OA
ATOM     18  O   UNL d   1      49.193  35.262  53.204  0.00  0.00    -0.531 OA
ENDBRANCH  13  16
ENDBRANCH  10  11
ENDBRANCH   1  10
TORSDOF 4
ENDMDL
MODEL 5
REMARK VINA RESULT:      -6.9      2.885      3.251
REMARK  4 active torsions:
REMARK  status: ('A' for Active; 'I' for Inactive)
REMARK    1  A    between atoms: N_2  and  C_1 
REMARK    2  A    between atoms: C_4  and  C_8 
REMARK       I    between atoms: N_5  and  C_4 
REMARK    3  A    between atoms: C_9  and  C_7 
REMARK    4  A    between atoms: C_8  and  C_9 
ROOT
ATOM      1  C   UNL d   1      52.387  33.451  53.379  0.00  0.00     0.062 C 
ENDROOT
BRANCH   1   2
ATOM      2  C   UNL d   1      51.948  33.465  52.703  0.00  0.00     0.265 C 
ATOM      3  N   UNL d   1      51.236  33.871  52.681  0.00  0.00    -0.272 N 
ATOM      4  C   UNL d   1      50.965  34.265  53.349  0.00  0.00     0.083 A 
ATOM      5  C   UNL d   1      50.781  33.886  51.983  0.00  0.00     0.083 A 
ATOM      6  C   UNL d   1      50.252  34.674  53.337  0.00  0.00     0.019 A 
ATOM      7  C   UNL d   1      49.801  34.691  52.649  0.00  0.00     0.003 A 
ATOM      8  C   UNL d   1      50.065  34.297  51.971  0.00  0.00     0.019 A 
ATOM      9  O   UNL d   1      52.219  33.071  52.037  0.00  0.00    -0.267 OA
ENDBRANCH   1   2
BRANCH   1  10
ATOM     10  C   UNL d   1      53.139  33.015  53.375  0.00  0.00     0.011 C 
BRANCH  10  11
ATOM     11  C   UNL d   1      53.647  33.021  54.050  0.00  0.00     0.031 A 
ATOM     12  S   UNL d   1      54.199  33.577  54.200  0.00  0.00    -0.064 SA
ATOM     13  C   UNL d   1      54.566  33.370  54.914  0.00  0.00     0.156 A 
ATOM     14  C   UNL d   1      54.208  32.674  55.175  0.00  0.00     0.031 A 
ATOM     15  C   UNL d   1      53.659  32.473  54.651  0.00  0.00     0.009 A 
BRANCH  13  16
ATOM     16  N   UNL d   1      55.188  33.783  55.311  0.00  0.00    -0.107 N 
ATOM     17  O   UNL d   1      55.143  33.909  56.143  0.00  0.00    -0.531 OA
ATOM     18  O   UNL d   1      55.855  34.070  54.883  0.00  0.00    -0.531 OA
ENDBRANCH  13  16
ENDBRANCH  10  11
ENDBRANCH   1  10
TORSDOF 4
ENDMDL
MODEL 6
REMARK VINA RESULT:      -6.3      1.795      2.228
REMARK  4 active torsions:
REMARK  status: ('A' for Active; 'I' for Inactive)
REMARK    1  A    between atoms: N_2  and  C_1 
REMARK    2  A    between atoms: C_4  and  C_8 
REMARK       I    between atoms: N_5  and  C_4 
REMARK    3  A    between atoms: C_9  and  C_7 
REMARK    4  A    between atoms: C_8  and  C_9 
ROOT
ATOM      1  C   UNL d   1      53.914  32.204  53.772  0.00  0.00     0.062 C 
ENDROOT
BRANCH   1   2
ATOM      2  C   UNL d   1      54.506  32.751  53.738  0.00  0.00     0.265 C 
ATOM      3  N   UNL d   1      54.714  33.177  54.407  0.00  0.00    -0.272 N 
ATOM      4  C   UNL d   1      54.319  33.049  55.116  0.00  0.00     0.083 A 
ATOM      5  C   UNL d   1      55.325  33.742  54.373  0.00  0.00     0.083 A 
ATOM      6  C   UNL d   1      54.520  33.472  55.792  0.00  0.00     0.019 A 
ATOM      7  C   UNL d   1      55.124  34.031  55.761  0.00  0.00     0.003 A 
ATOM      8  C   UNL d   1      55.527  34.166  55.051  0.00  0.00     0.019 A 
ATOM      9  O   UNL d   1      54.899  32.877  53.030  0.00  0.00    -0.267 OA
ENDBRANCH   1   2
BRANCH   1  10
ATOM     10  C   UNL d   1      53.857  31.616  53.135  0.00  0.00     0.011 C 
BRANCH  10  11
ATOM     11  C   UNL d   1      53.359  30.938  53.214  0.00  0.00     0.031 A 
ATOM     12  S   UNL d   1      53.564  30.262  53.585  0.00  0.00    -0.064 SA
ATOM     13  C   UNL d   1      52.916  29.749  53.533  0.00  0.00     0.156 A 
ATOM     14  C   UNL d   1      52.325  30.149  53.119  0.00  0.00     0.031 A 
ATOM     15  C   UNL d   1      52.600  30.860  52.933  0.00  0.00     0.009 A 
BRANCH  13  16
ATOM     16  N   UNL d   1      52.856  28.964  53.840  0.00  0.00    -0.107 N 
ATOM     17  O   UNL d   1      53.033  28.815  54.651  0.00  0.00    -0.531 OA
ATOM     18  O   UNL d   1      52.619  28.325  53.343  0.00  0.00    -0.531 OA
ENDBRANCH  13  16
ENDBRANCH  10  11
ENDBRANCH   1  10
TORSDOF 4
ENDMDL
