MODEL 1
REMARK VINA RESULT:      -3.1      0.000      0.000
REMARK  1 active torsions:
REMARK  status: ('A' for Active; 'I' for Inactive)
REMARK    1  A    between atoms: C_6  and  C_2 
ROOT
ATOM      1  N   UNL d   1      32.815  20.386 -21.364  0.00  0.00    -0.220 NA
ATOM      2  C   UNL d   1      32.864  21.173 -21.561  0.00  0.00     0.182 A 
ATOM      3  O   UNL d   1      33.012  21.286 -22.318  0.00  0.00    -0.288 OA
ATOM      4  C   UNL d   1      32.948  19.992 -22.076  0.00  0.00     0.106 A 
ATOM      5  C   UNL d   1      33.070  20.552 -22.670  0.00  0.00     0.119 A 
ATOM      6  C   UNL d   1      32.968  19.183 -22.241  0.00  0.00     0.021 A 
ATOM      7  C   UNL d   1      33.214  20.302 -23.428  0.00  0.00     0.026 A 
ATOM      8  C   UNL d   1      33.241  19.498 -23.628  0.00  0.00     0.002 A 
ATOM      9  C   UNL d   1      33.114  18.919 -23.013  0.00  0.00     0.002 A 
ENDROOT
BRANCH   2  10
ATOM     10  C   UNL d   1      32.772  21.803 -21.040  0.00  0.00     0.041 A 
ATOM     11  C   UNL d   1      33.240  21.839 -20.372  0.00  0.00     0.005 A 
ATOM     12  C   UNL d   1      33.143  22.485 -19.843  0.00  0.00     0.021 A 
ATOM     13  C   UNL d   1      32.591  23.066 -19.992  0.00  0.00     0.103 A 
ATOM     14  C   UNL d   1      32.114  23.021 -20.681  0.00  0.00     0.021 A 
ATOM     15  N   UNL d   1      32.528  23.672 -19.457  0.00  0.00    -0.148 N 
ATOM     16  C   UNL d   1      32.218  22.382 -21.196  0.00  0.00     0.005 A 
ENDBRANCH   2  10
TORSDOF 1
ENDMDL
MODEL 2
REMARK VINA RESULT:      -3.1      1.309      3.957
REMARK  1 active torsions:
REMARK  status: ('A' for Active; 'I' for Inactive)
REMARK    1  A    between atoms: C_6  and  C_2 
ROOT
ATOM      1  N   UNL d   1      33.241  20.952 -22.460  0.00  0.00    -0.220 NA
ATOM      2  C   UNL d   1      32.906  20.243 -22.245  0.00  0.00     0.182 A 
ATOM      3  O   UNL d   1      32.483  20.296 -21.592  0.00  0.00    -0.288 OA
ATOM      4  C   UNL d   1      32.991  21.478 -21.876  0.00  0.00     0.106 A 
ATOM      5  C   UNL d   1      32.519  21.070 -21.336  0.00  0.00     0.119 A 
ATOM      6  C   UNL d   1      33.145  22.284 -21.784  0.00  0.00     0.021 A 
ATOM      7  C   UNL d   1      32.202  21.467 -20.704  0.00  0.00     0.026 A 
ATOM      8  C   UNL d   1      32.338  22.276 -20.582  0.00  0.00     0.002 A 
ATOM      9  C   UNL d   1      32.826  22.699 -21.141  0.00  0.00     0.002 A 
ENDROOT
BRANCH   2  10
ATOM     10  C   UNL d   1      32.988  19.533 -22.651  0.00  0.00     0.041 A 
ATOM     11  C   UNL d   1      33.149  18.851 -22.232  0.00  0.00     0.005 A 
ATOM     12  C   UNL d   1      33.232  18.128 -22.652  0.00  0.00     0.021 A 
ATOM     13  C   UNL d   1      33.153  18.104 -23.463  0.00  0.00     0.103 A 
ATOM     14  C   UNL d   1      32.986  18.810 -23.885  0.00  0.00     0.021 A 
ATOM     15  N   UNL d   1      33.239  17.387 -23.829  0.00  0.00    -0.148 N 
ATOM     16  C   UNL d   1      32.907  19.517 -23.464  0.00  0.00     0.005 A 
ENDBRANCH   2  10
TORSDOF 1
ENDMDL
MODEL 3
REMARK VINA RESULT:      -2.8      1.076      1.676
REMARK  1 active torsions:
REMARK  status: ('A' for Active; 'I' for Inactive)
REMARK    1  A    between atoms: C_6  and  C_2 
ROOT
ATOM      1  N   UNL d   1      33.217  19.210 -22.086  0.00  0.00    -0.220 NA
ATOM      2  C   UNL d   1      32.988  19.931 -22.383  0.00  0.00     0.182 A 
ATOM      3  O   UNL d   1      32.751  19.890 -23.125  0.00  0.00    -0.288 OA
ATOM      4  C   UNL d   1      33.105  18.688 -22.715  0.00  0.00     0.106 A 
ATOM      5  C   UNL d   1      32.815  19.111 -23.361  0.00  0.00     0.119 A 
ATOM      6  C   UNL d   1      33.237  17.874 -22.762  0.00  0.00     0.021 A 
ATOM      7  C   UNL d   1      32.658  18.720 -24.055  0.00  0.00     0.026 A 
ATOM      8  C   UNL d   1      32.780  17.905 -24.135  0.00  0.00     0.002 A 
ATOM      9  C   UNL d   1      33.080  17.467 -23.466  0.00  0.00     0.002 A 
ENDROOT
BRANCH   2  10
ATOM     10  C   UNL d   1      32.994  20.642 -21.971  0.00  0.00     0.041 A 
ATOM     11  C   UNL d   1      33.235  21.322 -22.353  0.00  0.00     0.005 A 
ATOM     12  C   UNL d   1      33.240  22.047 -21.927  0.00  0.00     0.021 A 
ATOM     13  C   UNL d   1      33.008  22.073 -21.145  0.00  0.00     0.103 A 
ATOM     14  C   UNL d   1      32.762  21.368 -20.761  0.00  0.00     0.021 A 
ATOM     15  N   UNL d   1      33.027  22.790 -20.771  0.00  0.00    -0.148 N 
ATOM     16  C   UNL d   1      32.761  20.660 -21.188  0.00  0.00     0.005 A 
ENDBRANCH   2  10
TORSDOF 1
ENDMDL
MODEL 4
REMARK VINA RESULT:      -2.7      4.754      6.089
REMARK  1 active torsions:
REMARK  status: ('A' for Active; 'I' for Inactive)
REMARK    1  A    between atoms: C_6  and  C_2 
ROOT
ATOM      1  N   UNL d   1      29.632  17.392 -24.083  0.00  0.00    -0.220 NA
ATOM      2  C   UNL d   1      30.355  17.025 -24.033  0.00  0.00     0.182 A 
ATOM      3  O   UNL d   1      30.301  16.282 -23.801  0.00  0.00    -0.288 OA
ATOM      4  C   UNL d   1      29.094  16.808 -23.859  0.00  0.00     0.106 A 
ATOM      5  C   UNL d   1      29.510  16.117 -23.683  0.00  0.00     0.119 A 
ATOM      6  C   UNL d   1      28.271  16.837 -23.798  0.00  0.00     0.021 A 
ATOM      7  C   UNL d   1      29.103  15.457 -23.447  0.00  0.00     0.026 A 
ATOM      8  C   UNL d   1      28.278  15.453 -23.375  0.00  0.00     0.002 A 
ATOM      9  C   UNL d   1      27.847  16.167 -23.557  0.00  0.00     0.002 A 
ENDROOT
BRANCH   2  10
ATOM     10  C   UNL d   1      31.081  17.373 -24.201  0.00  0.00     0.041 A 
ATOM     11  C   UNL d   1      31.195  17.723 -24.930  0.00  0.00     0.005 A 
ATOM     12  C   UNL d   1      31.939  18.077 -25.097  0.00  0.00     0.021 A 
ATOM     13  C   UNL d   1      32.537  18.073 -24.543  0.00  0.00     0.103 A 
ATOM     14  C   UNL d   1      32.410  17.711 -23.796  0.00  0.00     0.021 A 
ATOM     15  N   UNL d   1      33.238  18.426 -24.743  0.00  0.00    -0.148 N 
ATOM     16  C   UNL d   1      31.675  17.365 -23.641  0.00  0.00     0.005 A 
ENDBRANCH   2  10
TORSDOF 1
ENDMDL
MODEL 5
REMARK VINA RESULT:      -2.7      1.014      3.682
REMARK  1 active torsions:
REMARK  status: ('A' for Active; 'I' for Inactive)
REMARK    1  A    between atoms: C_6  and  C_2 
ROOT
ATOM      1  N   UNL d   1      32.544  21.087 -21.247  0.00  0.00    -0.220 NA
ATOM      2  C   UNL d   1      32.932  20.913 -21.941  0.00  0.00     0.182 A 
ATOM      3  O   UNL d   1      33.239  21.545 -22.280  0.00  0.00    -0.288 OA
ATOM      4  C   UNL d   1      32.631  21.903 -21.167  0.00  0.00     0.106 A 
ATOM      5  C   UNL d   1      33.064  22.188 -21.810  0.00  0.00     0.119 A 
ATOM      6  C   UNL d   1      32.361  22.411 -20.575  0.00  0.00     0.021 A 
ATOM      7  C   UNL d   1      33.225  22.981 -21.860  0.00  0.00     0.026 A 
ATOM      8  C   UNL d   1      32.968  23.519 -21.283  0.00  0.00     0.002 A 
ATOM      9  C   UNL d   1      32.521  23.224 -20.618  0.00  0.00     0.002 A 
ENDROOT
BRANCH   2  10
ATOM     10  C   UNL d   1      33.007  20.165 -22.273  0.00  0.00     0.041 A 
ATOM     11  C   UNL d   1      33.150  19.526 -21.785  0.00  0.00     0.005 A 
ATOM     12  C   UNL d   1      33.226  18.763 -22.129  0.00  0.00     0.021 A 
ATOM     13  C   UNL d   1      33.158  18.660 -22.935  0.00  0.00     0.103 A 
ATOM     14  C   UNL d   1      33.010  19.322 -23.428  0.00  0.00     0.021 A 
ATOM     15  N   UNL d   1      33.238  17.908 -23.226  0.00  0.00    -0.148 N 
ATOM     16  C   UNL d   1      32.937  20.069 -23.081  0.00  0.00     0.005 A 
ENDBRANCH   2  10
TORSDOF 1
ENDMDL
MODEL 6
REMARK VINA RESULT:      -2.5      1.956      3.186
REMARK  1 active torsions:
REMARK  status: ('A' for Active; 'I' for Inactive)
REMARK    1  A    between atoms: C_6  and  C_2 
ROOT
ATOM      1  N   UNL d   1      32.200  18.463 -23.638  0.00  0.00    -0.220 NA
ATOM      2  C   UNL d   1      32.768  18.687 -23.101  0.00  0.00     0.182 A 
ATOM      3  O   UNL d   1      33.214  18.091 -22.868  0.00  0.00    -0.288 OA
ATOM      4  C   UNL d   1      32.322  17.653 -23.733  0.00  0.00     0.106 A 
ATOM      5  C   UNL d   1      32.952  17.422 -23.254  0.00  0.00     0.119 A 
ATOM      6  C   UNL d   1      31.922  17.106 -24.206  0.00  0.00     0.021 A 
ATOM      7  C   UNL d   1      33.183  16.644 -23.248  0.00  0.00     0.026 A 
ATOM      8  C   UNL d   1      32.804  16.070 -23.710  0.00  0.00     0.002 A 
ATOM      9  C   UNL d   1      32.151  16.310 -24.206  0.00  0.00     0.002 A 
ENDROOT
BRANCH   2  10
ATOM     10  C   UNL d   1      32.883  19.450 -22.817  0.00  0.00     0.041 A 
ATOM     11  C   UNL d   1      33.125  20.035 -23.333  0.00  0.00     0.005 A 
ATOM     12  C   UNL d   1      33.241  20.813 -23.038  0.00  0.00     0.021 A 
ATOM     13  C   UNL d   1      33.115  20.984 -22.250  0.00  0.00     0.103 A 
ATOM     14  C   UNL d   1      32.867  20.376 -21.727  0.00  0.00     0.021 A 
ATOM     15  N   UNL d   1      33.239  21.746 -22.006  0.00  0.00    -0.148 N 
ATOM     16  C   UNL d   1      32.755  19.614 -22.027  0.00  0.00     0.005 A 
ENDBRANCH   2  10
TORSDOF 1
ENDMDL
MODEL 7
REMARK VINA RESULT:      -1.2      2.481      4.567
REMARK  1 active torsions:
REMARK  status: ('A' for Active; 'I' for Inactive)
REMARK    1  A    between atoms: C_6  and  C_2 
ROOT
ATOM      1  N   UNL d   1      32.137  22.624 -18.681  0.00  0.00    -0.220 NA
ATOM      2  C   UNL d   1      32.658  23.043 -19.144  0.00  0.00     0.182 A 
ATOM      3  O   UNL d   1      33.136  23.495 -18.726  0.00  0.00    -0.288 OA
ATOM      4  C   UNL d   1      32.326  22.851 -17.911  0.00  0.00     0.106 A 
ATOM      5  C   UNL d   1      32.947  23.393 -17.939  0.00  0.00     0.119 A 
ATOM      6  C   UNL d   1      31.994  22.618 -17.191  0.00  0.00     0.021 A 
ATOM      7  C   UNL d   1      33.237  23.702 -17.247  0.00  0.00     0.026 A 
ATOM      8  C   UNL d   1      32.927  23.490 -16.508  0.00  0.00     0.002 A 
ATOM      9  C   UNL d   1      32.283  22.929 -16.479  0.00  0.00     0.002 A 
ENDROOT
BRANCH   2  10
ATOM     10  C   UNL d   1      32.700  23.013 -19.964  0.00  0.00     0.041 A 
ATOM     11  C   UNL d   1      32.279  22.439 -20.364  0.00  0.00     0.005 A 
ATOM     12  C   UNL d   1      32.324  22.412 -21.203  0.00  0.00     0.021 A 
ATOM     13  C   UNL d   1      32.780  22.950 -21.613  0.00  0.00     0.103 A 
ATOM     14  C   UNL d   1      33.209  23.537 -21.194  0.00  0.00     0.021 A 
ATOM     15  N   UNL d   1      32.797  22.891 -22.421  0.00  0.00    -0.148 N 
ATOM     16  C   UNL d   1      33.158  23.555 -20.369  0.00  0.00     0.005 A 
ENDBRANCH   2  10
TORSDOF 1
ENDMDL
