MODEL 1
REMARK VINA RESULT:      -4.7      0.000      0.000
REMARK  10 active torsions:
REMARK  status: ('A' for Active; 'I' for Inactive)
REMARK    1  A    between atoms: C_9  and  S_1 
REMARK    2  A    between atoms: N_20  and  S_1 
REMARK    3  A    between atoms: S_2  and  C_10 
REMARK    4  A    between atoms: N_19  and  S_2 
REMARK    5  A    between atoms: C_28  and  N_19 
REMARK    6  A    between atoms: C_29  and  N_20 
REMARK    7  A    between atoms: C_24  and  C_28 
REMARK    8  A    between atoms: C_30  and  C_24 
REMARK    9  A    between atoms: C_25  and  C_29 
REMARK   10  A    between atoms: C_31  and  C_25 
ROOT
ATOM      1  C   UNL d   1     -44.352  11.469  22.862  0.00  0.00     0.300 A 
ATOM      2  C   UNL d   1     -44.233  12.120  22.380  0.00  0.00     0.064 A 
ATOM      3  C   UNL d   1     -45.734  11.800  22.979  0.00  0.00     0.104 A 
ATOM      4  O   UNL d   1     -45.100  11.308  23.161  0.00  0.00    -0.273 OA
ATOM      5  C   UNL d   1     -44.863  12.612  22.196  0.00  0.00     0.007 A 
ATOM      6  C   UNL d   1     -45.618  12.457  22.494  0.00  0.00     0.023 A 
ATOM      7  C   UNL d   1     -43.362  12.932  21.598  0.00  0.00     0.105 A 
ATOM      8  C   UNL d   1     -47.117  12.123  23.101  0.00  0.00     0.107 A 
ATOM      9  C   UNL d   1     -43.489  12.280  22.083  0.00  0.00     0.018 A 
ATOM     10  C   UNL d   1     -46.485  11.635  23.281  0.00  0.00     0.038 A 
ATOM     11  C   UNL d   1     -44.748  13.269  21.711  0.00  0.00     0.001 A 
ATOM     12  C   UNL d   1     -46.252  12.949  22.311  0.00  0.00     0.003 A 
ATOM     13  O   UNL d   1     -43.723  10.969  23.051  0.00  0.00    -0.259 OA
ATOM     14  C   UNL d   1     -44.000  13.430  21.412  0.00  0.00     0.013 A 
ATOM     15  C   UNL d   1     -47.003  12.784  22.614  0.00  0.00     0.013 A 
ENDROOT
BRANCH   7  16
ATOM     16  S   UNL d   1     -42.611  13.094  21.297  0.00  0.00     0.285 S 
ATOM     17  O   UNL d   1     -42.064  13.493  21.764  0.00  0.00    -0.198 OA
ATOM     18  O   UNL d   1     -42.411  12.853  20.527  0.00  0.00    -0.198 OA
BRANCH  16  19
ATOM     19  N   UNL d   1     -41.856  13.260  21.007  0.00  0.00    -0.157 NA
BRANCH  19  20
ATOM     20  C   UNL d   1     -41.552  14.024  21.061  0.00  0.00     0.116 C 
BRANCH  20  21
ATOM     21  C   UNL d   1     -40.796  14.187  20.772  0.00  0.00     0.067 C 
BRANCH  21  22
ATOM     22  C   UNL d   1     -40.527  14.966  20.736  0.00  0.00     0.236 C 
ATOM     23  O   UNL d   1     -39.738  15.118  20.541  0.00  0.00    -0.283 OA
ENDBRANCH  21  22
ENDBRANCH  20  21
ENDBRANCH  19  20
ENDBRANCH  16  19
ENDBRANCH   7  16
BRANCH   8  24
ATOM     24  S   UNL d   1     -47.871  11.965  23.400  0.00  0.00     0.285 S 
ATOM     25  O   UNL d   1     -48.070  11.198  23.627  0.00  0.00    -0.198 OA
ATOM     26  O   UNL d   1     -48.420  12.573  23.470  0.00  0.00    -0.198 OA
BRANCH  24  27
ATOM     27  N   UNL d   1     -48.626  11.814  23.698  0.00  0.00    -0.157 NA
BRANCH  27  28
ATOM     28  C   UNL d   1     -49.274  12.234  23.411  0.00  0.00     0.116 C 
BRANCH  28  29
ATOM     29  C   UNL d   1     -50.015  11.876  23.352  0.00  0.00     0.067 C 
BRANCH  29  30
ATOM     30  C   UNL d   1     -50.704  12.326  23.394  0.00  0.00     0.236 C 
ATOM     31  O   UNL d   1     -51.063  12.597  22.701  0.00  0.00    -0.283 OA
ENDBRANCH  29  30
ENDBRANCH  28  29
ENDBRANCH  27  28
ENDBRANCH  24  27
ENDBRANCH   8  24
TORSDOF 10
ENDMDL
MODEL 2
REMARK VINA RESULT:      -4.4      0.595      6.551
REMARK  10 active torsions:
REMARK  status: ('A' for Active; 'I' for Inactive)
REMARK    1  A    between atoms: C_9  and  S_1 
REMARK    2  A    between atoms: N_20  and  S_1 
REMARK    3  A    between atoms: S_2  and  C_10 
REMARK    4  A    between atoms: N_19  and  S_2 
REMARK    5  A    between atoms: C_28  and  N_19 
REMARK    6  A    between atoms: C_29  and  N_20 
REMARK    7  A    between atoms: C_24  and  C_28 
REMARK    8  A    between atoms: C_30  and  C_24 
REMARK    9  A    between atoms: C_25  and  C_29 
REMARK   10  A    between atoms: C_31  and  C_25 
ROOT
ATOM      1  C   UNL d   1     -44.859  11.627  22.922  0.00  0.00     0.300 A 
ATOM      2  C   UNL d   1     -45.454  12.172  22.785  0.00  0.00     0.064 A 
ATOM      3  C   UNL d   1     -43.965  12.387  22.114  0.00  0.00     0.104 A 
ATOM      4  O   UNL d   1     -44.116  11.732  22.589  0.00  0.00    -0.273 OA
ATOM      5  C   UNL d   1     -45.306  12.827  22.312  0.00  0.00     0.007 A 
ATOM      6  C   UNL d   1     -44.561  12.939  21.973  0.00  0.00     0.023 A 
ATOM      7  C   UNL d   1     -46.795  12.612  22.983  0.00  0.00     0.105 A 
ATOM      8  C   UNL d   1     -43.063  13.141  21.307  0.00  0.00     0.107 A 
ATOM      9  C   UNL d   1     -46.193  12.067  23.117  0.00  0.00     0.018 A 
ATOM     10  C   UNL d   1     -43.216  12.490  21.780  0.00  0.00     0.038 A 
ATOM     11  C   UNL d   1     -45.902  13.379  22.171  0.00  0.00     0.001 A 
ATOM     12  C   UNL d   1     -44.409  13.594  21.498  0.00  0.00     0.003 A 
ATOM     13  O   UNL d   1     -45.001  10.966  23.397  0.00  0.00    -0.259 OA
ATOM     14  C   UNL d   1     -46.645  13.274  22.504  0.00  0.00     0.013 A 
ATOM     15  C   UNL d   1     -43.661  13.697  21.164  0.00  0.00     0.013 A 
ENDROOT
BRANCH   7  16
ATOM     16  S   UNL d   1     -47.541  12.505  23.318  0.00  0.00     0.285 S 
ATOM     17  O   UNL d   1     -47.904  11.768  23.277  0.00  0.00    -0.198 OA
ATOM     18  O   UNL d   1     -47.921  13.141  23.695  0.00  0.00    -0.198 OA
BRANCH  16  19
ATOM     19  N   UNL d   1     -48.288  12.387  23.651  0.00  0.00    -0.157 NA
BRANCH  19  20
ATOM     20  C   UNL d   1     -48.905  12.097  23.188  0.00  0.00     0.116 C 
BRANCH  20  21
ATOM     21  C   UNL d   1     -49.629  11.911  23.539  0.00  0.00     0.067 C 
BRANCH  21  22
ATOM     22  C   UNL d   1     -50.299  11.803  23.069  0.00  0.00     0.236 C 
ATOM     23  O   UNL d   1     -51.049  11.927  23.392  0.00  0.00    -0.283 OA
ENDBRANCH  21  22
ENDBRANCH  20  21
ENDBRANCH  19  20
ENDBRANCH  16  19
ENDBRANCH   7  16
BRANCH   8  24
ATOM     24  S   UNL d   1     -42.317  13.251  20.970  0.00  0.00     0.285 S 
ATOM     25  O   UNL d   1     -42.191  13.054  20.180  0.00  0.00    -0.198 OA
ATOM     26  O   UNL d   1     -41.703  13.558  21.423  0.00  0.00    -0.198 OA
BRANCH  24  27
ATOM     27  N   UNL d   1     -41.569  13.364  20.639  0.00  0.00    -0.157 NA
BRANCH  27  28
ATOM     28  C   UNL d   1     -41.031  13.874  20.999  0.00  0.00     0.116 C 
BRANCH  28  29
ATOM     29  C   UNL d   1     -40.336  14.092  20.613  0.00  0.00     0.067 C 
BRANCH  29  30
ATOM     30  C   UNL d   1     -39.758  14.532  21.003  0.00  0.00     0.236 C 
ATOM     31  O   UNL d   1     -39.055  14.728  20.617  0.00  0.00    -0.283 OA
ENDBRANCH  29  30
ENDBRANCH  28  29
ENDBRANCH  27  28
ENDBRANCH  24  27
ENDBRANCH   8  24
TORSDOF 10
ENDMDL
MODEL 3
REMARK VINA RESULT:      -4.0      1.147      6.549
REMARK  10 active torsions:
REMARK  status: ('A' for Active; 'I' for Inactive)
REMARK    1  A    between atoms: C_9  and  S_1 
REMARK    2  A    between atoms: N_20  and  S_1 
REMARK    3  A    between atoms: S_2  and  C_10 
REMARK    4  A    between atoms: N_19  and  S_2 
REMARK    5  A    between atoms: C_28  and  N_19 
REMARK    6  A    between atoms: C_29  and  N_20 
REMARK    7  A    between atoms: C_24  and  C_28 
REMARK    8  A    between atoms: C_30  and  C_24 
REMARK    9  A    between atoms: C_25  and  C_29 
REMARK   10  A    between atoms: C_31  and  C_25 
ROOT
ATOM      1  C   UNL d   1     -43.938  11.559  22.604  0.00  0.00     0.300 A 
ATOM      2  C   UNL d   1     -44.604  12.032  22.562  0.00  0.00     0.064 A 
ATOM      3  C   UNL d   1     -43.202  12.514  21.843  0.00  0.00     0.104 A 
ATOM      4  O   UNL d   1     -43.238  11.797  22.246  0.00  0.00    -0.273 OA
ATOM      5  C   UNL d   1     -44.571  12.747  22.161  0.00  0.00     0.007 A 
ATOM      6  C   UNL d   1     -43.871  12.994  21.798  0.00  0.00     0.023 A 
ATOM      7  C   UNL d   1     -45.973  12.266  22.880  0.00  0.00     0.105 A 
ATOM      8  C   UNL d   1     -42.459  13.463  21.082  0.00  0.00     0.107 A 
ATOM      9  C   UNL d   1     -45.299  11.794  22.919  0.00  0.00     0.018 A 
ATOM     10  C   UNL d   1     -42.497  12.751  21.484  0.00  0.00     0.038 A 
ATOM     11  C   UNL d   1     -45.240  13.228  22.116  0.00  0.00     0.001 A 
ATOM     12  C   UNL d   1     -43.836  13.711  21.395  0.00  0.00     0.003 A 
ATOM     13  O   UNL d   1     -43.963  10.838  23.006  0.00  0.00    -0.259 OA
ATOM     14  C   UNL d   1     -45.940  12.990  22.474  0.00  0.00     0.013 A 
ATOM     15  C   UNL d   1     -43.130  13.948  21.036  0.00  0.00     0.013 A 
ENDROOT
BRANCH   7  16
ATOM     16  S   UNL d   1     -46.675  12.026  23.240  0.00  0.00     0.285 S 
ATOM     17  O   UNL d   1     -47.356  12.477  23.144  0.00  0.00    -0.198 OA
ATOM     18  O   UNL d   1     -46.692  11.331  23.696  0.00  0.00    -0.198 OA
BRANCH  16  19
ATOM     19  N   UNL d   1     -47.384  11.795  23.595  0.00  0.00    -0.157 NA
BRANCH  19  20
ATOM     20  C   UNL d   1     -48.105  12.009  23.258  0.00  0.00     0.116 C 
BRANCH  20  21
ATOM     21  C   UNL d   1     -48.810  11.734  23.587  0.00  0.00     0.067 C 
BRANCH  21  22
ATOM     22  C   UNL d   1     -49.515  11.791  23.160  0.00  0.00     0.236 C 
ATOM     23  O   UNL d   1     -50.235  11.659  23.541  0.00  0.00    -0.283 OA
ENDBRANCH  21  22
ENDBRANCH  20  21
ENDBRANCH  19  20
ENDBRANCH  16  19
ENDBRANCH   7  16
BRANCH   8  24
ATOM     24  S   UNL d   1     -41.758  13.707  20.721  0.00  0.00     0.285 S 
ATOM     25  O   UNL d   1     -41.188  14.110  21.159  0.00  0.00    -0.198 OA
ATOM     26  O   UNL d   1     -41.630  13.547  19.924  0.00  0.00    -0.198 OA
BRANCH  24  27
ATOM     27  N   UNL d   1     -41.058  13.948  20.352  0.00  0.00    -0.157 NA
BRANCH  27  28
ATOM     28  C   UNL d   1     -41.031  14.030  19.533  0.00  0.00     0.116 C 
BRANCH  28  29
ATOM     29  C   UNL d   1     -40.325  14.229  19.154  0.00  0.00     0.067 C 
BRANCH  29  30
ATOM     30  C   UNL d   1     -40.330  14.524  18.385  0.00  0.00     0.236 C 
ATOM     31  O   UNL d   1     -39.668  14.430  17.901  0.00  0.00    -0.283 OA
ENDBRANCH  29  30
ENDBRANCH  28  29
ENDBRANCH  27  28
ENDBRANCH  24  27
ENDBRANCH   8  24
TORSDOF 10
ENDMDL
MODEL 4
REMARK VINA RESULT:      -3.7      1.163      6.391
REMARK  10 active torsions:
REMARK  status: ('A' for Active; 'I' for Inactive)
REMARK    1  A    between atoms: C_9  and  S_1 
REMARK    2  A    between atoms: N_20  and  S_1 
REMARK    3  A    between atoms: S_2  and  C_10 
REMARK    4  A    between atoms: N_19  and  S_2 
REMARK    5  A    between atoms: C_28  and  N_19 
REMARK    6  A    between atoms: C_29  and  N_20 
REMARK    7  A    between atoms: C_24  and  C_28 
REMARK    8  A    between atoms: C_30  and  C_24 
REMARK    9  A    between atoms: C_25  and  C_29 
REMARK   10  A    between atoms: C_31  and  C_25 
ROOT
ATOM      1  C   UNL d   1     -46.185  11.907  23.203  0.00  0.00     0.300 A 
ATOM      2  C   UNL d   1     -46.642  12.546  22.976  0.00  0.00     0.064 A 
ATOM      3  C   UNL d   1     -45.088  12.413  22.448  0.00  0.00     0.104 A 
ATOM      4  O   UNL d   1     -45.410  11.838  22.941  0.00  0.00    -0.273 OA
ATOM      5  C   UNL d   1     -46.324  13.121  22.484  0.00  0.00     0.007 A 
ATOM      6  C   UNL d   1     -45.545  13.059  22.216  0.00  0.00     0.023 A 
ATOM      7  C   UNL d   1     -47.878  13.254  23.013  0.00  0.00     0.105 A 
ATOM      8  C   UNL d   1     -43.985  12.913  21.694  0.00  0.00     0.107 A 
ATOM      9  C   UNL d   1     -47.414  12.613  23.238  0.00  0.00     0.018 A 
ATOM     10  C   UNL d   1     -44.308  12.342  22.185  0.00  0.00     0.038 A 
ATOM     11  C   UNL d   1     -46.781  13.767  22.253  0.00  0.00     0.001 A 
ATOM     12  C   UNL d   1     -45.223  13.634  21.723  0.00  0.00     0.003 A 
ATOM     13  O   UNL d   1     -46.499  11.324  23.698  0.00  0.00    -0.259 OA
ATOM     14  C   UNL d   1     -47.556  13.835  22.515  0.00  0.00     0.013 A 
ATOM     15  C   UNL d   1     -44.443  13.563  21.460  0.00  0.00     0.013 A 
ENDROOT
BRANCH   7  16
ATOM     16  S   UNL d   1     -48.657  13.321  23.277  0.00  0.00     0.285 S 
ATOM     17  O   UNL d   1     -48.899  14.009  23.657  0.00  0.00    -0.198 OA
ATOM     18  O   UNL d   1     -49.192  12.696  23.158  0.00  0.00    -0.198 OA
BRANCH  16  19
ATOM     19  N   UNL d   1     -49.434  13.400  23.545  0.00  0.00    -0.157 NA
BRANCH  19  20
ATOM     20  C   UNL d   1     -49.859  14.088  23.385  0.00  0.00     0.116 C 
BRANCH  20  21
ATOM     21  C   UNL d   1     -50.620  14.182  23.693  0.00  0.00     0.067 C 
BRANCH  21  22
ATOM     22  C   UNL d   1     -51.064  14.849  23.498  0.00  0.00     0.236 C 
ATOM     23  O   UNL d   1     -50.978  15.194  22.752  0.00  0.00    -0.283 OA
ENDBRANCH  21  22
ENDBRANCH  20  21
ENDBRANCH  19  20
ENDBRANCH  16  19
ENDBRANCH   7  16
BRANCH   8  24
ATOM     24  S   UNL d   1     -43.206  12.848  21.428  0.00  0.00     0.285 S 
ATOM     25  O   UNL d   1     -43.054  12.596  20.659  0.00  0.00    -0.198 OA
ATOM     26  O   UNL d   1     -42.584  13.037  21.932  0.00  0.00    -0.198 OA
BRANCH  24  27
ATOM     27  N   UNL d   1     -42.424  12.787  21.169  0.00  0.00    -0.157 NA
BRANCH  27  28
ATOM     28  C   UNL d   1     -41.849  13.295  21.467  0.00  0.00     0.116 C 
BRANCH  28  29
ATOM     29  C   UNL d   1     -41.424  13.791  20.963  0.00  0.00     0.067 C 
BRANCH  29  30
ATOM     30  C   UNL d   1     -40.633  13.966  21.115  0.00  0.00     0.236 C 
ATOM     31  O   UNL d   1     -40.374  14.750  21.107  0.00  0.00    -0.283 OA
ENDBRANCH  29  30
ENDBRANCH  28  29
ENDBRANCH  27  28
ENDBRANCH  24  27
ENDBRANCH   8  24
TORSDOF 10
ENDMDL
