MODEL 1
REMARK VINA RESULT:      43.9      0.000      0.000
REMARK  3 active torsions:
REMARK  status: ('A' for Active; 'I' for Inactive)
REMARK    1  A    between atoms: S_3  and  C_1 
REMARK    2  A    between atoms: C_7  and  N_2 
REMARK    3  A    between atoms: C_11  and  C_7 
ROOT
ATOM      1  C   UNL d   1     -55.091-101.613 -38.917  0.00  0.00     0.255 A 
ATOM      2  N   UNL d   1     -54.902-101.690 -38.134  0.00  0.00    -0.278 N 
ATOM      3  N   UNL d   1     -55.192-100.833 -39.099  0.00  0.00    -0.215 NA
ATOM      4  C   UNL d   1     -54.881-100.923 -37.802  0.00  0.00     0.084 A 
ATOM      5  C   UNL d   1     -55.062-100.389 -38.404  0.00  0.00     0.100 A 
ATOM      6  C   UNL d   1     -54.723-100.649 -37.040  0.00  0.00     0.019 A 
ATOM      7  C   UNL d   1     -55.085 -99.579 -38.245  0.00  0.00     0.021 A 
ATOM      8  C   UNL d   1     -54.746 -99.839 -36.880  0.00  0.00     0.002 A 
ATOM      9  C   UNL d   1     -54.927 -99.305 -37.483  0.00  0.00     0.002 A 
ENDROOT
BRANCH   2  10
ATOM     10  C   UNL d   1     -54.752-102.392 -37.715  0.00  0.00     0.082 C 
BRANCH  10  11
ATOM     11  C   UNL d   1     -55.154-102.553 -37.022  0.00  0.00     0.018 A 
ATOM     12  C   UNL d   1     -54.749-102.608 -36.298  0.00  0.00     0.002 A 
ATOM     13  C   UNL d   1     -55.147-102.770 -35.602  0.00  0.00     0.000 A 
ATOM     14  C   UNL d   1     -55.953-102.880 -35.609  0.00  0.00     0.000 A 
ATOM     15  C   UNL d   1     -56.364-102.825 -36.333  0.00  0.00     0.000 A 
ATOM     16  C   UNL d   1     -55.961-102.664 -37.027  0.00  0.00     0.002 A 
ENDBRANCH  10  11
ENDBRANCH   2  10
BRANCH   1  17
ATOM     17  S   UNL d   1     -55.169-102.238 -39.449  0.00  0.00     0.174 S 
ATOM     18  O   UNL d   1     -55.611-102.657 -38.892  0.00  0.00    -0.589 OA
ATOM     19  O   UNL d   1     -55.247-102.864 -39.981  0.00  0.00    -0.589 OA
ATOM     20  O   UNL d   1     -54.726-101.820 -40.006  0.00  0.00    -0.589 OA
ENDBRANCH   1  17
TORSDOF 3
ENDMDL
