MODEL 1
REMARK VINA RESULT:      50.8      0.000      0.000
REMARK  2 active torsions:
REMARK  status: ('A' for Active; 'I' for Inactive)
REMARK    1  A    between atoms: C_9  and  C_3 
REMARK    2  A    between atoms: C_12  and  N_4 
ROOT
ATOM      1  C   UNL d   1      59.766  49.352  50.973  0.00  0.00     0.035 A 
ATOM      2  C   UNL d   1      59.100  49.473  50.502  0.00  0.00     0.065 A 
ATOM      3  C   UNL d   1      59.514  49.225  51.742  0.00  0.00     0.166 A 
ATOM      4  N   UNL d   1      58.438  49.419  50.987  0.00  0.00    -0.233 N 
ATOM      5  N   UNL d   1      58.695  49.266  51.752  0.00  0.00    -0.159 NA
ATOM      6  C   UNL d   1      59.546  49.555  49.924  0.00  0.00     0.057 A 
ATOM      7  C   UNL d   1      60.286  49.436  50.364  0.00  0.00    -0.020 A 
ATOM      8  C   UNL d   1      61.047  49.409  50.293  0.00  0.00     0.027 A 
ATOM      9  C   UNL d   1      59.389  49.703  49.156  0.00  0.00    -0.021 A 
ATOM     10  C   UNL d   1      60.013  49.594  49.575  0.00  0.00    -0.008 A 
ATOM     11  C   UNL d   1      58.867  49.644  49.629  0.00  0.00     0.011 C 
ATOM     12  C   UNL d   1      61.487  49.279  50.884  0.00  0.00     0.005 C 
ATOM     13  C   UNL d   1      61.658  49.457  49.860  0.00  0.00     0.005 C 
ENDROOT
BRANCH   4  14
ATOM     14  C   UNL d   1      57.635  49.505  50.741  0.00  0.00     0.083 A 
ATOM     15  C   UNL d   1      57.460  49.620  49.917  0.00  0.00     0.019 A 
ATOM     16  C   UNL d   1      56.660  49.706  49.676  0.00  0.00     0.002 A 
ATOM     17  C   UNL d   1      56.040  49.679  50.242  0.00  0.00     0.000 A 
ATOM     18  C   UNL d   1      56.221  49.564  51.066  0.00  0.00     0.002 A 
ATOM     19  C   UNL d   1      57.021  49.479  51.303  0.00  0.00     0.019 A 
ENDBRANCH   4  14
BRANCH   3  20
ATOM     20  C   UNL d   1      60.011  49.078  52.404  0.00  0.00     0.231 C 
ATOM     21  O   UNL d   1      60.374  48.321  52.512  0.00  0.00    -0.643 OA
ATOM     22  O   UNL d   1      60.148  49.696  52.966  0.00  0.00    -0.643 OA
ENDBRANCH   3  20
TORSDOF 2
ENDMDL
