MODEL 1
REMARK VINA RESULT:      -6.2      0.000      0.000
REMARK  11 active torsions:
REMARK  status: ('A' for Active; 'I' for Inactive)
REMARK    1  A    between atoms: C_7  and  C_1 
REMARK    2  A    between atoms: C_8  and  C_2 
REMARK    3  A    between atoms: S_9  and  C_3 
REMARK    4  A    between atoms: C_11  and  C_4 
REMARK    5  A    between atoms: O_20  and  C_7 
REMARK    6  A    between atoms: C_15  and  S_9 
REMARK    7  A    between atoms: C_12  and  C_15 
REMARK    8  A    between atoms: O_24  and  C_12 
REMARK    9  A    between atoms: C_18  and  C_26 
REMARK   10  A    between atoms: C_26  and  O_20 
REMARK   11  A    between atoms: C_27  and  O_24 
ROOT
ATOM      1  C   UNL d   1     -47.897  13.859  22.565  0.00  0.00     0.081 A 
ATOM      2  C   UNL d   1     -47.193  12.628  22.788  0.00  0.00     0.045 A 
ATOM      3  C   UNL d   1     -46.457  13.041  22.679  0.00  0.00     0.112 A 
ATOM      4  C   UNL d   1     -47.901  13.050  22.728  0.00  0.00     0.010 A 
ATOM      5  C   UNL d   1     -47.181  14.261  22.460  0.00  0.00     0.087 A 
ATOM      6  N   UNL d   1     -46.473  13.852  22.517  0.00  0.00    -0.239 NA
ATOM      7  C   UNL d   1     -47.151  15.072  22.296  0.00  0.00     0.021 C 
ENDROOT
BRANCH   3   8
ATOM      8  S   UNL d   1     -45.699  12.654  22.731  0.00  0.00    -0.062 SA
BRANCH   8   9
ATOM      9  C   UNL d   1     -45.165  12.759  22.119  0.00  0.00     0.105 C 
BRANCH   9  10
ATOM     10  C   UNL d   1     -44.389  12.482  22.214  0.00  0.00     0.307 C 
ATOM     11  O   UNL d   1     -44.255  11.699  22.414  0.00  0.00    -0.258 OA
BRANCH  10  12
ATOM     12  O   UNL d   1     -43.765  12.992  22.106  0.00  0.00    -0.271 OA
BRANCH  12  13
ATOM     13  C   UNL d   1     -43.527  13.189  21.345  0.00  0.00     0.126 C 
ATOM     14  C   UNL d   1     -42.731  13.148  21.147  0.00  0.00     0.029 C 
ENDBRANCH  12  13
ENDBRANCH  10  12
ENDBRANCH   9  10
ENDBRANCH   8   9
ENDBRANCH   3   8
BRANCH   2  15
ATOM     15  C   UNL d   1     -47.223  11.799  22.955  0.00  0.00     0.124 C 
ATOM     16  N   UNL d   1     -46.741  11.485  23.530  0.00  0.00    -0.146 N 
ENDBRANCH   2  15
BRANCH   4  17
ATOM     17  C   UNL d   1     -48.613  12.651  22.832  0.00  0.00     0.000 A 
ATOM     18  C   UNL d   1     -49.043  12.416  22.166  0.00  0.00     0.000 A 
ATOM     19  C   UNL d   1     -49.753  12.018  22.243  0.00  0.00     0.000 A 
ATOM     20  C   UNL d   1     -50.051  11.843  23.044  0.00  0.00     0.000 A 
ATOM     21  C   UNL d   1     -49.609  12.085  23.697  0.00  0.00     0.000 A 
ATOM     22  C   UNL d   1     -50.762  11.444  23.160  0.00  0.00     0.000 C 
ATOM     23  C   UNL d   1     -48.893  12.487  23.592  0.00  0.00     0.000 A 
ENDBRANCH   4  17
BRANCH   1  24
ATOM     24  C   UNL d   1     -48.640  14.274  22.508  0.00  0.00     0.302 C 
ATOM     25  O   UNL d   1     -49.106  14.206  21.833  0.00  0.00    -0.259 OA
BRANCH  24  26
ATOM     26  O   UNL d   1     -48.879  14.738  23.135  0.00  0.00    -0.271 OA
BRANCH  26  27
ATOM     27  C   UNL d   1     -49.448  15.331  23.030  0.00  0.00     0.126 C 
BRANCH  27  28
ATOM     28  C   UNL d   1     -49.765  15.723  23.677  0.00  0.00     0.027 C 
ATOM     29  C   UNL d   1     -50.563  15.922  23.697  0.00  0.00     0.002 C 
ENDBRANCH  27  28
ENDBRANCH  26  27
ENDBRANCH  24  26
ENDBRANCH   1  24
TORSDOF 11
ENDMDL
MODEL 2
REMARK VINA RESULT:      -5.1      0.875      2.425
REMARK  11 active torsions:
REMARK  status: ('A' for Active; 'I' for Inactive)
REMARK    1  A    between atoms: C_7  and  C_1 
REMARK    2  A    between atoms: C_8  and  C_2 
REMARK    3  A    between atoms: S_9  and  C_3 
REMARK    4  A    between atoms: C_11  and  C_4 
REMARK    5  A    between atoms: O_20  and  C_7 
REMARK    6  A    between atoms: C_15  and  S_9 
REMARK    7  A    between atoms: C_12  and  C_15 
REMARK    8  A    between atoms: O_24  and  C_12 
REMARK    9  A    between atoms: C_18  and  C_26 
REMARK   10  A    between atoms: C_26  and  O_20 
REMARK   11  A    between atoms: C_27  and  O_24 
ROOT
ATOM      1  C   UNL d   1     -47.844  12.650  22.845  0.00  0.00     0.081 A 
ATOM      2  C   UNL d   1     -46.783  13.607  22.714  0.00  0.00     0.045 A 
ATOM      3  C   UNL d   1     -46.227  12.966  22.653  0.00  0.00     0.112 A 
ATOM      4  C   UNL d   1     -47.585  13.432  22.810  0.00  0.00     0.010 A 
ATOM      5  C   UNL d   1     -47.303  12.026  22.786  0.00  0.00     0.087 A 
ATOM      6  N   UNL d   1     -46.505  12.189  22.691  0.00  0.00    -0.239 NA
ATOM      7  C   UNL d   1     -47.539  11.234  22.819  0.00  0.00     0.021 C 
ENDROOT
BRANCH   3   8
ATOM      8  S   UNL d   1     -45.389  13.091  22.553  0.00  0.00    -0.062 SA
BRANCH   8   9
ATOM      9  C   UNL d   1     -44.991  12.644  21.994  0.00  0.00     0.105 C 
BRANCH   9  10
ATOM     10  C   UNL d   1     -44.175  12.531  22.080  0.00  0.00     0.307 C 
ATOM     11  O   UNL d   1     -43.892  11.900  22.518  0.00  0.00    -0.258 OA
BRANCH  10  12
ATOM     12  O   UNL d   1     -43.658  13.050  21.726  0.00  0.00    -0.271 OA
BRANCH  12  13
ATOM     13  C   UNL d   1     -42.980  12.763  21.360  0.00  0.00     0.126 C 
ATOM     14  C   UNL d   1     -42.422  13.293  21.072  0.00  0.00     0.029 C 
ENDBRANCH  12  13
ENDBRANCH  10  12
ENDBRANCH   9  10
ENDBRANCH   8   9
ENDBRANCH   3   8
BRANCH   2  15
ATOM     15  C   UNL d   1     -46.542  14.418  22.680  0.00  0.00     0.124 C 
ATOM     16  N   UNL d   1     -45.878  14.659  23.084  0.00  0.00    -0.146 N 
ENDBRANCH   2  15
BRANCH   4  17
ATOM     17  C   UNL d   1     -48.124  14.052  22.869  0.00  0.00     0.000 A 
ATOM     18  C   UNL d   1     -48.330  14.471  22.186  0.00  0.00     0.000 A 
ATOM     19  C   UNL d   1     -48.862  15.090  22.217  0.00  0.00     0.000 A 
ATOM     20  C   UNL d   1     -49.212  15.304  22.988  0.00  0.00     0.000 A 
ATOM     21  C   UNL d   1     -48.994  14.875  23.659  0.00  0.00     0.000 A 
ATOM     22  C   UNL d   1     -49.751  15.922  23.058  0.00  0.00     0.000 C 
ATOM     23  C   UNL d   1     -48.452  14.252  23.599  0.00  0.00     0.000 A 
ENDBRANCH   4  17
BRANCH   1  24
ATOM     24  C   UNL d   1     -48.677  12.494  22.945  0.00  0.00     0.302 C 
ATOM     25  O   UNL d   1     -49.024  12.528  23.690  0.00  0.00    -0.259 OA
BRANCH  24  26
ATOM     26  O   UNL d   1     -49.122  12.310  22.286  0.00  0.00    -0.271 OA
BRANCH  26  27
ATOM     27  C   UNL d   1     -49.874  11.971  22.364  0.00  0.00     0.126 C 
BRANCH  27  28
ATOM     28  C   UNL d   1     -50.405  11.986  21.739  0.00  0.00     0.027 C 
ATOM     29  C   UNL d   1     -51.064  12.477  21.761  0.00  0.00     0.002 C 
ENDBRANCH  27  28
ENDBRANCH  26  27
ENDBRANCH  24  26
ENDBRANCH   1  24
TORSDOF 11
ENDMDL
