MODEL 1
REMARK VINA RESULT:      -5.2      0.000      0.000
REMARK  5 active torsions:
REMARK  status: ('A' for Active; 'I' for Inactive)
REMARK    1  A    between atoms: C_6  and  C_1 
REMARK       I    between atoms: C_7  and  N_8 
REMARK    2  A    between atoms: C_16  and  C_7 
REMARK    3  A    between atoms: N_8  and  C_14 
REMARK    4  A    between atoms: O_15  and  C_16 
REMARK    5  A    between atoms: C_21  and  O_15 
ROOT
ATOM      1  C   UNL d   1     -45.582  12.477  22.416  0.00  0.00     0.024 A 
ATOM      2  C   UNL d   1     -45.425  12.981  21.785  0.00  0.00     0.004 A 
ATOM      3  C   UNL d   1     -45.014  12.033  22.776  0.00  0.00     0.004 A 
ATOM      4  C   UNL d   1     -44.038  12.582  21.863  0.00  0.00     0.085 A 
ATOM      5  C   UNL d   1     -44.215  12.075  22.504  0.00  0.00     0.019 A 
ATOM      6  C   UNL d   1     -44.627  13.023  21.513  0.00  0.00     0.019 A 
ENDROOT
BRANCH   4   7
ATOM      7  N   UNL d   1     -43.205  12.625  21.580  0.00  0.00    -0.206 NA
ATOM      8  C   UNL d   1     -42.874  13.395  21.448  0.00  0.00     0.304 C 
ATOM      9  O   UNL d   1     -43.286  14.089  21.569  0.00  0.00    -0.263 OA
BRANCH   8  10
ATOM     10  C   UNL d   1     -42.082  13.436  21.179  0.00  0.00     0.185 C 
BRANCH  10  11
ATOM     11  O   UNL d   1     -41.745  14.170  21.042  0.00  0.00    -0.300 OA
BRANCH  11  12
ATOM     12  C   UNL d   1     -40.950  14.211  20.770  0.00  0.00     0.100 A 
ATOM     13  C   UNL d   1     -40.782  14.400  19.986  0.00  0.00     0.025 A 
ATOM     14  C   UNL d   1     -40.013  14.440  19.723  0.00  0.00     0.002 A 
ATOM     15  C   UNL d   1     -39.395  14.292  20.239  0.00  0.00     0.000 A 
ATOM     16  C   UNL d   1     -39.551  14.103  21.026  0.00  0.00     0.002 A 
ATOM     17  C   UNL d   1     -40.319  14.062  21.289  0.00  0.00     0.025 A 
ENDBRANCH  11  12
ENDBRANCH  10  11
ENDBRANCH   8  10
ENDBRANCH   4   7
BRANCH   1  18
ATOM     18  C   UNL d   1     -46.372  12.436  22.685  0.00  0.00     0.111 A 
ATOM     19  N   UNL d   1     -46.697  11.815  23.084  0.00  0.00    -0.239 NA
ATOM     20  C   UNL d   1     -47.470  11.990  23.243  0.00  0.00     0.088 A 
ATOM     21  C   UNL d   1     -48.077  11.589  23.626  0.00  0.00     0.020 A 
ATOM     22  C   UNL d   1     -47.619  12.758  22.923  0.00  0.00     0.049 A 
ATOM     23  C   UNL d   1     -48.808  11.920  23.698  0.00  0.00     0.002 A 
ATOM     24  C   UNL d   1     -48.957  12.688  23.378  0.00  0.00     0.001 A 
ATOM     25  C   UNL d   1     -48.371  13.106  22.994  0.00  0.00     0.008 A 
ATOM     26  C   UNL d   1     -49.709  13.036  23.448  0.00  0.00     0.000 C 
ATOM     27  S   UNL d   1     -46.932  13.027  22.579  0.00  0.00    -0.066 SA
ENDBRANCH   1  18
TORSDOF 5
ENDMDL
MODEL 2
REMARK VINA RESULT:      -4.6      2.219      7.413
REMARK  5 active torsions:
REMARK  status: ('A' for Active; 'I' for Inactive)
REMARK    1  A    between atoms: C_6  and  C_1 
REMARK       I    between atoms: C_7  and  N_8 
REMARK    2  A    between atoms: C_16  and  C_7 
REMARK    3  A    between atoms: N_8  and  C_14 
REMARK    4  A    between atoms: O_15  and  C_16 
REMARK    5  A    between atoms: C_21  and  O_15 
ROOT
ATOM      1  C   UNL d   1     -40.802  14.444  20.324  0.00  0.00     0.024 A 
ATOM      2  C   UNL d   1     -40.814  13.648  20.535  0.00  0.00     0.004 A 
ATOM      3  C   UNL d   1     -41.372  14.966  20.550  0.00  0.00     0.004 A 
ATOM      4  C   UNL d   1     -42.047  13.896  21.248  0.00  0.00     0.085 A 
ATOM      5  C   UNL d   1     -42.019  14.701  21.024  0.00  0.00     0.019 A 
ATOM      6  C   UNL d   1     -41.460  13.384  21.009  0.00  0.00     0.019 A 
ENDROOT
BRANCH   4   7
ATOM      7  N   UNL d   1     -42.721  13.620  21.742  0.00  0.00    -0.206 NA
ATOM      8  C   UNL d   1     -43.295  13.113  21.378  0.00  0.00     0.304 C 
ATOM      9  O   UNL d   1     -43.253  12.871  20.599  0.00  0.00    -0.263 OA
BRANCH   8  10
ATOM     10  C   UNL d   1     -43.936  12.851  21.848  0.00  0.00     0.185 C 
BRANCH  10  11
ATOM     11  O   UNL d   1     -44.700  13.027  21.615  0.00  0.00    -0.300 OA
BRANCH  11  12
ATOM     12  C   UNL d   1     -45.316  13.020  22.188  0.00  0.00     0.100 A 
ATOM     13  C   UNL d   1     -45.509  12.328  22.592  0.00  0.00     0.025 A 
ATOM     14  C   UNL d   1     -46.103  12.321  23.146  0.00  0.00     0.002 A 
ATOM     15  C   UNL d   1     -46.520  13.006  23.310  0.00  0.00     0.000 A 
ATOM     16  C   UNL d   1     -46.336  13.705  22.913  0.00  0.00     0.002 A 
ATOM     17  C   UNL d   1     -45.741  13.712  22.359  0.00  0.00     0.025 A 
ENDBRANCH  11  12
ENDBRANCH  10  11
ENDBRANCH   8  10
ENDBRANCH   4   7
BRANCH   1  18
ATOM     18  C   UNL d   1     -40.162  14.706  19.855  0.00  0.00     0.111 A 
ATOM     19  N   UNL d   1     -39.510  15.091  20.130  0.00  0.00    -0.239 NA
ATOM     20  C   UNL d   1     -39.023  15.248  19.503  0.00  0.00     0.088 A 
ATOM     21  C   UNL d   1     -38.293  15.619  19.430  0.00  0.00     0.020 A 
ATOM     22  C   UNL d   1     -39.403  14.941  18.814  0.00  0.00     0.049 A 
ATOM     23  C   UNL d   1     -37.940  15.691  18.708  0.00  0.00     0.002 A 
ATOM     24  C   UNL d   1     -38.320  15.384  18.019  0.00  0.00     0.001 A 
ATOM     25  C   UNL d   1     -39.045  15.012  18.067  0.00  0.00     0.008 A 
ATOM     26  C   UNL d   1     -37.961  15.455  17.272  0.00  0.00     0.000 C 
ATOM     27  S   UNL d   1     -40.110  14.606  19.042  0.00  0.00    -0.066 SA
ENDBRANCH   1  18
TORSDOF 5
ENDMDL
MODEL 3
REMARK VINA RESULT:      -4.6      1.696      6.897
REMARK  5 active torsions:
REMARK  status: ('A' for Active; 'I' for Inactive)
REMARK    1  A    between atoms: C_6  and  C_1 
REMARK       I    between atoms: C_7  and  N_8 
REMARK    2  A    between atoms: C_16  and  C_7 
REMARK    3  A    between atoms: N_8  and  C_14 
REMARK    4  A    between atoms: O_15  and  C_16 
REMARK    5  A    between atoms: C_21  and  O_15 
ROOT
ATOM      1  C   UNL d   1     -42.060  13.572  20.940  0.00  0.00     0.024 A 
ATOM      2  C   UNL d   1     -42.803  13.817  20.683  0.00  0.00     0.004 A 
ATOM      3  C   UNL d   1     -41.953  12.973  21.466  0.00  0.00     0.004 A 
ATOM      4  C   UNL d   1     -43.386  12.800  21.530  0.00  0.00     0.085 A 
ATOM      5  C   UNL d   1     -42.623  12.565  21.780  0.00  0.00     0.019 A 
ATOM      6  C   UNL d   1     -43.473  13.409  20.996  0.00  0.00     0.019 A 
ENDROOT
BRANCH   4   7
ATOM      7  N   UNL d   1     -44.084  12.375  21.856  0.00  0.00    -0.206 NA
ATOM      8  C   UNL d   1     -44.721  12.842  22.164  0.00  0.00     0.304 C 
ATOM      9  O   UNL d   1     -44.717  13.659  22.172  0.00  0.00    -0.263 OA
BRANCH   8  10
ATOM     10  C   UNL d   1     -45.385  12.438  22.474  0.00  0.00     0.185 C 
BRANCH  10  11
ATOM     11  O   UNL d   1     -45.892  12.834  22.981  0.00  0.00    -0.300 OA
BRANCH  11  12
ATOM     12  C   UNL d   1     -46.629  12.482  23.181  0.00  0.00     0.100 A 
ATOM     13  C   UNL d   1     -47.335  12.896  23.084  0.00  0.00     0.025 A 
ATOM     14  C   UNL d   1     -48.047  12.555  23.278  0.00  0.00     0.002 A 
ATOM     15  C   UNL d   1     -48.071  11.792  23.573  0.00  0.00     0.000 A 
ATOM     16  C   UNL d   1     -47.371  11.367  23.675  0.00  0.00     0.002 A 
ATOM     17  C   UNL d   1     -46.659  11.708  23.481  0.00  0.00     0.025 A 
ENDBRANCH  11  12
ENDBRANCH  10  11
ENDBRANCH   8  10
ENDBRANCH   4   7
BRANCH   1  18
ATOM     18  C   UNL d   1     -41.397  13.976  20.630  0.00  0.00     0.111 A 
ATOM     19  N   UNL d   1     -41.155  13.953  19.861  0.00  0.00    -0.239 NA
ATOM     20  C   UNL d   1     -40.495  14.415  19.787  0.00  0.00     0.088 A 
ATOM     21  C   UNL d   1     -40.005  14.609  19.157  0.00  0.00     0.020 A 
ATOM     22  C   UNL d   1     -40.331  14.734  20.553  0.00  0.00     0.049 A 
ATOM     23  C   UNL d   1     -39.373  15.098  19.263  0.00  0.00     0.002 A 
ATOM     24  C   UNL d   1     -39.209  15.417  20.028  0.00  0.00     0.001 A 
ATOM     25  C   UNL d   1     -39.682  15.238  20.669  0.00  0.00     0.008 A 
ATOM     26  C   UNL d   1     -38.559  15.921  20.145  0.00  0.00     0.000 C 
ATOM     27  S   UNL d   1     -40.896  14.456  21.070  0.00  0.00    -0.066 SA
ENDBRANCH   1  18
TORSDOF 5
ENDMDL
