MODEL 1
REMARK VINA RESULT:      -5.2      0.000      0.000
REMARK  3 active torsions:
REMARK  status: ('A' for Active; 'I' for Inactive)
REMARK    1  A    between atoms: N_7  and  C_3 
REMARK       I    between atoms: C_8  and  N_7 
REMARK    2  A    between atoms: C_14  and  C_8 
REMARK    3  A    between atoms: C_15  and  C_14 
ROOT
ATOM      1  C   UNL d   1     -41.185-123.072 -51.560  0.00  0.00     0.343 A 
ATOM      2  N   UNL d   1     -41.185-123.091 -52.377  0.00  0.00    -0.241 N 
ATOM      3  C   UNL d   1     -41.164-122.391 -52.807  0.00  0.00     0.159 A 
ATOM      4  N   UNL d   1     -41.165-122.349 -51.164  0.00  0.00    -0.224 N 
ATOM      5  C   UNL d   1     -41.143-121.668 -52.411  0.00  0.00     0.099 A 
ATOM      6  C   UNL d   1     -41.143-121.637 -51.582  0.00  0.00     0.271 A 
ATOM      7  O   UNL d   1     -41.207-123.777 -51.129  0.00  0.00    -0.245 OA
ATOM      8  O   UNL d   1     -41.123-120.920 -51.190  0.00  0.00    -0.266 OA
ATOM      9  C   UNL d   1     -41.206-123.815 -52.772  0.00  0.00     0.105 C 
ATOM     10  C   UNL d   1     -41.165-122.330 -50.338  0.00  0.00     0.107 C 
ENDROOT
BRANCH   3  11
ATOM     11  N   UNL d   1     -41.163-122.409 -53.633  0.00  0.00    -0.190 NA
ATOM     12  C   UNL d   1     -41.791-122.082 -54.053  0.00  0.00     0.281 C 
ATOM     13  O   UNL d   1     -42.421-121.735 -53.650  0.00  0.00    -0.265 OA
BRANCH  12  14
ATOM     14  C   UNL d   1     -41.789-122.100 -54.876  0.00  0.00     0.063 C 
BRANCH  14  15
ATOM     15  C   UNL d   1     -42.483-121.933 -55.290  0.00  0.00     0.005 C 
ATOM     16  C   UNL d   1     -42.495-121.913 -56.098  0.00  0.00     0.000 C 
ENDBRANCH  14  15
ENDBRANCH  12  14
ENDBRANCH   3  11
TORSDOF 3
ENDMDL
MODEL 2
REMARK VINA RESULT:      -4.6      1.098      3.409
REMARK  3 active torsions:
REMARK  status: ('A' for Active; 'I' for Inactive)
REMARK    1  A    between atoms: N_7  and  C_3 
REMARK       I    between atoms: C_8  and  N_7 
REMARK    2  A    between atoms: C_14  and  C_8 
REMARK    3  A    between atoms: C_15  and  C_14 
ROOT
ATOM      1  C   UNL d   1     -41.805-122.928 -54.719  0.00  0.00     0.343 A 
ATOM      2  N   UNL d   1     -41.467-123.080 -53.991  0.00  0.00    -0.241 N 
ATOM      3  C   UNL d   1     -41.466-122.503 -53.406  0.00  0.00     0.159 A 
ATOM      4  N   UNL d   1     -42.148-122.193 -54.868  0.00  0.00    -0.224 N 
ATOM      5  C   UNL d   1     -41.809-121.768 -53.555  0.00  0.00     0.099 A 
ATOM      6  C   UNL d   1     -42.156-121.602 -54.291  0.00  0.00     0.271 A 
ATOM      7  O   UNL d   1     -41.805-123.509 -55.306  0.00  0.00    -0.245 OA
ATOM      8  O   UNL d   1     -42.496-120.874 -54.438  0.00  0.00    -0.266 OA
ATOM      9  C   UNL d   1     -41.123-123.815 -53.841  0.00  0.00     0.105 C 
ATOM     10  C   UNL d   1     -42.491-122.039 -55.604  0.00  0.00     0.107 C 
ENDROOT
BRANCH   3  11
ATOM     11  N   UNL d   1     -41.123-122.656 -52.669  0.00  0.00    -0.190 NA
ATOM     12  C   UNL d   1     -41.515-122.438 -51.979  0.00  0.00     0.281 C 
ATOM     13  O   UNL d   1     -42.250-122.066 -52.021  0.00  0.00    -0.265 OA
BRANCH  12  14
ATOM     14  C   UNL d   1     -41.172-122.591 -51.246  0.00  0.00     0.063 C 
BRANCH  14  15
ATOM     15  C   UNL d   1     -41.655-122.739 -50.593  0.00  0.00     0.005 C 
ATOM     16  C   UNL d   1     -41.345-122.996 -49.892  0.00  0.00     0.000 C 
ENDBRANCH  14  15
ENDBRANCH  12  14
ENDBRANCH   3  11
TORSDOF 3
ENDMDL
MODEL 3
REMARK VINA RESULT:      -3.9      1.433      3.987
REMARK  3 active torsions:
REMARK  status: ('A' for Active; 'I' for Inactive)
REMARK    1  A    between atoms: N_7  and  C_3 
REMARK       I    between atoms: C_8  and  N_7 
REMARK    2  A    between atoms: C_14  and  C_8 
REMARK    3  A    between atoms: C_15  and  C_14 
ROOT
ATOM      1  C   UNL d   1     -41.161-121.791 -52.067  0.00  0.00     0.343 A 
ATOM      2  N   UNL d   1     -41.184-121.946 -51.265  0.00  0.00    -0.241 N 
ATOM      3  C   UNL d   1     -41.191-122.721 -50.993  0.00  0.00     0.159 A 
ATOM      4  N   UNL d   1     -41.146-122.415 -52.607  0.00  0.00    -0.224 N 
ATOM      5  C   UNL d   1     -41.176-123.345 -51.533  0.00  0.00     0.099 A 
ATOM      6  C   UNL d   1     -41.152-123.200 -52.350  0.00  0.00     0.271 A 
ATOM      7  O   UNL d   1     -41.154-121.011 -52.339  0.00  0.00    -0.245 OA
ATOM      8  O   UNL d   1     -41.137-123.817 -52.884  0.00  0.00    -0.266 OA
ATOM      9  C   UNL d   1     -41.200-121.322 -50.726  0.00  0.00     0.105 C 
ATOM     10  C   UNL d   1     -41.123-122.259 -53.418  0.00  0.00     0.107 C 
ENDROOT
BRANCH   3  11
ATOM     11  N   UNL d   1     -41.214-122.879 -50.182  0.00  0.00    -0.190 NA
ATOM     12  C   UNL d   1     -41.857-123.278 -49.858  0.00  0.00     0.281 C 
ATOM     13  O   UNL d   1     -42.479-123.521 -50.342  0.00  0.00    -0.265 OA
BRANCH  12  14
ATOM     14  C   UNL d   1     -41.878-123.434 -49.049  0.00  0.00     0.063 C 
BRANCH  14  15
ATOM     15  C   UNL d   1     -42.537-123.808 -48.723  0.00  0.00     0.005 C 
ATOM     16  C   UNL d   1     -42.728-123.717 -47.944  0.00  0.00     0.000 C 
ENDBRANCH  14  15
ENDBRANCH  12  14
ENDBRANCH   3  11
TORSDOF 3
ENDMDL
MODEL 4
REMARK VINA RESULT:      -3.0      1.645      3.853
REMARK  3 active torsions:
REMARK  status: ('A' for Active; 'I' for Inactive)
REMARK    1  A    between atoms: N_7  and  C_3 
REMARK       I    between atoms: C_8  and  N_7 
REMARK    2  A    between atoms: C_14  and  C_8 
REMARK    3  A    between atoms: C_15  and  C_14 
ROOT
ATOM      1  C   UNL d   1     -41.328-122.549 -52.199  0.00  0.00     0.343 A 
ATOM      2  N   UNL d   1     -41.386-122.998 -51.519  0.00  0.00    -0.241 N 
ATOM      3  C   UNL d   1     -41.357-122.638 -50.781  0.00  0.00     0.159 A 
ATOM      4  N   UNL d   1     -41.240-121.730 -52.146  0.00  0.00    -0.224 N 
ATOM      5  C   UNL d   1     -41.269-121.819 -50.728  0.00  0.00     0.099 A 
ATOM      6  C   UNL d   1     -41.210-121.353 -51.412  0.00  0.00     0.271 A 
ATOM      7  O   UNL d   1     -41.357-122.913 -52.940  0.00  0.00    -0.245 OA
ATOM      8  O   UNL d   1     -41.123-120.542 -51.359  0.00  0.00    -0.266 OA
ATOM      9  C   UNL d   1     -41.474-123.817 -51.572  0.00  0.00     0.105 C 
ATOM     10  C   UNL d   1     -41.182-121.276 -52.834  0.00  0.00     0.107 C 
ENDROOT
BRANCH   3  11
ATOM     11  N   UNL d   1     -41.416-123.091 -50.092  0.00  0.00    -0.190 NA
ATOM     12  C   UNL d   1     -42.003-122.927 -49.539  0.00  0.00     0.281 C 
ATOM     13  O   UNL d   1     -42.533-122.310 -49.671  0.00  0.00    -0.265 OA
BRANCH  12  14
ATOM     14  C   UNL d   1     -42.059-123.380 -48.854  0.00  0.00     0.063 C 
BRANCH  14  15
ATOM     15  C   UNL d   1     -42.594-123.163 -48.265  0.00  0.00     0.005 C 
ATOM     16  C   UNL d   1     -42.690-123.611 -47.599  0.00  0.00     0.000 C 
ENDBRANCH  14  15
ENDBRANCH  12  14
ENDBRANCH   3  11
TORSDOF 3
ENDMDL
MODEL 5
REMARK VINA RESULT:      -2.5      1.453      1.888
REMARK  3 active torsions:
REMARK  status: ('A' for Active; 'I' for Inactive)
REMARK    1  A    between atoms: N_7  and  C_3 
REMARK       I    between atoms: C_8  and  N_7 
REMARK    2  A    between atoms: C_14  and  C_8 
REMARK    3  A    between atoms: C_15  and  C_14 
ROOT
ATOM      1  C   UNL d   1     -42.202-123.248 -50.034  0.00  0.00     0.343 A 
ATOM      2  N   UNL d   1     -41.723-123.254 -50.696  0.00  0.00    -0.241 N 
ATOM      3  C   UNL d   1     -41.837-122.702 -51.294  0.00  0.00     0.159 A 
ATOM      4  N   UNL d   1     -42.803-122.687 -49.965  0.00  0.00    -0.224 N 
ATOM      5  C   UNL d   1     -42.438-122.141 -51.225  0.00  0.00     0.099 A 
ATOM      6  C   UNL d   1     -42.930-122.126 -50.557  0.00  0.00     0.271 A 
ATOM      7  O   UNL d   1     -42.086-123.804 -49.434  0.00  0.00    -0.245 OA
ATOM      8  O   UNL d   1     -43.525-121.570 -50.488  0.00  0.00    -0.266 OA
ATOM      9  C   UNL d   1     -41.123-123.815 -50.766  0.00  0.00     0.105 C 
ATOM     10  C   UNL d   1     -43.287-122.681 -49.295  0.00  0.00     0.107 C 
ENDROOT
BRANCH   3  11
ATOM     11  N   UNL d   1     -41.353-122.707 -51.965  0.00  0.00    -0.190 NA
ATOM     12  C   UNL d   1     -41.664-122.504 -52.699  0.00  0.00     0.281 C 
ATOM     13  O   UNL d   1     -42.459-122.295 -52.767  0.00  0.00    -0.265 OA
BRANCH  12  14
ATOM     14  C   UNL d   1     -41.181-122.509 -53.365  0.00  0.00     0.063 C 
BRANCH  14  15
ATOM     15  C   UNL d   1     -41.514-122.399 -54.112  0.00  0.00     0.005 C 
ATOM     16  C   UNL d   1     -41.292-122.853 -54.742  0.00  0.00     0.000 C 
ENDBRANCH  14  15
ENDBRANCH  12  14
ENDBRANCH   3  11
TORSDOF 3
ENDMDL
