MODEL 1
REMARK VINA RESULT:      -9.4      0.000      0.000
REMARK  2 active torsions:
REMARK  status: ('A' for Active; 'I' for Inactive)
REMARK    1  A    between atoms: N_2  and  S_1 
REMARK    2  A    between atoms: C_3  and  S_1 
ROOT
ATOM      1  N   UNL d   1      53.461  32.063  53.601  0.00  0.00    -0.231 N 
ATOM      2  C   UNL d   1      53.367  31.239  53.566  0.00  0.00     0.075 A 
ATOM      3  C   UNL d   1      52.903  32.382  53.053  0.00  0.00     0.092 A 
ATOM      4  C   UNL d   1      52.757  31.073  53.002  0.00  0.00     0.018 A 
ATOM      5  C   UNL d   1      52.494  31.795  52.706  0.00  0.00     0.021 A 
ATOM      6  C   UNL d   1      53.729  30.620  53.949  0.00  0.00     0.018 A 
ATOM      7  C   UNL d   1      52.542  30.304  52.849  0.00  0.00     0.002 A 
ATOM      8  C   UNL d   1      53.514  29.838  53.797  0.00  0.00     0.002 A 
ATOM      9  C   UNL d   1      52.915  29.683  53.242  0.00  0.00     0.000 A 
ENDROOT
BRANCH   1  10
ATOM     10  S   UNL d   1      53.952  32.553  54.032  0.00  0.00     0.277 S 
ATOM     11  O   UNL d   1      53.382  32.598  54.652  0.00  0.00    -0.199 OA
ATOM     12  O   UNL d   1      54.540  32.523  53.422  0.00  0.00    -0.199 OA
BRANCH  10  13
ATOM     13  C   UNL d   1      54.436  33.046  54.476  0.00  0.00     0.133 A 
ATOM     14  S   UNL d   1      54.332  33.284  55.276  0.00  0.00    -0.074 SA
ATOM     15  C   UNL d   1      54.949  33.775  55.485  0.00  0.00     0.036 A 
ATOM     16  C   UNL d   1      55.463  33.873  54.851  0.00  0.00     0.008 A 
ATOM     17  C   UNL d   1      55.148  33.423  54.226  0.00  0.00     0.020 A 
ENDBRANCH  10  13
ENDBRANCH   1  10
TORSDOF 2
ENDMDL
MODEL 2
REMARK VINA RESULT:      -9.1      1.805      2.748
REMARK  2 active torsions:
REMARK  status: ('A' for Active; 'I' for Inactive)
REMARK    1  A    between atoms: N_2  and  S_1 
REMARK    2  A    between atoms: C_3  and  S_1 
ROOT
ATOM      1  N   UNL d   1      52.856  32.576  53.298  0.00  0.00    -0.231 N 
ATOM      2  C   UNL d   1      52.964  31.753  53.272  0.00  0.00     0.075 A 
ATOM      3  C   UNL d   1      53.564  32.891  53.630  0.00  0.00     0.092 A 
ATOM      4  C   UNL d   1      53.731  31.584  53.587  0.00  0.00     0.018 A 
ATOM      5  C   UNL d   1      54.074  32.303  53.797  0.00  0.00     0.021 A 
ATOM      6  C   UNL d   1      52.498  31.136  53.017  0.00  0.00     0.018 A 
ATOM      7  C   UNL d   1      53.994  30.816  53.633  0.00  0.00     0.002 A 
ATOM      8  C   UNL d   1      52.760  30.355  53.062  0.00  0.00     0.002 A 
ATOM      9  C   UNL d   1      53.514  30.197  53.372  0.00  0.00     0.000 A 
ENDROOT
BRANCH   1  10
ATOM     10  S   UNL d   1      52.241  33.067  53.077  0.00  0.00     0.277 S 
ATOM     11  O   UNL d   1      51.990  33.132  53.878  0.00  0.00    -0.199 OA
ATOM     12  O   UNL d   1      52.475  33.016  52.264  0.00  0.00    -0.199 OA
BRANCH  10  13
ATOM     13  C   UNL d   1      51.620  33.561  52.868  0.00  0.00     0.133 A 
ATOM     14  S   UNL d   1      50.905  33.695  53.291  0.00  0.00    -0.074 SA
ATOM     15  C   UNL d   1      50.451  34.230  52.874  0.00  0.00     0.036 A 
ATOM     16  C   UNL d   1      50.839  34.457  52.186  0.00  0.00     0.008 A 
ATOM     17  C   UNL d   1      51.561  34.045  52.179  0.00  0.00     0.020 A 
ENDBRANCH  10  13
ENDBRANCH   1  10
TORSDOF 2
ENDMDL
MODEL 3
REMARK VINA RESULT:      -9.1      1.912      3.514
REMARK  2 active torsions:
REMARK  status: ('A' for Active; 'I' for Inactive)
REMARK    1  A    between atoms: N_2  and  S_1 
REMARK    2  A    between atoms: C_3  and  S_1 
ROOT
ATOM      1  N   UNL d   1      52.989  33.151  53.513  0.00  0.00    -0.231 N 
ATOM      2  C   UNL d   1      53.529  33.405  54.090  0.00  0.00     0.075 A 
ATOM      3  C   UNL d   1      53.307  32.433  53.202  0.00  0.00     0.092 A 
ATOM      4  C   UNL d   1      54.161  32.842  54.119  0.00  0.00     0.018 A 
ATOM      5  C   UNL d   1      53.994  32.259  53.562  0.00  0.00     0.021 A 
ATOM      6  C   UNL d   1      53.551  34.048  54.588  0.00  0.00     0.018 A 
ATOM      7  C   UNL d   1      54.777  32.947  54.638  0.00  0.00     0.002 A 
ATOM      8  C   UNL d   1      54.175  34.159  55.117  0.00  0.00     0.002 A 
ATOM      9  C   UNL d   1      54.791  33.602  55.140  0.00  0.00     0.000 A 
ENDROOT
BRANCH   1  10
ATOM     10  S   UNL d   1      52.283  33.452  53.235  0.00  0.00     0.277 S 
ATOM     11  O   UNL d   1      52.696  33.959  52.703  0.00  0.00    -0.199 OA
ATOM     12  O   UNL d   1      51.846  32.952  53.761  0.00  0.00    -0.199 OA
BRANCH  10  13
ATOM     13  C   UNL d   1      51.581  33.764  52.947  0.00  0.00     0.133 A 
ATOM     14  S   UNL d   1      50.813  33.705  53.287  0.00  0.00    -0.074 SA
ATOM     15  C   UNL d   1      50.283  34.099  52.809  0.00  0.00     0.036 A 
ATOM     16  C   UNL d   1      50.671  34.420  52.158  0.00  0.00     0.008 A 
ATOM     17  C   UNL d   1      51.472  34.215  52.241  0.00  0.00     0.020 A 
ENDBRANCH  10  13
ENDBRANCH   1  10
TORSDOF 2
ENDMDL
MODEL 4
REMARK VINA RESULT:      -8.8      1.352      3.467
REMARK  2 active torsions:
REMARK  status: ('A' for Active; 'I' for Inactive)
REMARK    1  A    between atoms: N_2  and  S_1 
REMARK    2  A    between atoms: C_3  and  S_1 
ROOT
ATOM      1  N   UNL d   1      53.723  32.907  54.191  0.00  0.00    -0.231 N 
ATOM      2  C   UNL d   1      53.372  33.655  54.107  0.00  0.00     0.075 A 
ATOM      3  C   UNL d   1      54.365  33.013  54.729  0.00  0.00     0.092 A 
ATOM      4  C   UNL d   1      53.805  34.198  54.592  0.00  0.00     0.018 A 
ATOM      5  C   UNL d   1      54.407  33.773  54.960  0.00  0.00     0.021 A 
ATOM      6  C   UNL d   1      52.739  33.929  53.676  0.00  0.00     0.018 A 
ATOM      7  C   UNL d   1      53.586  34.981  54.622  0.00  0.00     0.002 A 
ATOM      8  C   UNL d   1      52.514  34.722  53.703  0.00  0.00     0.002 A 
ATOM      9  C   UNL d   1      52.943  35.249  54.181  0.00  0.00     0.000 A 
ENDROOT
BRANCH   1  10
ATOM     10  S   UNL d   1      53.560  32.173  53.871  0.00  0.00     0.277 S 
ATOM     11  O   UNL d   1      53.162  31.941  54.577  0.00  0.00    -0.199 OA
ATOM     12  O   UNL d   1      53.956  32.384  53.152  0.00  0.00    -0.199 OA
BRANCH  10  13
ATOM     13  C   UNL d   1      53.390  31.432  53.562  0.00  0.00     0.133 A 
ATOM     14  S   UNL d   1      52.859  31.246  52.936  0.00  0.00    -0.074 SA
ATOM     15  C   UNL d   1      52.869  30.439  52.817  0.00  0.00     0.036 A 
ATOM     16  C   UNL d   1      53.389  30.079  53.343  0.00  0.00     0.008 A 
ATOM     17  C   UNL d   1      53.713  30.691  53.804  0.00  0.00     0.020 A 
ENDBRANCH  10  13
ENDBRANCH   1  10
TORSDOF 2
ENDMDL
MODEL 5
REMARK VINA RESULT:      -8.2      1.344      2.370
REMARK  2 active torsions:
REMARK  status: ('A' for Active; 'I' for Inactive)
REMARK    1  A    between atoms: N_2  and  S_1 
REMARK    2  A    between atoms: C_3  and  S_1 
ROOT
ATOM      1  N   UNL d   1      52.937  33.077  53.580  0.00  0.00    -0.231 N 
ATOM      2  C   UNL d   1      52.306  33.541  53.303  0.00  0.00     0.075 A 
ATOM      3  C   UNL d   1      52.786  32.294  53.302  0.00  0.00     0.092 A 
ATOM      4  C   UNL d   1      51.787  33.035  52.865  0.00  0.00     0.018 A 
ATOM      5  C   UNL d   1      52.110  32.278  52.884  0.00  0.00     0.021 A 
ATOM      6  C   UNL d   1      52.120  34.330  53.375  0.00  0.00     0.018 A 
ATOM      7  C   UNL d   1      51.114  33.338  52.523  0.00  0.00     0.002 A 
ATOM      8  C   UNL d   1      51.438  34.642  53.030  0.00  0.00     0.002 A 
ATOM      9  C   UNL d   1      50.934  34.139  52.602  0.00  0.00     0.000 A 
ENDROOT
BRANCH   1  10
ATOM     10  S   UNL d   1      53.600  33.244  54.026  0.00  0.00     0.277 S 
ATOM     11  O   UNL d   1      53.164  33.131  54.738  0.00  0.00    -0.199 OA
ATOM     12  O   UNL d   1      54.060  33.362  53.324  0.00  0.00    -0.199 OA
BRANCH  10  13
ATOM     13  C   UNL d   1      54.259  33.409  54.486  0.00  0.00     0.133 A 
ATOM     14  S   UNL d   1      54.305  33.445  55.326  0.00  0.00    -0.074 SA
ATOM     15  C   UNL d   1      55.071  33.627  55.539  0.00  0.00     0.036 A 
ATOM     16  C   UNL d   1      55.540  33.714  54.869  0.00  0.00     0.008 A 
ATOM     17  C   UNL d   1      55.041  33.580  54.218  0.00  0.00     0.020 A 
ENDBRANCH  10  13
ENDBRANCH   1  10
TORSDOF 2
ENDMDL
