MODEL 1
REMARK VINA RESULT:      -9.0      0.000      0.000
REMARK  6 active torsions:
REMARK  status: ('A' for Active; 'I' for Inactive)
REMARK    1  A    between atoms: S_11  and  C_2 
REMARK    2  A    between atoms: C_5  and  N_8 
REMARK       I    between atoms: N_8  and  C_13 
REMARK    3  A    between atoms: C_17  and  C_10 
REMARK    4  A    between atoms: C_16  and  S_11 
REMARK    5  A    between atoms: C_13  and  C_16 
REMARK    6  A    between atoms: C_18  and  C_17 
ROOT
ATOM      1  C   UNL d   1      51.723  32.956  53.181  0.00  0.00     0.197 A 
ATOM      2  N   UNL d   1      52.077  32.727  52.470  0.00  0.00    -0.219 NA
ATOM      3  S   UNL d   1      52.235  32.730  53.792  0.00  0.00    -0.047 SA
ATOM      4  C   UNL d   1      52.891  32.369  53.463  0.00  0.00     0.051 A 
ATOM      5  C   UNL d   1      52.792  32.367  52.643  0.00  0.00     0.108 A 
ENDROOT
BRANCH   1   6
ATOM      6  N   UNL d   1      51.001  33.337  53.268  0.00  0.00    -0.182 NA
ATOM      7  C   UNL d   1      50.870  34.065  52.903  0.00  0.00     0.288 C 
ATOM      8  O   UNL d   1      51.470  34.413  52.448  0.00  0.00    -0.265 OA
BRANCH   7   9
ATOM      9  C   UNL d   1      50.148  34.453  52.986  0.00  0.00     0.101 C 
BRANCH   9  10
ATOM     10  S   UNL d   1      49.732  34.698  52.326  0.00  0.00    -0.041 SA
BRANCH  10  11
ATOM     11  C   UNL d   1      49.035  35.138  52.413  0.00  0.00     0.219 A 
ATOM     12  N   UNL d   1      48.431  35.197  51.857  0.00  0.00    -0.167 N 
ATOM     13  C   UNL d   1      47.851  35.684  52.166  0.00  0.00     0.189 A 
ATOM     14  N   UNL d   1      48.416  34.829  51.118  0.00  0.00    -0.038 N 
ATOM     15  N   UNL d   1      48.095  35.930  52.919  0.00  0.00    -0.126 NA
ATOM     16  C   UNL d   1      47.141  35.899  51.795  0.00  0.00     0.044 C 
ATOM     17  N   UNL d   1      48.825  35.590  53.066  0.00  0.00    -0.120 NA
ENDBRANCH  10  11
ENDBRANCH   9  10
ENDBRANCH   7   9
ENDBRANCH   1   6
BRANCH   4  18
ATOM     18  C   UNL d   1      53.534  32.062  53.878  0.00  0.00     0.008 C 
BRANCH  18  19
ATOM     19  C   UNL d   1      54.071  32.574  54.234  0.00  0.00     0.001 A 
ATOM     20  C   UNL d   1      54.676  32.916  53.786  0.00  0.00     0.002 A 
ATOM     21  C   UNL d   1      55.212  33.429  54.141  0.00  0.00     0.030 A 
ATOM     22  C   UNL d   1      55.148  33.602  54.949  0.00  0.00     0.140 A 
ATOM     23  C   UNL d   1      54.547  33.262  55.397  0.00  0.00     0.030 A 
ATOM     24  F   UNL d   1      55.685  34.113  55.301  0.00  0.00    -0.204 F 
ATOM     25  C   UNL d   1      54.006  32.747  55.042  0.00  0.00     0.002 A 
ENDBRANCH  18  19
ENDBRANCH   4  18
TORSDOF 6
ENDMDL
MODEL 2
REMARK VINA RESULT:      -8.5      1.648      2.236
REMARK  6 active torsions:
REMARK  status: ('A' for Active; 'I' for Inactive)
REMARK    1  A    between atoms: S_11  and  C_2 
REMARK    2  A    between atoms: C_5  and  N_8 
REMARK       I    between atoms: N_8  and  C_13 
REMARK    3  A    between atoms: C_17  and  C_10 
REMARK    4  A    between atoms: C_16  and  S_11 
REMARK    5  A    between atoms: C_13  and  C_16 
REMARK    6  A    between atoms: C_18  and  C_17 
ROOT
ATOM      1  C   UNL d   1      52.051  33.848  53.139  0.00  0.00     0.197 A 
ATOM      2  N   UNL d   1      52.246  33.893  53.941  0.00  0.00    -0.219 NA
ATOM      3  S   UNL d   1      52.554  33.286  52.797  0.00  0.00    -0.047 SA
ATOM      4  C   UNL d   1      53.049  32.991  53.377  0.00  0.00     0.051 A 
ATOM      5  C   UNL d   1      52.857  33.368  54.086  0.00  0.00     0.108 A 
ENDROOT
BRANCH   1   6
ATOM      6  N   UNL d   1      51.468  34.278  52.751  0.00  0.00    -0.182 NA
ATOM      7  C   UNL d   1      50.673  34.085  52.856  0.00  0.00     0.288 C 
ATOM      8  O   UNL d   1      50.462  33.456  53.353  0.00  0.00    -0.265 OA
BRANCH   7   9
ATOM      9  C   UNL d   1      50.083  34.512  52.471  0.00  0.00     0.101 C 
BRANCH   9  10
ATOM     10  S   UNL d   1      49.451  34.817  52.891  0.00  0.00    -0.041 SA
BRANCH  10  11
ATOM     11  C   UNL d   1      48.809  35.155  52.491  0.00  0.00     0.219 A 
ATOM     12  N   UNL d   1      48.274  35.694  52.808  0.00  0.00    -0.167 N 
ATOM     13  C   UNL d   1      47.731  35.883  52.226  0.00  0.00     0.189 A 
ATOM     14  N   UNL d   1      48.285  35.990  53.578  0.00  0.00    -0.038 N 
ATOM     15  N   UNL d   1      47.929  35.460  51.542  0.00  0.00    -0.126 NA
ATOM     16  C   UNL d   1      47.093  36.406  52.301  0.00  0.00     0.044 C 
ATOM     17  N   UNL d   1      48.594  35.012  51.710  0.00  0.00    -0.120 NA
ENDBRANCH  10  11
ENDBRANCH   9  10
ENDBRANCH   7   9
ENDBRANCH   1   6
BRANCH   4  18
ATOM     18  C   UNL d   1      53.634  32.419  53.271  0.00  0.00     0.008 C 
BRANCH  18  19
ATOM     19  C   UNL d   1      53.450  31.624  53.377  0.00  0.00     0.001 A 
ATOM     20  C   UNL d   1      53.624  31.251  54.094  0.00  0.00     0.002 A 
ATOM     21  C   UNL d   1      53.441  30.456  54.200  0.00  0.00     0.030 A 
ATOM     22  C   UNL d   1      53.080  30.028  53.589  0.00  0.00     0.140 A 
ATOM     23  C   UNL d   1      52.906  30.397  52.875  0.00  0.00     0.030 A 
ATOM     24  F   UNL d   1      52.898  29.235  53.698  0.00  0.00    -0.204 F 
ATOM     25  C   UNL d   1      53.090  31.196  52.765  0.00  0.00     0.002 A 
ENDBRANCH  18  19
ENDBRANCH   4  18
TORSDOF 6
ENDMDL
MODEL 3
REMARK VINA RESULT:      -8.4      1.052      1.403
REMARK  6 active torsions:
REMARK  status: ('A' for Active; 'I' for Inactive)
REMARK    1  A    between atoms: S_11  and  C_2 
REMARK    2  A    between atoms: C_5  and  N_8 
REMARK       I    between atoms: N_8  and  C_13 
REMARK    3  A    between atoms: C_17  and  C_10 
REMARK    4  A    between atoms: C_16  and  S_11 
REMARK    5  A    between atoms: C_13  and  C_16 
REMARK    6  A    between atoms: C_18  and  C_17 
ROOT
ATOM      1  C   UNL d   1      50.876  34.046  53.248  0.00  0.00     0.197 A 
ATOM      2  N   UNL d   1      50.825  33.221  53.226  0.00  0.00    -0.219 NA
ATOM      3  S   UNL d   1      51.678  34.242  53.184  0.00  0.00    -0.047 SA
ATOM      4  C   UNL d   1      52.112  33.551  53.124  0.00  0.00     0.051 A 
ATOM      5  C   UNL d   1      51.582  32.919  53.150  0.00  0.00     0.108 A 
ENDROOT
BRANCH   1   6
ATOM      6  N   UNL d   1      50.250  34.574  53.320  0.00  0.00    -0.182 NA
ATOM      7  C   UNL d   1      49.747  34.709  52.680  0.00  0.00     0.288 C 
ATOM      8  O   UNL d   1      49.874  34.310  51.963  0.00  0.00    -0.265 OA
BRANCH   7   9
ATOM      9  C   UNL d   1      49.118  35.237  52.744  0.00  0.00     0.101 C 
BRANCH   9  10
ATOM     10  S   UNL d   1      48.516  35.232  52.191  0.00  0.00    -0.041 SA
BRANCH  10  11
ATOM     11  C   UNL d   1      47.847  35.709  52.299  0.00  0.00     0.219 A 
ATOM     12  N   UNL d   1      47.174  35.708  51.826  0.00  0.00    -0.167 N 
ATOM     13  C   UNL d   1      46.653  36.262  52.129  0.00  0.00     0.189 A 
ATOM     14  N   UNL d   1      47.049  35.232  51.164  0.00  0.00    -0.038 N 
ATOM     15  N   UNL d   1      47.003  36.609  52.794  0.00  0.00    -0.126 NA
ATOM     16  C   UNL d   1      45.903  36.446  51.827  0.00  0.00     0.044 C 
ATOM     17  N   UNL d   1      47.740  36.266  52.895  0.00  0.00    -0.120 NA
ENDBRANCH  10  11
ENDBRANCH   9  10
ENDBRANCH   7   9
ENDBRANCH   1   6
BRANCH   4  18
ATOM     18  C   UNL d   1      52.932  33.499  53.051  0.00  0.00     0.008 C 
BRANCH  18  19
ATOM     19  C   UNL d   1      53.392  33.357  53.717  0.00  0.00     0.001 A 
ATOM     20  C   UNL d   1      53.651  33.988  54.184  0.00  0.00     0.002 A 
ATOM     21  C   UNL d   1      54.111  33.846  54.851  0.00  0.00     0.030 A 
ATOM     22  C   UNL d   1      54.315  33.069  55.057  0.00  0.00     0.140 A 
ATOM     23  C   UNL d   1      54.058  32.439  54.594  0.00  0.00     0.030 A 
ATOM     24  F   UNL d   1      54.775  32.930  55.722  0.00  0.00    -0.204 F 
ATOM     25  C   UNL d   1      53.596  32.580  53.923  0.00  0.00     0.002 A 
ENDBRANCH  18  19
ENDBRANCH   4  18
TORSDOF 6
ENDMDL
MODEL 4
REMARK VINA RESULT:      -7.0      2.582      6.404
REMARK  6 active torsions:
REMARK  status: ('A' for Active; 'I' for Inactive)
REMARK    1  A    between atoms: S_11  and  C_2 
REMARK    2  A    between atoms: C_5  and  N_8 
REMARK       I    between atoms: N_8  and  C_13 
REMARK    3  A    between atoms: C_17  and  C_10 
REMARK    4  A    between atoms: C_16  and  S_11 
REMARK    5  A    between atoms: C_13  and  C_16 
REMARK    6  A    between atoms: C_18  and  C_17 
ROOT
ATOM      1  C   UNL d   1      49.533  34.526  52.490  0.00  0.00     0.197 A 
ATOM      2  N   UNL d   1      49.304  34.350  51.716  0.00  0.00    -0.219 NA
ATOM      3  S   UNL d   1      49.105  35.195  52.724  0.00  0.00    -0.047 SA
ATOM      4  C   UNL d   1      48.622  35.427  52.106  0.00  0.00     0.051 A 
ATOM      5  C   UNL d   1      48.746  34.901  51.481  0.00  0.00     0.108 A 
ENDROOT
BRANCH   1   6
ATOM      6  N   UNL d   1      50.082  34.116  52.944  0.00  0.00    -0.182 NA
ATOM      7  C   UNL d   1      50.871  34.079  52.706  0.00  0.00     0.288 C 
ATOM      8  O   UNL d   1      51.109  34.457  52.007  0.00  0.00    -0.265 OA
BRANCH   7   9
ATOM      9  C   UNL d   1      51.427  33.670  53.155  0.00  0.00     0.101 C 
BRANCH   9  10
ATOM     10  S   UNL d   1      52.153  34.006  53.320  0.00  0.00    -0.041 SA
BRANCH  10  11
ATOM     11  C   UNL d   1      52.736  33.566  53.712  0.00  0.00     0.219 A 
ATOM     12  N   UNL d   1      53.287  33.864  54.245  0.00  0.00    -0.167 N 
ATOM     13  C   UNL d   1      53.756  33.243  54.498  0.00  0.00     0.189 A 
ATOM     14  N   UNL d   1      53.354  34.653  54.481  0.00  0.00    -0.038 N 
ATOM     15  N   UNL d   1      53.494  32.553  54.121  0.00  0.00    -0.126 NA
ATOM     16  C   UNL d   1      54.383  33.289  55.038  0.00  0.00     0.044 C 
ATOM     17  N   UNL d   1      52.866  32.758  53.637  0.00  0.00    -0.120 NA
ENDBRANCH  10  11
ENDBRANCH   9  10
ENDBRANCH   7   9
ENDBRANCH   1   6
BRANCH   4  18
ATOM     18  C   UNL d   1      48.105  36.069  52.110  0.00  0.00     0.008 C 
BRANCH  18  19
ATOM     19  C   UNL d   1      47.303  35.946  52.246  0.00  0.00     0.001 A 
ATOM     20  C   UNL d   1      46.995  36.031  53.009  0.00  0.00     0.002 A 
ATOM     21  C   UNL d   1      46.193  35.907  53.145  0.00  0.00     0.030 A 
ATOM     22  C   UNL d   1      45.693  35.697  52.519  0.00  0.00     0.140 A 
ATOM     23  C   UNL d   1      45.997  35.612  51.759  0.00  0.00     0.030 A 
ATOM     24  F   UNL d   1      44.894  35.575  52.658  0.00  0.00    -0.204 F 
ATOM     25  C   UNL d   1      46.803  35.735  51.619  0.00  0.00     0.002 A 
ENDBRANCH  18  19
ENDBRANCH   4  18
TORSDOF 6
ENDMDL
