MODEL 1
REMARK VINA RESULT:       8.9      0.000      0.000
REMARK  2 active torsions:
REMARK  status: ('A' for Active; 'I' for Inactive)
REMARK    1  A    between atoms: C_5  and  N_1 
REMARK    2  A    between atoms: C_7  and  C_5 
ROOT
ATOM      1  N   UNL d   1      45.773 -13.421  44.827  0.00  0.00    -0.288 N 
ATOM      2  C   UNL d   1      46.408 -12.917  44.952  0.00  0.00     0.183 A 
ATOM      3  N   UNL d   1      46.370 -12.308  44.362  0.00  0.00    -0.224 NA
ATOM      4  C   UNL d   1      45.345 -13.160  44.195  0.00  0.00     0.083 A 
ATOM      5  C   UNL d   1      45.724 -12.454  43.901  0.00  0.00     0.099 A 
ATOM      6  C   UNL d   1      44.664 -13.446  43.829  0.00  0.00     0.019 A 
ATOM      7  C   UNL d   1      45.375 -12.080  43.238  0.00  0.00     0.021 A 
ATOM      8  C   UNL d   1      44.348 -13.050  43.177  0.00  0.00     0.002 A 
ATOM      9  C   UNL d   1      44.714 -12.368  42.893  0.00  0.00     0.002 A 
ENDROOT
BRANCH   1  10
ATOM     10  C   UNL d   1      45.182 -13.954  44.769  0.00  0.00     0.066 C 
ATOM     11  C   UNL d   1      44.400 -13.713  44.659  0.00  0.00     0.019 C 
BRANCH  10  12
ATOM     12  C   UNL d   1      45.363 -14.756  44.820  0.00  0.00     0.016 A 
ATOM     13  C   UNL d   1      44.759 -15.318  44.791  0.00  0.00     0.001 A 
ATOM     14  C   UNL d   1      44.940 -16.122  44.843  0.00  0.00     0.000 A 
ATOM     15  C   UNL d   1      45.729 -16.366  44.924  0.00  0.00     0.000 A 
ATOM     16  C   UNL d   1      46.332 -15.805  44.953  0.00  0.00     0.000 A 
ATOM     17  C   UNL d   1      46.148 -14.999  44.901  0.00  0.00     0.001 A 
ENDBRANCH  10  12
ENDBRANCH   1  10
TORSDOF 2
ENDMDL
MODEL 2
REMARK VINA RESULT:       9.9      0.895      3.219
REMARK  2 active torsions:
REMARK  status: ('A' for Active; 'I' for Inactive)
REMARK    1  A    between atoms: C_5  and  N_1 
REMARK    2  A    between atoms: C_7  and  C_5 
ROOT
ATOM      1  N   UNL d   1      44.576 -13.759  44.448  0.00  0.00    -0.288 N 
ATOM      2  C   UNL d   1      43.864 -14.097  44.674  0.00  0.00     0.183 A 
ATOM      3  N   UNL d   1      44.026 -14.896  44.911  0.00  0.00    -0.224 NA
ATOM      4  C   UNL d   1      45.168 -14.299  44.530  0.00  0.00     0.083 A 
ATOM      5  C   UNL d   1      44.819 -15.021  44.824  0.00  0.00     0.099 A 
ATOM      6  C   UNL d   1      45.979 -14.262  44.387  0.00  0.00     0.019 A 
ATOM      7  C   UNL d   1      45.332 -15.669  44.955  0.00  0.00     0.021 A 
ATOM      8  C   UNL d   1      46.454 -14.922  44.527  0.00  0.00     0.002 A 
ATOM      9  C   UNL d   1      46.117 -15.619  44.811  0.00  0.00     0.002 A 
ENDROOT
BRANCH   1  10
ATOM     10  C   UNL d   1      45.225 -13.361  44.211  0.00  0.00     0.066 C 
ATOM     11  C   UNL d   1      45.918 -13.371  44.660  0.00  0.00     0.019 C 
BRANCH  10  12
ATOM     12  C   UNL d   1      45.198 -12.935  43.506  0.00  0.00     0.016 A 
ATOM     13  C   UNL d   1      45.884 -12.832  43.060  0.00  0.00     0.001 A 
ATOM     14  C   UNL d   1      45.856 -12.406  42.353  0.00  0.00     0.000 A 
ATOM     15  C   UNL d   1      45.140 -12.080  42.091  0.00  0.00     0.000 A 
ATOM     16  C   UNL d   1      44.454 -12.183  42.538  0.00  0.00     0.000 A 
ATOM     17  C   UNL d   1      44.484 -12.612  43.247  0.00  0.00     0.001 A 
ENDBRANCH  10  12
ENDBRANCH   1  10
TORSDOF 2
ENDMDL
