MODEL 1
REMARK VINA RESULT:      -6.6      0.000      0.000
REMARK  7 active torsions:
REMARK  status: ('A' for Active; 'I' for Inactive)
REMARK    1  A    between atoms: C_2  and  S_1 
REMARK    2  A    between atoms: N_4  and  S_1 
REMARK    3  A    between atoms: C_13  and  N_4 
REMARK    4  A    between atoms: C_14  and  N_4 
REMARK    5  A    between atoms: O_12  and  C_7 
REMARK    6  A    between atoms: C_16  and  C_13 
REMARK    7  A    between atoms: C_17  and  C_14 
ROOT
ATOM      1  S   UNL d   1     -48.810  13.238  22.922  0.00  0.00     0.271 S 
ATOM      2  O   UNL d   1     -49.100  13.175  23.692  0.00  0.00    -0.200 OA
ATOM      3  O   UNL d   1     -48.521  13.301  22.152  0.00  0.00    -0.200 OA
ENDROOT
BRANCH   1   4
ATOM      4  C   UNL d   1     -48.193  12.738  23.113  0.00  0.00     0.106 A 
ATOM      5  C   UNL d   1     -47.427  13.033  23.176  0.00  0.00     0.038 A 
ATOM      6  C   UNL d   1     -46.805  12.529  23.369  0.00  0.00     0.105 A 
ATOM      7  C   UNL d   1     -46.949  11.731  23.498  0.00  0.00     0.080 A 
ATOM      8  C   UNL d   1     -47.713  11.433  23.436  0.00  0.00     0.014 A 
ATOM      9 CL   UNL d   1     -46.326  11.226  23.691  0.00  0.00    -0.080 Cl
ATOM     10  C   UNL d   1     -48.335  11.937  23.243  0.00  0.00     0.014 A 
BRANCH   6  11
ATOM     11  O   UNL d   1     -46.041  12.827  23.431  0.00  0.00    -0.327 OA
ATOM     12  C   UNL d   1     -45.743  13.319  22.840  0.00  0.00     0.181 C 
ENDBRANCH   6  11
ENDBRANCH   1   4
BRANCH   1  13
ATOM     13  N   UNL d   1     -49.434  13.742  22.729  0.00  0.00    -0.229 N 
BRANCH  13  14
ATOM     14  C   UNL d   1     -49.847  13.636  22.025  0.00  0.00     0.092 C 
BRANCH  14  15
ATOM     15  C   UNL d   1     -50.655  13.472  22.041  0.00  0.00     0.020 C 
ATOM     16  C   UNL d   1     -51.063  13.337  21.339  0.00  0.00     0.002 C 
ENDBRANCH  14  15
ENDBRANCH  13  14
BRANCH  13  17
ATOM     17  C   UNL d   1     -49.644  14.352  23.240  0.00  0.00     0.092 C 
BRANCH  17  18
ATOM     18  C   UNL d   1     -49.603  15.136  22.986  0.00  0.00     0.020 C 
ATOM     19  C   UNL d   1     -49.822  15.748  23.499  0.00  0.00     0.002 C 
ENDBRANCH  17  18
ENDBRANCH  13  17
ENDBRANCH   1  13
TORSDOF 7
ENDMDL
MODEL 2
REMARK VINA RESULT:      -6.3      1.260      1.955
REMARK  7 active torsions:
REMARK  status: ('A' for Active; 'I' for Inactive)
REMARK    1  A    between atoms: C_2  and  S_1 
REMARK    2  A    between atoms: N_4  and  S_1 
REMARK    3  A    between atoms: C_13  and  N_4 
REMARK    4  A    between atoms: C_14  and  N_4 
REMARK    5  A    between atoms: O_12  and  C_7 
REMARK    6  A    between atoms: C_16  and  C_13 
REMARK    7  A    between atoms: C_17  and  C_14 
ROOT
ATOM      1  S   UNL d   1     -48.854  13.362  22.751  0.00  0.00     0.271 S 
ATOM      2  O   UNL d   1     -48.707  12.968  22.042  0.00  0.00    -0.200 OA
ATOM      3  O   UNL d   1     -49.000  13.757  23.461  0.00  0.00    -0.200 OA
ENDROOT
BRANCH   1   4
ATOM      4  C   UNL d   1     -48.059  13.540  22.817  0.00  0.00     0.106 A 
ATOM      5  C   UNL d   1     -47.547  13.015  23.190  0.00  0.00     0.038 A 
ATOM      6  C   UNL d   1     -46.746  13.194  23.255  0.00  0.00     0.105 A 
ATOM      7  C   UNL d   1     -46.458  13.899  22.948  0.00  0.00     0.080 A 
ATOM      8  C   UNL d   1     -46.966  14.427  22.575  0.00  0.00     0.014 A 
ATOM      9 CL   UNL d   1     -45.656  14.079  23.014  0.00  0.00    -0.080 Cl
ATOM     10  C   UNL d   1     -47.768  14.247  22.509  0.00  0.00     0.014 A 
BRANCH   6  11
ATOM     11  O   UNL d   1     -46.238  12.667  23.628  0.00  0.00    -0.327 OA
ATOM     12  C   UNL d   1     -46.338  11.855  23.521  0.00  0.00     0.181 C 
ENDBRANCH   6  11
ENDBRANCH   1   4
BRANCH   1  13
ATOM     13  N   UNL d   1     -49.656  13.182  22.686  0.00  0.00    -0.229 N 
BRANCH  13  14
ATOM     14  C   UNL d   1     -50.081  13.428  22.024  0.00  0.00     0.092 C 
BRANCH  14  15
ATOM     15  C   UNL d   1     -50.767  13.877  22.118  0.00  0.00     0.020 C 
ATOM     16  C   UNL d   1     -51.064  14.312  21.486  0.00  0.00     0.002 C 
ENDBRANCH  14  15
ENDBRANCH  13  14
BRANCH  13  17
ATOM     17  C   UNL d   1     -50.033  12.757  23.280  0.00  0.00     0.092 C 
BRANCH  17  18
ATOM     18  C   UNL d   1     -50.421  12.051  23.101  0.00  0.00     0.020 C 
ATOM     19  C   UNL d   1     -50.810  11.631  23.698  0.00  0.00     0.002 C 
ENDBRANCH  17  18
ENDBRANCH  13  17
ENDBRANCH   1  13
TORSDOF 7
ENDMDL
MODEL 3
REMARK VINA RESULT:      -6.2      1.860      3.787
REMARK  7 active torsions:
REMARK  status: ('A' for Active; 'I' for Inactive)
REMARK    1  A    between atoms: C_2  and  S_1 
REMARK    2  A    between atoms: N_4  and  S_1 
REMARK    3  A    between atoms: C_13  and  N_4 
REMARK    4  A    between atoms: C_14  and  N_4 
REMARK    5  A    between atoms: O_12  and  C_7 
REMARK    6  A    between atoms: C_16  and  C_13 
REMARK    7  A    between atoms: C_17  and  C_14 
ROOT
ATOM      1  S   UNL d   1     -47.861  13.638  22.876  0.00  0.00     0.271 S 
ATOM      2  O   UNL d   1     -47.588  13.972  23.579  0.00  0.00    -0.200 OA
ATOM      3  O   UNL d   1     -48.134  13.304  22.173  0.00  0.00    -0.200 OA
ENDROOT
BRANCH   1   4
ATOM      4  C   UNL d   1     -48.495  14.153  22.878  0.00  0.00     0.106 A 
ATOM      5  C   UNL d   1     -49.183  13.958  23.287  0.00  0.00     0.038 A 
ATOM      6  C   UNL d   1     -49.823  14.477  23.289  0.00  0.00     0.105 A 
ATOM      7  C   UNL d   1     -49.774  15.189  22.883  0.00  0.00     0.080 A 
ATOM      8  C   UNL d   1     -49.089  15.387  22.474  0.00  0.00     0.014 A 
ATOM      9 CL   UNL d   1     -50.415  15.709  22.885  0.00  0.00    -0.080 Cl
ATOM     10  C   UNL d   1     -48.449  14.868  22.471  0.00  0.00     0.014 A 
BRANCH   6  11
ATOM     11  O   UNL d   1     -50.508  14.280  23.698  0.00  0.00    -0.327 OA
ATOM     12  C   UNL d   1     -50.817  13.517  23.638  0.00  0.00     0.181 C 
ENDBRANCH   6  11
ENDBRANCH   1   4
BRANCH   1  13
ATOM     13  N   UNL d   1     -47.220  13.119  22.874  0.00  0.00    -0.229 N 
BRANCH  13  14
ATOM     14  C   UNL d   1     -47.347  12.308  22.943  0.00  0.00     0.092 C 
BRANCH  14  15
ATOM     15  C   UNL d   1     -47.044  11.897  23.591  0.00  0.00     0.020 C 
ATOM     16  C   UNL d   1     -47.209  11.096  23.687  0.00  0.00     0.002 C 
ENDBRANCH  14  15
ENDBRANCH  13  14
BRANCH  13  17
ATOM     17  C   UNL d   1     -46.454  13.410  22.802  0.00  0.00     0.092 C 
BRANCH  17  18
ATOM     18  C   UNL d   1     -45.967  13.145  22.191  0.00  0.00     0.020 C 
ATOM     19  C   UNL d   1     -45.191  13.427  22.129  0.00  0.00     0.002 C 
ENDBRANCH  17  18
ENDBRANCH  13  17
ENDBRANCH   1  13
TORSDOF 7
ENDMDL
MODEL 4
REMARK VINA RESULT:      -6.1      1.827      3.901
REMARK  7 active torsions:
REMARK  status: ('A' for Active; 'I' for Inactive)
REMARK    1  A    between atoms: C_2  and  S_1 
REMARK    2  A    between atoms: N_4  and  S_1 
REMARK    3  A    between atoms: C_13  and  N_4 
REMARK    4  A    between atoms: C_14  and  N_4 
REMARK    5  A    between atoms: O_12  and  C_7 
REMARK    6  A    between atoms: C_16  and  C_13 
REMARK    7  A    between atoms: C_17  and  C_14 
ROOT
ATOM      1  S   UNL d   1     -47.835  13.596  22.870  0.00  0.00     0.271 S 
ATOM      2  O   UNL d   1     -48.074  13.332  22.126  0.00  0.00    -0.200 OA
ATOM      3  O   UNL d   1     -47.597  13.861  23.614  0.00  0.00    -0.200 OA
ENDROOT
BRANCH   1   4
ATOM      4  C   UNL d   1     -48.463  14.119  22.885  0.00  0.00     0.106 A 
ATOM      5  C   UNL d   1     -49.174  13.901  23.239  0.00  0.00     0.038 A 
ATOM      6  C   UNL d   1     -49.807  14.428  23.254  0.00  0.00     0.105 A 
ATOM      7  C   UNL d   1     -49.727  15.173  22.916  0.00  0.00     0.080 A 
ATOM      8  C   UNL d   1     -49.019  15.394  22.563  0.00  0.00     0.014 A 
ATOM      9 CL   UNL d   1     -50.361  15.701  22.932  0.00  0.00    -0.080 Cl
ATOM     10  C   UNL d   1     -48.386  14.867  22.547  0.00  0.00     0.014 A 
BRANCH   6  11
ATOM     11  O   UNL d   1     -50.515  14.207  23.608  0.00  0.00    -0.327 OA
ATOM     12  C   UNL d   1     -50.796  13.437  23.517  0.00  0.00     0.181 C 
ENDBRANCH   6  11
ENDBRANCH   1   4
BRANCH   1  13
ATOM     13  N   UNL d   1     -47.202  13.068  22.854  0.00  0.00    -0.229 N 
BRANCH  13  14
ATOM     14  C   UNL d   1     -46.604  13.159  22.295  0.00  0.00     0.092 C 
BRANCH  14  15
ATOM     15  C   UNL d   1     -45.820  13.240  22.539  0.00  0.00     0.020 C 
ATOM     16  C   UNL d   1     -45.220  13.319  21.981  0.00  0.00     0.002 C 
ENDBRANCH  14  15
ENDBRANCH  13  14
BRANCH  13  17
ATOM     17  C   UNL d   1     -47.166  12.451  23.397  0.00  0.00     0.092 C 
BRANCH  17  18
ATOM     18  C   UNL d   1     -47.230  11.670  23.139  0.00  0.00     0.020 C 
ATOM     19  C   UNL d   1     -47.229  11.052  23.690  0.00  0.00     0.002 C 
ENDBRANCH  17  18
ENDBRANCH  13  17
ENDBRANCH   1  13
TORSDOF 7
ENDMDL
MODEL 5
REMARK VINA RESULT:      -5.2      0.185      1.514
REMARK  7 active torsions:
REMARK  status: ('A' for Active; 'I' for Inactive)
REMARK    1  A    between atoms: C_2  and  S_1 
REMARK    2  A    between atoms: N_4  and  S_1 
REMARK    3  A    between atoms: C_13  and  N_4 
REMARK    4  A    between atoms: C_14  and  N_4 
REMARK    5  A    between atoms: O_12  and  C_7 
REMARK    6  A    between atoms: C_16  and  C_13 
REMARK    7  A    between atoms: C_17  and  C_14 
ROOT
ATOM      1  S   UNL d   1     -48.692  13.244  22.969  0.00  0.00     0.271 S 
ATOM      2  O   UNL d   1     -48.349  13.428  22.242  0.00  0.00    -0.200 OA
ATOM      3  O   UNL d   1     -49.035  13.061  23.697  0.00  0.00    -0.200 OA
ENDROOT
BRANCH   1   4
ATOM      4  C   UNL d   1     -48.053  12.769  23.151  0.00  0.00     0.106 A 
ATOM      5  C   UNL d   1     -47.288  13.071  23.107  0.00  0.00     0.038 A 
ATOM      6  C   UNL d   1     -46.643  12.591  23.290  0.00  0.00     0.105 A 
ATOM      7  C   UNL d   1     -46.765  11.811  23.515  0.00  0.00     0.080 A 
ATOM      8  C   UNL d   1     -47.527  11.506  23.560  0.00  0.00     0.014 A 
ATOM      9 CL   UNL d   1     -46.119  11.331  23.698  0.00  0.00    -0.080 Cl
ATOM     10  C   UNL d   1     -48.172  11.985  23.377  0.00  0.00     0.014 A 
BRANCH   6  11
ATOM     11  O   UNL d   1     -45.881  12.896  23.246  0.00  0.00    -0.327 OA
ATOM     12  C   UNL d   1     -45.650  13.327  22.581  0.00  0.00     0.181 C 
ENDBRANCH   6  11
ENDBRANCH   1   4
BRANCH   1  13
ATOM     13  N   UNL d   1     -49.337  13.724  22.787  0.00  0.00    -0.229 N 
BRANCH  13  14
ATOM     14  C   UNL d   1     -49.573  14.315  23.310  0.00  0.00     0.092 C 
BRANCH  14  15
ATOM     15  C   UNL d   1     -49.651  15.093  23.046  0.00  0.00     0.020 C 
ATOM     16  C   UNL d   1     -49.890  15.684  23.567  0.00  0.00     0.002 C 
ENDBRANCH  14  15
ENDBRANCH  13  14
BRANCH  13  17
ATOM     17  C   UNL d   1     -49.747  13.614  22.082  0.00  0.00     0.092 C 
BRANCH  17  18
ATOM     18  C   UNL d   1     -50.517  13.318  22.093  0.00  0.00     0.020 C 
ATOM     19  C   UNL d   1     -50.925  13.202  21.383  0.00  0.00     0.002 C 
ENDBRANCH  17  18
ENDBRANCH  13  17
ENDBRANCH   1  13
TORSDOF 7
ENDMDL
MODEL 6
REMARK VINA RESULT:      -5.1      8.310      9.784
REMARK  7 active torsions:
REMARK  status: ('A' for Active; 'I' for Inactive)
REMARK    1  A    between atoms: C_2  and  S_1 
REMARK    2  A    between atoms: N_4  and  S_1 
REMARK    3  A    between atoms: C_13  and  N_4 
REMARK    4  A    between atoms: C_14  and  N_4 
REMARK    5  A    between atoms: O_12  and  C_7 
REMARK    6  A    between atoms: C_16  and  C_13 
REMARK    7  A    between atoms: C_17  and  C_14 
ROOT
ATOM      1  S   UNL d   1     -39.949  14.676  18.533  0.00  0.00     0.271 S 
ATOM      2  O   UNL d   1     -39.437  15.320  18.586  0.00  0.00    -0.200 OA
ATOM      3  O   UNL d   1     -40.461  14.031  18.480  0.00  0.00    -0.200 OA
ENDROOT
BRANCH   1   4
ATOM      4  C   UNL d   1     -39.938  14.600  19.346  0.00  0.00     0.106 A 
ATOM      5  C   UNL d   1     -40.557  14.902  19.797  0.00  0.00     0.038 A 
ATOM      6  C   UNL d   1     -40.546  14.826  20.618  0.00  0.00     0.105 A 
ATOM      7  C   UNL d   1     -39.917  14.447  20.985  0.00  0.00     0.080 A 
ATOM      8  C   UNL d   1     -39.298  14.144  20.538  0.00  0.00     0.014 A 
ATOM      9 CL   UNL d   1     -39.907  14.371  21.807  0.00  0.00    -0.080 Cl
ATOM     10  C   UNL d   1     -39.308  14.221  19.718  0.00  0.00     0.014 A 
BRANCH   6  11
ATOM     11  O   UNL d   1     -41.166  15.129  21.065  0.00  0.00    -0.327 OA
ATOM     12  C   UNL d   1     -41.380  15.922  20.985  0.00  0.00     0.181 C 
ENDBRANCH   6  11
ENDBRANCH   1   4
BRANCH   1  13
ATOM     13  N   UNL d   1     -39.959  14.752  17.712  0.00  0.00    -0.229 N 
BRANCH  13  14
ATOM     14  C   UNL d   1     -40.665  14.920  17.323  0.00  0.00     0.092 C 
BRANCH  14  15
ATOM     15  C   UNL d   1     -40.759  15.640  16.929  0.00  0.00     0.020 C 
ATOM     16  C   UNL d   1     -41.485  15.837  16.596  0.00  0.00     0.002 C 
ENDBRANCH  14  15
ENDBRANCH  13  14
BRANCH  13  17
ATOM     17  C   UNL d   1     -39.265  14.660  17.280  0.00  0.00     0.092 C 
BRANCH  17  18
ATOM     18  C   UNL d   1     -39.209  14.068  16.709  0.00  0.00     0.020 C 
ATOM     19  C   UNL d   1     -38.498  13.953  16.302  0.00  0.00     0.002 C 
ENDBRANCH  17  18
ENDBRANCH  13  17
ENDBRANCH   1  13
TORSDOF 7
ENDMDL
