MODEL 1
REMARK VINA RESULT:      -1.5      0.000      0.000
REMARK  4 active torsions:
REMARK  status: ('A' for Active; 'I' for Inactive)
REMARK    1  A    between atoms: C_8  and  C_2 
REMARK    2  A    between atoms: C_9  and  N_3 
REMARK    3  A    between atoms: C_12  and  C_9 
REMARK    4  A    between atoms: C_14  and  C_12 
ROOT
ATOM      1  N   UNL d   1      56.944  -0.407  31.323  0.00  0.00    -0.217 NA
ATOM      2  C   UNL d   1      57.658  -0.046  31.140  0.00  0.00     0.149 A 
ATOM      3  N   UNL d   1      58.098   0.317  31.732  0.00  0.00    -0.290 N 
ATOM      4  C   UNL d   1      57.098  -0.049  32.686  0.00  0.00     0.044 A 
ATOM      5  C   UNL d   1      56.657  -0.413  32.089  0.00  0.00     0.139 A 
ATOM      6  C   UNL d   1      57.820   0.319  32.513  0.00  0.00     0.068 A 
ATOM      7  S   UNL d   1      55.950  -0.770  32.271  0.00  0.00    -0.057 SA
ATOM      8  C   UNL d   1      56.820  -0.048  33.458  0.00  0.00     0.004 A 
ATOM      9  C   UNL d   1      58.253   0.678  33.103  0.00  0.00     0.018 A 
ATOM     10  C   UNL d   1      57.253   0.312  34.052  0.00  0.00     0.000 A 
ATOM     11  C   UNL d   1      57.985   0.681  33.864  0.00  0.00     0.002 A 
ENDROOT
BRANCH   2  12
ATOM     12  C   UNL d   1      57.942  -0.043  30.365  0.00  0.00     0.035 A 
ATOM     13  C   UNL d   1      58.261  -0.727  30.043  0.00  0.00     0.003 A 
ATOM     14  C   UNL d   1      58.548  -0.719  29.258  0.00  0.00     0.000 A 
ATOM     15  C   UNL d   1      58.508  -0.024  28.813  0.00  0.00     0.000 A 
ATOM     16  C   UNL d   1      58.185   0.658  29.147  0.00  0.00     0.000 A 
ATOM     17  C   UNL d   1      57.902   0.653  29.920  0.00  0.00     0.003 A 
ENDBRANCH   2  12
BRANCH   3  18
ATOM     18  C   UNL d   1      58.819   0.682  31.547  0.00  0.00     0.085 C 
BRANCH  18  19
ATOM     19  C   UNL d   1      59.454   0.589  32.056  0.00  0.00     0.064 C 
BRANCH  19  20
ATOM     20  C   UNL d   1      60.225   0.632  31.765  0.00  0.00     0.236 C 
ATOM     21  O   UNL d   1      60.859   0.670  32.268  0.00  0.00    -0.283 OA
ENDBRANCH  19  20
ENDBRANCH  18  19
ENDBRANCH   3  18
TORSDOF 4
ENDMDL
MODEL 2
REMARK VINA RESULT:       0.3      2.377      4.173
REMARK  4 active torsions:
REMARK  status: ('A' for Active; 'I' for Inactive)
REMARK    1  A    between atoms: C_8  and  C_2 
REMARK    2  A    between atoms: C_9  and  N_3 
REMARK    3  A    between atoms: C_12  and  C_9 
REMARK    4  A    between atoms: C_14  and  C_12 
ROOT
ATOM      1  N   UNL d   1      59.754   0.414  30.320  0.00  0.00    -0.217 NA
ATOM      2  C   UNL d   1      59.069  -0.030  30.232  0.00  0.00     0.149 A 
ATOM      3  N   UNL d   1      59.068  -0.690  29.742  0.00  0.00    -0.290 N 
ATOM      4  C   UNL d   1      60.443  -0.452  29.434  0.00  0.00     0.044 A 
ATOM      5  C   UNL d   1      60.442   0.211  29.927  0.00  0.00     0.139 A 
ATOM      6  C   UNL d   1      59.757  -0.908  29.337  0.00  0.00     0.068 A 
ATOM      7  S   UNL d   1      61.121   0.650  30.013  0.00  0.00    -0.057 SA
ATOM      8  C   UNL d   1      61.128  -0.665  29.034  0.00  0.00     0.004 A 
ATOM      9  C   UNL d   1      59.761  -1.561  28.850  0.00  0.00     0.018 A 
ATOM     10  C   UNL d   1      61.133  -1.321  28.545  0.00  0.00     0.000 A 
ATOM     11  C   UNL d   1      60.431  -1.775  28.455  0.00  0.00     0.002 A 
ENDROOT
BRANCH   2  12
ATOM     12  C   UNL d   1      58.378   0.179  30.631  0.00  0.00     0.035 A 
ATOM     13  C   UNL d   1      57.704   0.379  30.206  0.00  0.00     0.003 A 
ATOM     14  C   UNL d   1      57.006   0.589  30.615  0.00  0.00     0.000 A 
ATOM     15  C   UNL d   1      56.999   0.595  31.441  0.00  0.00     0.000 A 
ATOM     16  C   UNL d   1      57.682   0.392  31.857  0.00  0.00     0.000 A 
ATOM     17  C   UNL d   1      58.370   0.184  31.458  0.00  0.00     0.003 A 
ENDBRANCH   2  12
BRANCH   3  18
ATOM     18  C   UNL d   1      58.376  -1.138  29.654  0.00  0.00     0.085 C 
BRANCH  18  19
ATOM     19  C   UNL d   1      58.436  -1.920  29.414  0.00  0.00     0.064 C 
BRANCH  19  20
ATOM     20  C   UNL d   1      57.766  -2.401  29.411  0.00  0.00     0.236 C 
ATOM     21  O   UNL d   1      57.813  -3.180  29.193  0.00  0.00    -0.283 OA
ENDBRANCH  19  20
ENDBRANCH  18  19
ENDBRANCH   3  18
TORSDOF 4
ENDMDL
MODEL 3
REMARK VINA RESULT:       0.4      1.901      3.552
REMARK  4 active torsions:
REMARK  status: ('A' for Active; 'I' for Inactive)
REMARK    1  A    between atoms: C_8  and  C_2 
REMARK    2  A    between atoms: C_9  and  N_3 
REMARK    3  A    between atoms: C_12  and  C_9 
REMARK    4  A    between atoms: C_14  and  C_12 
ROOT
ATOM      1  N   UNL d   1      58.974   0.320  32.066  0.00  0.00    -0.217 NA
ATOM      2  C   UNL d   1      58.384   0.202  31.507  0.00  0.00     0.149 A 
ATOM      3  N   UNL d   1      58.565   0.232  30.706  0.00  0.00    -0.290 N 
ATOM      4  C   UNL d   1      59.930   0.499  31.035  0.00  0.00     0.044 A 
ATOM      5  C   UNL d   1      59.746   0.468  31.840  0.00  0.00     0.139 A 
ATOM      6  C   UNL d   1      59.343   0.381  30.462  0.00  0.00     0.068 A 
ATOM      7  S   UNL d   1      60.330   0.585  32.393  0.00  0.00    -0.057 SA
ATOM      8  C   UNL d   1      60.702   0.647  30.797  0.00  0.00     0.004 A 
ATOM      9  C   UNL d   1      59.528   0.411  29.669  0.00  0.00     0.018 A 
ATOM     10  C   UNL d   1      60.889   0.678  30.001  0.00  0.00     0.000 A 
ATOM     11  C   UNL d   1      60.285   0.557  29.429  0.00  0.00     0.002 A 
ENDROOT
BRANCH   2  12
ATOM     12  C   UNL d   1      57.606   0.053  31.740  0.00  0.00     0.035 A 
ATOM     13  C   UNL d   1      57.116   0.676  31.954  0.00  0.00     0.003 A 
ATOM     14  C   UNL d   1      56.329   0.519  32.189  0.00  0.00     0.000 A 
ATOM     15  C   UNL d   1      56.052  -0.259  32.205  0.00  0.00     0.000 A 
ATOM     16  C   UNL d   1      56.554  -0.877  31.989  0.00  0.00     0.000 A 
ATOM     17  C   UNL d   1      57.328  -0.726  31.757  0.00  0.00     0.003 A 
ENDBRANCH   2  12
BRANCH   3  18
ATOM     18  C   UNL d   1      57.969   0.112  30.142  0.00  0.00     0.085 C 
BRANCH  18  19
ATOM     19  C   UNL d   1      57.935   0.606  29.489  0.00  0.00     0.064 C 
BRANCH  19  20
ATOM     20  C   UNL d   1      57.582   0.341  28.791  0.00  0.00     0.236 C 
ATOM     21  O   UNL d   1      56.884   0.659  28.531  0.00  0.00    -0.283 OA
ENDBRANCH  19  20
ENDBRANCH  18  19
ENDBRANCH   3  18
TORSDOF 4
ENDMDL
MODEL 4
REMARK VINA RESULT:       1.1      1.964      2.832
REMARK  4 active torsions:
REMARK  status: ('A' for Active; 'I' for Inactive)
REMARK    1  A    between atoms: C_8  and  C_2 
REMARK    2  A    between atoms: C_9  and  N_3 
REMARK    3  A    between atoms: C_12  and  C_9 
REMARK    4  A    between atoms: C_14  and  C_12 
ROOT
ATOM      1  N   UNL d   1      59.184   0.365  31.010  0.00  0.00    -0.217 NA
ATOM      2  C   UNL d   1      59.179  -0.058  30.307  0.00  0.00     0.149 A 
ATOM      3  N   UNL d   1      58.575  -0.596  30.156  0.00  0.00    -0.290 N 
ATOM      4  C   UNL d   1      57.988  -0.276  31.420  0.00  0.00     0.044 A 
ATOM      5  C   UNL d   1      58.596   0.263  31.570  0.00  0.00     0.139 A 
ATOM      6  C   UNL d   1      57.972  -0.710  30.713  0.00  0.00     0.068 A 
ATOM      7  S   UNL d   1      58.601   0.682  32.266  0.00  0.00    -0.057 SA
ATOM      8  C   UNL d   1      57.393  -0.387  31.974  0.00  0.00     0.004 A 
ATOM      9  C   UNL d   1      57.372  -1.241  30.568  0.00  0.00     0.018 A 
ATOM     10  C   UNL d   1      56.789  -0.920  31.830  0.00  0.00     0.000 A 
ATOM     11  C   UNL d   1      56.784  -1.354  31.109  0.00  0.00     0.002 A 
ENDROOT
BRANCH   2  12
ATOM     12  C   UNL d   1      59.774   0.049  29.746  0.00  0.00     0.035 A 
ATOM     13  C   UNL d   1      60.489  -0.346  29.828  0.00  0.00     0.003 A 
ATOM     14  C   UNL d   1      61.090  -0.235  29.257  0.00  0.00     0.000 A 
ATOM     15  C   UNL d   1      60.959   0.270  28.616  0.00  0.00     0.000 A 
ATOM     16  C   UNL d   1      60.237   0.662  28.544  0.00  0.00     0.000 A 
ATOM     17  C   UNL d   1      59.644   0.554  29.105  0.00  0.00     0.003 A 
ENDBRANCH   2  12
BRANCH   3  18
ATOM     18  C   UNL d   1      58.569  -1.023  29.446  0.00  0.00     0.085 C 
BRANCH  18  19
ATOM     19  C   UNL d   1      58.535  -1.842  29.474  0.00  0.00     0.064 C 
BRANCH  19  20
ATOM     20  C   UNL d   1      58.557  -2.278  28.774  0.00  0.00     0.236 C 
ATOM     21  O   UNL d   1      58.574  -3.088  28.789  0.00  0.00    -0.283 OA
ENDBRANCH  19  20
ENDBRANCH  18  19
ENDBRANCH   3  18
TORSDOF 4
ENDMDL
