MODEL 1
REMARK VINA RESULT:      59.0      0.000      0.000
REMARK  8 active torsions:
REMARK  status: ('A' for Active; 'I' for Inactive)
REMARK    1  A    between atoms: N_6  and  C_1 
REMARK    2  A    between atoms: N_7  and  C_2 
REMARK       I    between atoms: C_8  and  N_6 
REMARK       I    between atoms: C_9  and  N_7 
REMARK    3  A    between atoms: C_14  and  C_8 
REMARK    4  A    between atoms: C_15  and  C_9 
REMARK    5  A    between atoms: O_12  and  C_14 
REMARK    6  A    between atoms: C_16  and  O_12 
REMARK    7  A    between atoms: O_13  and  C_15 
REMARK    8  A    between atoms: C_17  and  O_13 
ROOT
ATOM      1  C   UNL d   1     -48.872  28.726  34.263  0.00  0.00     0.232 A 
ATOM      2  C   UNL d   1     -48.755  29.395  34.732  0.00  0.00     0.232 A 
ATOM      3  N   UNL d   1     -49.499  28.906  33.743  0.00  0.00    -0.081 NA
ATOM      4  N   UNL d   1     -49.289  29.965  34.512  0.00  0.00    -0.081 NA
ATOM      5  O   UNL d   1     -49.745  29.684  33.915  0.00  0.00    -0.103 OA
ENDROOT
BRANCH   1   6
ATOM      6  N   UNL d   1     -48.398  28.059  34.374  0.00  0.00    -0.182 NA
ATOM      7  C   UNL d   1     -48.715  27.302  34.244  0.00  0.00     0.306 C 
ATOM      8  O   UNL d   1     -48.255  26.624  34.350  0.00  0.00    -0.263 OA
BRANCH   7   9
ATOM      9  C   UNL d   1     -49.510  27.227  34.002  0.00  0.00     0.185 C 
BRANCH   9  10
ATOM     10  O   UNL d   1     -49.696  26.762  33.342  0.00  0.00    -0.300 OA
BRANCH  10  11
ATOM     11  C   UNL d   1     -50.378  26.299  33.337  0.00  0.00     0.100 A 
ATOM     12  C   UNL d   1     -51.116  26.675  33.310  0.00  0.00     0.025 A 
ATOM     13  C   UNL d   1     -51.800  26.215  33.306  0.00  0.00     0.002 A 
ATOM     14  C   UNL d   1     -51.758  25.397  33.327  0.00  0.00     0.000 A 
ATOM     15  C   UNL d   1     -51.017  25.019  33.353  0.00  0.00     0.002 A 
ATOM     16  C   UNL d   1     -50.321  25.478  33.358  0.00  0.00     0.025 A 
ENDBRANCH  10  11
ENDBRANCH   9  10
ENDBRANCH   7   9
ENDBRANCH   1   6
BRANCH   2  17
ATOM     17  N   UNL d   1     -48.173  29.465  35.339  0.00  0.00    -0.182 NA
ATOM     18  C   UNL d   1     -47.752  30.169  35.443  0.00  0.00     0.306 C 
ATOM     19  O   UNL d   1     -47.193  30.222  36.033  0.00  0.00    -0.263 OA
BRANCH  18  20
ATOM     20  C   UNL d   1     -47.907  30.821  34.936  0.00  0.00     0.185 C 
BRANCH  20  21
ATOM     21  O   UNL d   1     -47.628  31.571  35.118  0.00  0.00    -0.300 OA
BRANCH  21  22
ATOM     22  C   UNL d   1     -47.578  32.141  34.521  0.00  0.00     0.100 A 
ATOM     23  C   UNL d   1     -46.887  32.274  34.099  0.00  0.00     0.025 A 
ATOM     24  C   UNL d   1     -46.803  32.828  33.503  0.00  0.00     0.002 A 
ATOM     25  C   UNL d   1     -47.490  33.280  33.332  0.00  0.00     0.000 A 
ATOM     26  C   UNL d   1     -48.189  33.156  33.748  0.00  0.00     0.002 A 
ATOM     27  C   UNL d   1     -48.245  32.591  34.343  0.00  0.00     0.025 A 
ENDBRANCH  21  22
ENDBRANCH  20  21
ENDBRANCH  18  20
ENDBRANCH   2  17
TORSDOF 8
ENDMDL
MODEL 2
REMARK VINA RESULT:      60.6      1.080      1.348
REMARK  8 active torsions:
REMARK  status: ('A' for Active; 'I' for Inactive)
REMARK    1  A    between atoms: N_6  and  C_1 
REMARK    2  A    between atoms: N_7  and  C_2 
REMARK       I    between atoms: C_8  and  N_6 
REMARK       I    between atoms: C_9  and  N_7 
REMARK    3  A    between atoms: C_14  and  C_8 
REMARK    4  A    between atoms: C_15  and  C_9 
REMARK    5  A    between atoms: O_12  and  C_14 
REMARK    6  A    between atoms: C_16  and  O_12 
REMARK    7  A    between atoms: O_13  and  C_15 
REMARK    8  A    between atoms: C_17  and  O_13 
ROOT
ATOM      1  C   UNL d   1     -48.272  28.628  35.221  0.00  0.00     0.232 A 
ATOM      2  C   UNL d   1     -47.662  29.172  35.340  0.00  0.00     0.232 A 
ATOM      3  N   UNL d   1     -48.245  28.412  34.416  0.00  0.00    -0.081 NA
ATOM      4  N   UNL d   1     -47.274  29.287  34.637  0.00  0.00    -0.081 NA
ATOM      5  O   UNL d   1     -47.616  28.834  34.069  0.00  0.00    -0.103 OA
ENDROOT
BRANCH   1   6
ATOM      6  N   UNL d   1     -48.757  28.412  35.854  0.00  0.00    -0.182 NA
ATOM      7  C   UNL d   1     -49.347  27.838  35.741  0.00  0.00     0.306 C 
ATOM      8  O   UNL d   1     -49.841  27.609  36.363  0.00  0.00    -0.263 OA
BRANCH   7   9
ATOM      9  C   UNL d   1     -49.442  27.488  34.990  0.00  0.00     0.185 C 
BRANCH   9  10
ATOM     10  O   UNL d   1     -50.200  27.420  34.661  0.00  0.00    -0.300 OA
BRANCH  10  11
ATOM     11  C   UNL d   1     -50.399  26.762  34.207  0.00  0.00     0.100 A 
ATOM     12  C   UNL d   1     -51.186  26.504  34.199  0.00  0.00     0.025 A 
ATOM     13  C   UNL d   1     -51.389  25.846  33.746  0.00  0.00     0.002 A 
ATOM     14  C   UNL d   1     -50.823  25.448  33.306  0.00  0.00     0.000 A 
ATOM     15  C   UNL d   1     -50.032  25.707  33.313  0.00  0.00     0.002 A 
ATOM     16  C   UNL d   1     -49.821  26.372  33.770  0.00  0.00     0.025 A 
ENDBRANCH  10  11
ENDBRANCH   9  10
ENDBRANCH   7   9
ENDBRANCH   1   6
BRANCH   2  17
ATOM     17  N   UNL d   1     -47.480  29.542  36.076  0.00  0.00    -0.182 NA
ATOM     18  C   UNL d   1     -47.361  30.359  36.121  0.00  0.00     0.306 C 
ATOM     19  O   UNL d   1     -47.185  30.703  36.838  0.00  0.00    -0.263 OA
BRANCH  18  20
ATOM     20  C   UNL d   1     -47.423  30.825  35.423  0.00  0.00     0.185 C 
BRANCH  20  21
ATOM     21  O   UNL d   1     -47.447  31.644  35.465  0.00  0.00    -0.300 OA
BRANCH  21  22
ATOM     22  C   UNL d   1     -47.547  32.082  34.771  0.00  0.00     0.100 A 
ATOM     23  C   UNL d   1     -48.284  32.342  34.520  0.00  0.00     0.025 A 
ATOM     24  C   UNL d   1     -48.419  32.776  33.840  0.00  0.00     0.002 A 
ATOM     25  C   UNL d   1     -47.736  32.956  33.385  0.00  0.00     0.000 A 
ATOM     26  C   UNL d   1     -46.992  32.701  33.627  0.00  0.00     0.002 A 
ATOM     27  C   UNL d   1     -46.885  32.264  34.317  0.00  0.00     0.025 A 
ENDBRANCH  21  22
ENDBRANCH  20  21
ENDBRANCH  18  20
ENDBRANCH   2  17
TORSDOF 8
ENDMDL
MODEL 3
REMARK VINA RESULT:      61.3      1.028      5.608
REMARK  8 active torsions:
REMARK  status: ('A' for Active; 'I' for Inactive)
REMARK    1  A    between atoms: N_6  and  C_1 
REMARK    2  A    between atoms: N_7  and  C_2 
REMARK       I    between atoms: C_8  and  N_6 
REMARK       I    between atoms: C_9  and  N_7 
REMARK    3  A    between atoms: C_14  and  C_8 
REMARK    4  A    between atoms: C_15  and  C_9 
REMARK    5  A    between atoms: O_12  and  C_14 
REMARK    6  A    between atoms: C_16  and  O_12 
REMARK    7  A    between atoms: O_13  and  C_15 
REMARK    8  A    between atoms: C_17  and  O_13 
ROOT
ATOM      1  C   UNL d   1     -47.430  29.227  35.312  0.00  0.00     0.232 A 
ATOM      2  C   UNL d   1     -48.009  28.650  35.198  0.00  0.00     0.232 A 
ATOM      3  N   UNL d   1     -47.014  29.294  34.592  0.00  0.00    -0.081 NA
ATOM      4  N   UNL d   1     -47.953  28.372  34.438  0.00  0.00    -0.081 NA
ATOM      5  O   UNL d   1     -47.357  28.752  34.059  0.00  0.00    -0.103 OA
ENDROOT
BRANCH   1   6
ATOM      6  N   UNL d   1     -47.365  29.604  36.045  0.00  0.00    -0.182 NA
ATOM      7  C   UNL d   1     -47.326  30.433  36.078  0.00  0.00     0.306 C 
ATOM      8  O   UNL d   1     -47.261  30.826  36.802  0.00  0.00    -0.263 OA
BRANCH   7   9
ATOM      9  C   UNL d   1     -47.354  30.875  35.371  0.00  0.00     0.185 C 
BRANCH   9  10
ATOM     10  O   UNL d   1     -47.506  31.689  35.402  0.00  0.00    -0.300 OA
BRANCH  10  11
ATOM     11  C   UNL d   1     -47.561  32.128  34.707  0.00  0.00     0.100 A 
ATOM     12  C   UNL d   1     -46.868  32.434  34.370  0.00  0.00     0.025 A 
ATOM     13  C   UNL d   1     -46.920  32.873  33.674  0.00  0.00     0.002 A 
ATOM     14  C   UNL d   1     -47.644  33.010  33.316  0.00  0.00     0.000 A 
ATOM     15  C   UNL d   1     -48.340  32.703  33.653  0.00  0.00     0.002 A 
ATOM     16  C   UNL d   1     -48.294  32.258  34.357  0.00  0.00     0.025 A 
ENDBRANCH  10  11
ENDBRANCH   9  10
ENDBRANCH   7   9
ENDBRANCH   1   6
BRANCH   2  17
ATOM     17  N   UNL d   1     -48.563  28.398  35.782  0.00  0.00    -0.182 NA
ATOM     18  C   UNL d   1     -49.116  27.807  35.613  0.00  0.00     0.306 C 
ATOM     19  O   UNL d   1     -49.645  27.573  36.187  0.00  0.00    -0.263 OA
BRANCH  18  20
ATOM     20  C   UNL d   1     -49.124  27.455  34.850  0.00  0.00     0.185 C 
BRANCH  20  21
ATOM     21  O   UNL d   1     -49.747  27.587  34.332  0.00  0.00    -0.300 OA
BRANCH  21  22
ATOM     22  C   UNL d   1     -50.142  26.941  34.001  0.00  0.00     0.100 A 
ATOM     23  C   UNL d   1     -50.959  26.921  33.921  0.00  0.00     0.025 A 
ATOM     24  C   UNL d   1     -51.382  26.300  33.598  0.00  0.00     0.002 A 
ATOM     25  C   UNL d   1     -50.921  25.647  33.337  0.00  0.00     0.000 A 
ATOM     26  C   UNL d   1     -50.102  25.656  33.412  0.00  0.00     0.002 A 
ATOM     27  C   UNL d   1     -49.702  26.295  33.741  0.00  0.00     0.025 A 
ENDBRANCH  21  22
ENDBRANCH  20  21
ENDBRANCH  18  20
ENDBRANCH   2  17
TORSDOF 8
ENDMDL
