MODEL 1
REMARK VINA RESULT:      30.7      0.000      0.000
REMARK  6 active torsions:
REMARK  status: ('A' for Active; 'I' for Inactive)
REMARK    1  A    between atoms: C_2  and  C_4 
REMARK    2  A    between atoms: C_3  and  C_2 
REMARK       I    between atoms: N_8  and  C_3 
REMARK    3  A    between atoms: C_5  and  C_9 
REMARK    4  A    between atoms: O_16  and  C_5 
REMARK    5  A    between atoms: C_15  and  N_8 
REMARK    6  A    between atoms: C_21  and  O_16 
ROOT
ATOM      1  C   UNL d   1      13.320  12.632  -4.081  0.00  0.00     0.064 A 
ATOM      2  C   UNL d   1      13.481  13.405  -3.827  0.00  0.00     0.007 A 
ATOM      3  C   UNL d   1      13.350  12.006  -3.538  0.00  0.00     0.007 A 
ATOM      4  C   UNL d   1      13.696  12.913  -2.501  0.00  0.00     0.085 A 
ATOM      5  C   UNL d   1      13.537  12.149  -2.753  0.00  0.00     0.019 A 
ATOM      6  C   UNL d   1      13.669  13.546  -3.038  0.00  0.00     0.019 A 
ENDROOT
BRANCH   4   7
ATOM      7  N   UNL d   1      13.884  13.055  -1.713  0.00  0.00    -0.208 NA
ATOM      8  C   UNL d   1      14.639  12.879  -1.427  0.00  0.00     0.281 C 
ATOM      9  O   UNL d   1      15.201  12.560  -1.940  0.00  0.00    -0.265 OA
BRANCH   8  10
ATOM     10  C   UNL d   1      14.824  13.021  -0.641  0.00  0.00     0.086 C 
BRANCH  10  11
ATOM     11  C   UNL d   1      15.271  13.688  -0.432  0.00  0.00     0.144 A 
ATOM     12  C   UNL d   1      14.888  14.390  -0.230  0.00  0.00     0.297 A 
ATOM     13  N   UNL d   1      15.321  15.058  -0.021  0.00  0.00    -0.204 NA
ATOM     14  O   UNL d   1      14.059  14.422  -0.240  0.00  0.00    -0.264 OA
ATOM     15  C   UNL d   1      16.143  15.014  -0.015  0.00  0.00     0.123 A 
ATOM     16  C   UNL d   1      16.526  14.312  -0.216  0.00  0.00     0.120 A 
ATOM     17  N   UNL d   1      16.090  13.650  -0.424  0.00  0.00    -0.237 NA
ENDBRANCH  10  11
ENDBRANCH   8  10
ENDBRANCH   4   7
BRANCH   1  18
ATOM     18  C   UNL d   1      13.131  12.492  -4.875  0.00  0.00     0.300 C 
ATOM     19  O   UNL d   1      12.776  11.781  -5.096  0.00  0.00    -0.259 OA
BRANCH  18  20
ATOM     20  O   UNL d   1      13.297  13.060  -5.447  0.00  0.00    -0.271 OA
BRANCH  20  21
ATOM     21  C   UNL d   1      13.603  12.833  -6.173  0.00  0.00     0.126 C 
ATOM     22  C   UNL d   1      14.413  12.810  -6.288  0.00  0.00     0.029 C 
ENDBRANCH  20  21
ENDBRANCH  18  20
ENDBRANCH   1  18
TORSDOF 6
ENDMDL
