MODEL 1
REMARK VINA RESULT:       5.1      0.000      0.000
REMARK  5 active torsions:
REMARK  status: ('A' for Active; 'I' for Inactive)
REMARK    1  A    between atoms: C_7  and  N_1 
REMARK    2  A    between atoms: C_10  and  C_2 
REMARK    3  A    between atoms: C_11  and  C_5 
REMARK    4  A    between atoms: C_9  and  C_7 
REMARK    5  A    between atoms: O_16  and  C_9 
ROOT
ATOM      1  N   UNL d   1      57.601   0.136  31.863  0.00  0.00    -0.286 N 
ATOM      2  C   UNL d   1      57.780   0.326  32.646  0.00  0.00     0.148 A 
ATOM      3  N   UNL d   1      58.554   0.508  32.852  0.00  0.00    -0.228 NA
ATOM      4  C   UNL d   1      58.961   0.311  31.511  0.00  0.00     0.035 A 
ATOM      5  C   UNL d   1      58.200   0.131  31.301  0.00  0.00     0.067 A 
ATOM      6  C   UNL d   1      59.140   0.501  32.294  0.00  0.00     0.084 A 
ATOM      7  C   UNL d   1      59.552   0.305  30.951  0.00  0.00     0.014 A 
ATOM      8  C   UNL d   1      59.905   0.682  32.502  0.00  0.00     0.020 A 
ATOM      9  C   UNL d   1      60.326   0.487  31.157  0.00  0.00     0.058 A 
ATOM     10  C   UNL d   1      60.505   0.677  31.940  0.00  0.00     0.013 A 
ATOM     11 CL   UNL d   1      60.933   0.481  30.583  0.00  0.00    -0.082 Cl
ENDROOT
BRANCH   2  12
ATOM     12  C   UNL d   1      57.520   0.444  33.466  0.00  0.00     0.035 A 
ATOM     13  C   UNL d   1      58.106   0.519  34.108  0.00  0.00     0.003 A 
ATOM     14  C   UNL d   1      57.840   0.638  34.927  0.00  0.00     0.000 A 
ATOM     15  C   UNL d   1      56.980   0.681  35.104  0.00  0.00     0.000 A 
ATOM     16  C   UNL d   1      56.401   0.605  34.455  0.00  0.00     0.000 A 
ATOM     17  C   UNL d   1      56.667   0.488  33.643  0.00  0.00     0.003 A 
ENDBRANCH   2  12
BRANCH   1  18
ATOM     18  C   UNL d   1      56.827  -0.046  31.657  0.00  0.00     0.150 C 
BRANCH  18  19
ATOM     19  C   UNL d   1      56.434  -0.669  32.012  0.00  0.00     0.314 C 
ATOM     20  O   UNL d   1      56.866  -1.300  32.322  0.00  0.00    -0.257 OA
BRANCH  19  21
ATOM     21  O   UNL d   1      55.621  -0.671  32.061  0.00  0.00    -0.295 OA
ATOM     22  C   UNL d   1      55.227  -1.357  32.287  0.00  0.00     0.185 C 
ENDBRANCH  19  21
ENDBRANCH  18  19
ENDBRANCH   1  18
BRANCH   5  23
ATOM     23  C   UNL d   1      58.022  -0.059  30.518  0.00  0.00     0.016 A 
ATOM     24  C   UNL d   1      57.986  -0.834  30.287  0.00  0.00     0.001 A 
ATOM     25  C   UNL d   1      57.807  -1.024  29.504  0.00  0.00     0.000 A 
ATOM     26  C   UNL d   1      57.668  -0.436  28.966  0.00  0.00     0.000 A 
ATOM     27  C   UNL d   1      57.702   0.368  29.190  0.00  0.00     0.000 A 
ATOM     28  C   UNL d   1      57.881   0.544  29.976  0.00  0.00     0.001 A 
ENDBRANCH   5  23
TORSDOF 5
ENDMDL
MODEL 2
REMARK VINA RESULT:       5.7      1.462      3.460
REMARK  5 active torsions:
REMARK  status: ('A' for Active; 'I' for Inactive)
REMARK    1  A    between atoms: C_7  and  N_1 
REMARK    2  A    between atoms: C_10  and  C_2 
REMARK    3  A    between atoms: C_11  and  C_5 
REMARK    4  A    between atoms: C_9  and  C_7 
REMARK    5  A    between atoms: O_16  and  C_9 
ROOT
ATOM      1  N   UNL d   1      57.658   0.014  31.929  0.00  0.00    -0.286 N 
ATOM      2  C   UNL d   1      58.446   0.241  31.835  0.00  0.00     0.148 A 
ATOM      3  N   UNL d   1      58.886   0.458  32.494  0.00  0.00    -0.228 NA
ATOM      4  C   UNL d   1      57.765   0.223  33.325  0.00  0.00     0.035 A 
ATOM      5  C   UNL d   1      57.325   0.008  32.680  0.00  0.00     0.067 A 
ATOM      6  C   UNL d   1      58.552   0.450  33.231  0.00  0.00     0.084 A 
ATOM      7  C   UNL d   1      57.431   0.215  34.068  0.00  0.00     0.014 A 
ATOM      8  C   UNL d   1      58.992   0.666  33.882  0.00  0.00     0.020 A 
ATOM      9  C   UNL d   1      57.871   0.432  34.727  0.00  0.00     0.058 A 
ATOM     10  C   UNL d   1      58.659   0.660  34.633  0.00  0.00     0.013 A 
ATOM     11 CL   UNL d   1      57.529   0.425  35.489  0.00  0.00    -0.082 Cl
ENDROOT
BRANCH   2  12
ATOM     12  C   UNL d   1      59.128   0.383  31.317  0.00  0.00     0.035 A 
ATOM     13  C   UNL d   1      59.938   0.375  31.642  0.00  0.00     0.003 A 
ATOM     14  C   UNL d   1      60.617   0.518  31.118  0.00  0.00     0.000 A 
ATOM     15  C   UNL d   1      60.483   0.669  30.262  0.00  0.00     0.000 A 
ATOM     16  C   UNL d   1      59.669   0.675  29.946  0.00  0.00     0.000 A 
ATOM     17  C   UNL d   1      58.997   0.533  30.468  0.00  0.00     0.003 A 
ENDBRANCH   2  12
BRANCH   1  18
ATOM     18  C   UNL d   1      57.218  -0.203  31.270  0.00  0.00     0.150 C 
BRANCH  18  19
ATOM     19  C   UNL d   1      57.399  -0.882  30.850  0.00  0.00     0.314 C 
ATOM     20  O   UNL d   1      57.398  -1.612  31.235  0.00  0.00    -0.257 OA
BRANCH  19  21
ATOM     21  O   UNL d   1      57.578  -0.842  30.057  0.00  0.00    -0.295 OA
ATOM     22  C   UNL d   1      57.747  -1.531  29.641  0.00  0.00     0.185 C 
ENDBRANCH  19  21
ENDBRANCH  18  19
ENDBRANCH   1  18
BRANCH   5  23
ATOM     23  C   UNL d   1      56.538  -0.219  32.774  0.00  0.00     0.016 A 
ATOM     24  C   UNL d   1      55.942   0.306  32.616  0.00  0.00     0.001 A 
ATOM     25  C   UNL d   1      55.155   0.079  32.710  0.00  0.00     0.000 A 
ATOM     26  C   UNL d   1      54.976  -0.670  32.960  0.00  0.00     0.000 A 
ATOM     27  C   UNL d   1      55.580  -1.222  33.126  0.00  0.00     0.000 A 
ATOM     28  C   UNL d   1      56.363  -0.982  33.028  0.00  0.00     0.001 A 
ENDBRANCH   5  23
TORSDOF 5
ENDMDL
MODEL 3
REMARK VINA RESULT:       6.6      0.776      1.102
REMARK  5 active torsions:
REMARK  status: ('A' for Active; 'I' for Inactive)
REMARK    1  A    between atoms: C_7  and  N_1 
REMARK    2  A    between atoms: C_10  and  C_2 
REMARK    3  A    between atoms: C_11  and  C_5 
REMARK    4  A    between atoms: C_9  and  C_7 
REMARK    5  A    between atoms: O_16  and  C_9 
ROOT
ATOM      1  N   UNL d   1      57.817  -0.461  31.253  0.00  0.00    -0.286 N 
ATOM      2  C   UNL d   1      57.882  -0.063  31.973  0.00  0.00     0.148 A 
ATOM      3  N   UNL d   1      58.585   0.318  32.163  0.00  0.00    -0.228 NA
ATOM      4  C   UNL d   1      59.147  -0.095  30.931  0.00  0.00     0.035 A 
ATOM      5  C   UNL d   1      58.457  -0.472  30.737  0.00  0.00     0.067 A 
ATOM      6  C   UNL d   1      59.211   0.303  31.651  0.00  0.00     0.084 A 
ATOM      7  C   UNL d   1      59.778  -0.109  30.417  0.00  0.00     0.014 A 
ATOM      8  C   UNL d   1      59.906   0.681  31.843  0.00  0.00     0.020 A 
ATOM      9  C   UNL d   1      60.481   0.272  30.608  0.00  0.00     0.058 A 
ATOM     10  C   UNL d   1      60.545   0.671  31.328  0.00  0.00     0.013 A 
ATOM     11 CL   UNL d   1      61.129   0.259  30.081  0.00  0.00    -0.082 Cl
ENDROOT
BRANCH   2  12
ATOM     12  C   UNL d   1      57.528   0.186  32.726  0.00  0.00     0.035 A 
ATOM     13  C   UNL d   1      56.686   0.413  32.764  0.00  0.00     0.003 A 
ATOM     14  C   UNL d   1      56.338   0.661  33.521  0.00  0.00     0.000 A 
ATOM     15  C   UNL d   1      56.837   0.681  34.245  0.00  0.00     0.000 A 
ATOM     16  C   UNL d   1      57.678   0.452  34.196  0.00  0.00     0.000 A 
ATOM     17  C   UNL d   1      58.022   0.206  33.444  0.00  0.00     0.003 A 
ENDBRANCH   2  12
BRANCH   1  18
ATOM     18  C   UNL d   1      57.114  -0.842  31.063  0.00  0.00     0.150 C 
BRANCH  18  19
ATOM     19  C   UNL d   1      56.853  -1.483  31.499  0.00  0.00     0.314 C 
ATOM     20  O   UNL d   1      57.246  -2.206  31.437  0.00  0.00    -0.257 OA
BRANCH  19  21
ATOM     21  O   UNL d   1      56.210  -1.413  31.992  0.00  0.00    -0.295 OA
ATOM     22  C   UNL d   1      55.776  -2.080  32.196  0.00  0.00     0.185 C 
ENDBRANCH  19  21
ENDBRANCH  18  19
ENDBRANCH   1  18
BRANCH   5  23
ATOM     23  C   UNL d   1      58.392  -0.871  30.018  0.00  0.00     0.016 A 
ATOM     24  C   UNL d   1      58.742  -1.595  29.922  0.00  0.00     0.001 A 
ATOM     25  C   UNL d   1      58.678  -1.994  29.203  0.00  0.00     0.000 A 
ATOM     26  C   UNL d   1      58.264  -1.661  28.591  0.00  0.00     0.000 A 
ATOM     27  C   UNL d   1      57.899  -0.915  28.675  0.00  0.00     0.000 A 
ATOM     28  C   UNL d   1      57.971  -0.527  29.400  0.00  0.00     0.001 A 
ENDBRANCH   5  23
TORSDOF 5
ENDMDL
