MODEL 1
REMARK VINA RESULT:      41.0      0.000      0.000
REMARK  4 active torsions:
REMARK  status: ('A' for Active; 'I' for Inactive)
REMARK    1  A    between atoms: C_12  and  N_1 
REMARK    2  A    between atoms: N_3  and  C_11 
REMARK    3  A    between atoms: C_11  and  C_15 
REMARK    4  A    between atoms: C_15  and  C_12 
ROOT
ATOM      1  N   UNL d   1      13.495  13.021  -3.068  0.00  0.00    -0.303 N 
ATOM      2  C   UNL d   1      13.653  13.834  -3.143  0.00  0.00     0.064 A 
ATOM      3  C   UNL d   1      13.687  14.013  -3.948  0.00  0.00     0.018 A 
ATOM      4  C   UNL d   1      13.553  13.318  -4.374  0.00  0.00     0.018 A 
ATOM      5  C   UNL d   1      13.434  12.702  -3.828  0.00  0.00     0.064 A 
ATOM      6  C   UNL d   1      13.285  11.936  -4.097  0.00  0.00     0.018 A 
ATOM      7  C   UNL d   1      13.522  13.162  -5.184  0.00  0.00     0.002 A 
ATOM      8  C   UNL d   1      13.255  11.782  -4.904  0.00  0.00     0.002 A 
ATOM      9  C   UNL d   1      13.374  12.392  -5.445  0.00  0.00     0.000 A 
ATOM     10  C   UNL d   1      13.755  14.365  -2.522  0.00  0.00     0.019 C 
ATOM     11  C   UNL d   1      13.832  14.759  -4.268  0.00  0.00     0.002 C 
ATOM     12  C   UNL d   1      13.344  12.238  -6.252  0.00  0.00     0.000 C 
ENDROOT
BRANCH   1  13
ATOM     13  C   UNL d   1      13.415  12.605  -2.357  0.00  0.00     0.124 C 
BRANCH  13  14
ATOM     14  C   UNL d   1      14.075  12.234  -2.025  0.00  0.00     0.232 C 
ATOM     15  O   UNL d   1      14.651  11.914  -2.510  0.00  0.00    -0.283 OA
BRANCH  14  16
ATOM     16  C   UNL d   1      14.146  12.190  -1.206  0.00  0.00     0.144 C 
BRANCH  16  17
ATOM     17  N   UNL d   1      14.633  12.713  -0.800  0.00  0.00    -0.225 N 
ATOM     18  N   UNL d   1      14.488  13.522  -0.696  0.00  0.00    -0.165 NA
ATOM     19  C   UNL d   1      15.115  13.838  -0.257  0.00  0.00     0.103 A 
ATOM     20  C   UNL d   1      15.204  14.621  -0.022  0.00  0.00     0.022 C 
ATOM     21  C   UNL d   1      15.647  13.223  -0.090  0.00  0.00     0.040 A 
ATOM     22  C   UNL d   1      15.346  12.529  -0.428  0.00  0.00     0.085 A 
ATOM     23  C   UNL d   1      15.696  11.785  -0.398  0.00  0.00     0.021 C 
ENDBRANCH  16  17
ENDBRANCH  14  16
ENDBRANCH  13  14
ENDBRANCH   1  13
TORSDOF 4
ENDMDL
