MODEL 1
REMARK VINA RESULT:      -2.8      0.000      0.000
REMARK  3 active torsions:
REMARK  status: ('A' for Active; 'I' for Inactive)
REMARK    1  A    between atoms: C_7  and  C_1 
REMARK       I    between atoms: C_6  and  N_9 
REMARK       I    between atoms: N_8  and  C_6 
REMARK    2  A    between atoms: N_9  and  C_7 
REMARK    3  A    between atoms: C_11  and  N_8 
ROOT
ATOM      1  C   UNL d   1      32.569  16.409 -24.623  0.00  0.00     0.369 C 
ATOM      2  N   UNL d   1      33.232  16.885 -24.471  0.00  0.00    -0.191 NA
ATOM      3  N   UNL d   1      31.837  16.602 -24.305  0.00  0.00    -0.189 NA
ATOM      4  O   UNL d   1      32.645  15.735 -25.097  0.00  0.00    -0.242 OA
ENDROOT
BRANCH   3   5
ATOM      5  C   UNL d   1      31.183  16.128 -24.458  0.00  0.00     0.107 C 
BRANCH   5   6
ATOM      6  C   UNL d   1      30.416  16.415 -24.297  0.00  0.00     0.058 A 
ATOM      7  C   UNL d   1      29.889  16.102 -23.743  0.00  0.00     0.104 A 
ATOM      8  N   UNL d   1      29.194  16.554 -23.764  0.00  0.00    -0.165 NA
ATOM      9  C   UNL d   1      30.030  15.453 -23.253  0.00  0.00     0.023 C 
ATOM     10  N   UNL d   1      29.297  17.146 -24.334  0.00  0.00    -0.225 N 
ATOM     11  C   UNL d   1      30.048  17.061 -24.662  0.00  0.00     0.104 A 
ATOM     12  C   UNL d   1      28.747  17.717 -24.535  0.00  0.00     0.121 C 
ENDBRANCH   5   6
ENDBRANCH   3   5
BRANCH   2  13
ATOM     13  C   UNL d   1      33.146  17.549 -24.001  0.00  0.00     0.086 A 
ATOM     14  C   UNL d   1      32.991  18.286 -24.338  0.00  0.00     0.020 A 
ATOM     15  C   UNL d   1      32.908  18.946 -23.846  0.00  0.00     0.013 A 
ATOM     16  C   UNL d   1      32.976  18.877 -23.034  0.00  0.00     0.058 A 
ATOM     17  C   UNL d   1      33.129  18.143 -22.709  0.00  0.00     0.013 A 
ATOM     18 CL   UNL d   1      32.893  19.538 -22.546  0.00  0.00    -0.082 Cl
ATOM     19  C   UNL d   1      33.216  17.478 -23.175  0.00  0.00     0.020 A 
ENDBRANCH   2  13
TORSDOF 3
ENDMDL
MODEL 2
REMARK VINA RESULT:      -2.5      1.576      3.622
REMARK  3 active torsions:
REMARK  status: ('A' for Active; 'I' for Inactive)
REMARK    1  A    between atoms: C_7  and  C_1 
REMARK       I    between atoms: C_6  and  N_9 
REMARK       I    between atoms: N_8  and  C_6 
REMARK    2  A    between atoms: N_9  and  C_7 
REMARK    3  A    between atoms: C_11  and  N_8 
ROOT
ATOM      1  C   UNL d   1      32.300  16.033 -24.369  0.00  0.00     0.369 C 
ATOM      2  N   UNL d   1      31.587  15.612 -24.437  0.00  0.00    -0.191 NA
ATOM      3  N   UNL d   1      32.293  16.845 -24.251  0.00  0.00    -0.189 NA
ATOM      4  O   UNL d   1      33.021  15.631 -24.422  0.00  0.00    -0.242 OA
ENDROOT
BRANCH   3   5
ATOM      5  C   UNL d   1      33.001  17.258 -24.185  0.00  0.00     0.107 C 
BRANCH   5   6
ATOM      6  C   UNL d   1      33.004  18.026 -23.862  0.00  0.00     0.058 A 
ATOM      7  C   UNL d   1      33.113  18.729 -24.284  0.00  0.00     0.104 A 
ATOM      8  N   UNL d   1      33.075  19.360 -23.748  0.00  0.00    -0.165 NA
ATOM      9  C   UNL d   1      33.239  18.790 -25.097  0.00  0.00     0.023 C 
ATOM     10  N   UNL d   1      32.942  19.043 -22.995  0.00  0.00    -0.225 N 
ATOM     11  C   UNL d   1      32.898  18.223 -23.065  0.00  0.00     0.104 A 
ATOM     12  C   UNL d   1      32.866  19.471 -22.302  0.00  0.00     0.121 C 
ENDBRANCH   5   6
ENDBRANCH   3   5
BRANCH   2  13
ATOM     13  C   UNL d   1      30.878  16.018 -24.384  0.00  0.00     0.086 A 
ATOM     14  C   UNL d   1      30.491  16.096 -23.660  0.00  0.00     0.020 A 
ATOM     15  C   UNL d   1      29.776  16.509 -23.626  0.00  0.00     0.013 A 
ATOM     16  C   UNL d   1      29.449  16.840 -24.299  0.00  0.00     0.058 A 
ATOM     17  C   UNL d   1      29.840  16.758 -25.012  0.00  0.00     0.013 A 
ATOM     18 CL   UNL d   1      28.734  17.252 -24.262  0.00  0.00    -0.082 Cl
ATOM     19  C   UNL d   1      30.547  16.354 -25.069  0.00  0.00     0.020 A 
ENDBRANCH   2  13
TORSDOF 3
ENDMDL
MODEL 3
REMARK VINA RESULT:      -1.8      1.615      3.559
REMARK  3 active torsions:
REMARK  status: ('A' for Active; 'I' for Inactive)
REMARK    1  A    between atoms: C_7  and  C_1 
REMARK       I    between atoms: C_6  and  N_9 
REMARK       I    between atoms: N_8  and  C_6 
REMARK    2  A    between atoms: N_9  and  C_7 
REMARK    3  A    between atoms: C_11  and  N_8 
ROOT
ATOM      1  C   UNL d   1      30.802  16.048 -24.807  0.00  0.00     0.369 C 
ATOM      2  N   UNL d   1      29.982  15.923 -24.803  0.00  0.00    -0.191 NA
ATOM      3  N   UNL d   1      31.116  16.756 -24.532  0.00  0.00    -0.189 NA
ATOM      4  O   UNL d   1      31.308  15.458 -25.089  0.00  0.00    -0.242 OA
ENDROOT
BRANCH   3   5
ATOM      5  C   UNL d   1      31.930  16.875 -24.538  0.00  0.00     0.107 C 
BRANCH   5   6
ATOM      6  C   UNL d   1      32.235  17.646 -24.451  0.00  0.00     0.058 A 
ATOM      7  C   UNL d   1      32.572  17.958 -23.763  0.00  0.00     0.104 A 
ATOM      8  N   UNL d   1      32.802  18.739 -23.919  0.00  0.00    -0.165 NA
ATOM      9  C   UNL d   1      32.665  17.560 -23.046  0.00  0.00     0.023 C 
ATOM     10  N   UNL d   1      32.603  18.906 -24.706  0.00  0.00    -0.225 N 
ATOM     11  C   UNL d   1      32.255  18.235 -25.033  0.00  0.00     0.104 A 
ATOM     12  C   UNL d   1      32.732  19.617 -25.091  0.00  0.00     0.121 C 
ENDBRANCH   5   6
ENDBRANCH   3   5
BRANCH   2  13
ATOM     13  C   UNL d   1      29.490  16.513 -24.521  0.00  0.00     0.086 A 
ATOM     14  C   UNL d   1      29.256  17.135 -25.010  0.00  0.00     0.020 A 
ATOM     15  C   UNL d   1      28.758  17.723 -24.708  0.00  0.00     0.013 A 
ATOM     16  C   UNL d   1      28.497  17.695 -23.933  0.00  0.00     0.058 A 
ATOM     17  C   UNL d   1      28.734  17.075 -23.456  0.00  0.00     0.013 A 
ATOM     18 CL   UNL d   1      28.000  18.283 -23.635  0.00  0.00    -0.082 Cl
ATOM     19  C   UNL d   1      29.224  16.484 -23.733  0.00  0.00     0.020 A 
ENDBRANCH   2  13
TORSDOF 3
ENDMDL
MODEL 4
REMARK VINA RESULT:      -1.0      1.674      3.731
REMARK  3 active torsions:
REMARK  status: ('A' for Active; 'I' for Inactive)
REMARK    1  A    between atoms: C_7  and  C_1 
REMARK       I    between atoms: C_6  and  N_9 
REMARK       I    between atoms: N_8  and  C_6 
REMARK    2  A    between atoms: N_9  and  C_7 
REMARK    3  A    between atoms: C_11  and  N_8 
ROOT
ATOM      1  C   UNL d   1      30.469  16.039 -23.162  0.00  0.00     0.369 C 
ATOM      2  N   UNL d   1      29.642  16.093 -23.220  0.00  0.00    -0.191 NA
ATOM      3  N   UNL d   1      30.949  16.562 -23.574  0.00  0.00    -0.189 NA
ATOM      4  O   UNL d   1      30.811  15.454 -22.688  0.00  0.00    -0.242 OA
ENDROOT
BRANCH   3   5
ATOM      5  C   UNL d   1      31.767  16.504 -23.514  0.00  0.00     0.107 C 
BRANCH   5   6
ATOM      6  C   UNL d   1      32.243  17.168 -23.683  0.00  0.00     0.058 A 
ATOM      7  C   UNL d   1      32.695  17.277 -24.367  0.00  0.00     0.104 A 
ATOM      8  N   UNL d   1      33.079  18.010 -24.308  0.00  0.00    -0.165 NA
ATOM      9  C   UNL d   1      32.755  16.748 -24.997  0.00  0.00     0.023 C 
ATOM     10  N   UNL d   1      32.860  18.350 -23.586  0.00  0.00    -0.225 N 
ATOM     11  C   UNL d   1      32.346  17.833 -23.202  0.00  0.00     0.104 A 
ATOM     12  C   UNL d   1      33.112  19.075 -23.303  0.00  0.00     0.121 C 
ENDBRANCH   5   6
ENDBRANCH   3   5
BRANCH   2  13
ATOM     13  C   UNL d   1      29.313  16.675 -23.692  0.00  0.00     0.086 A 
ATOM     14  C   UNL d   1      29.306  16.596 -24.513  0.00  0.00     0.020 A 
ATOM     15  C   UNL d   1      28.969  17.195 -24.974  0.00  0.00     0.013 A 
ATOM     16  C   UNL d   1      28.644  17.861 -24.627  0.00  0.00     0.058 A 
ATOM     17  C   UNL d   1      28.656  17.930 -23.812  0.00  0.00     0.013 A 
ATOM     18 CL   UNL d   1      28.309  18.457 -25.090  0.00  0.00    -0.082 Cl
ATOM     19  C   UNL d   1      28.984  17.351 -23.338  0.00  0.00     0.020 A 
ENDBRANCH   2  13
TORSDOF 3
ENDMDL
MODEL 5
REMARK VINA RESULT:      -0.6      4.572      6.016
REMARK  3 active torsions:
REMARK  status: ('A' for Active; 'I' for Inactive)
REMARK    1  A    between atoms: C_7  and  C_1 
REMARK       I    between atoms: C_6  and  N_9 
REMARK       I    between atoms: N_8  and  C_6 
REMARK    2  A    between atoms: N_9  and  C_7 
REMARK    3  A    between atoms: C_11  and  N_8 
ROOT
ATOM      1  C   UNL d   1      32.676  23.105 -22.881  0.00  0.00     0.369 C 
ATOM      2  N   UNL d   1      32.436  23.701 -22.357  0.00  0.00    -0.191 NA
ATOM      3  N   UNL d   1      32.942  22.383 -22.595  0.00  0.00    -0.189 NA
ATOM      4  O   UNL d   1      32.648  23.238 -23.697  0.00  0.00    -0.242 OA
ENDROOT
BRANCH   3   5
ATOM      5  C   UNL d   1      33.180  21.794 -23.119  0.00  0.00     0.107 C 
BRANCH   5   6
ATOM      6  C   UNL d   1      33.200  21.000 -22.867  0.00  0.00     0.058 A 
ATOM      7  C   UNL d   1      33.217  20.336 -23.360  0.00  0.00     0.104 A 
ATOM      8  N   UNL d   1      33.235  19.660 -22.881  0.00  0.00    -0.165 NA
ATOM      9  C   UNL d   1      33.217  20.346 -24.185  0.00  0.00     0.023 C 
ATOM     10  N   UNL d   1      33.228  19.910 -22.092  0.00  0.00    -0.225 N 
ATOM     11  C   UNL d   1      33.207  20.734 -22.083  0.00  0.00     0.104 A 
ATOM     12  C   UNL d   1      33.241  19.423 -21.435  0.00  0.00     0.121 C 
ENDBRANCH   5   6
ENDBRANCH   3   5
BRANCH   2  13
ATOM     13  C   UNL d   1      32.467  23.560 -21.551  0.00  0.00     0.086 A 
ATOM     14  C   UNL d   1      31.787  23.351 -21.134  0.00  0.00     0.020 A 
ATOM     15  C   UNL d   1      31.838  23.212 -20.320  0.00  0.00     0.013 A 
ATOM     16  C   UNL d   1      32.551  23.279 -19.926  0.00  0.00     0.058 A 
ATOM     17  C   UNL d   1      33.220  23.487 -20.348  0.00  0.00     0.013 A 
ATOM     18 CL   UNL d   1      32.599  23.140 -19.113  0.00  0.00    -0.082 Cl
ATOM     19  C   UNL d   1      33.193  23.629 -21.151  0.00  0.00     0.020 A 
ENDBRANCH   2  13
TORSDOF 3
ENDMDL
