MODEL 1
REMARK VINA RESULT:      -4.8      0.000      0.000
REMARK  5 active torsions:
REMARK  status: ('A' for Active; 'I' for Inactive)
REMARK    1  A    between atoms: N_2  and  S_1 
REMARK    2  A    between atoms: C_7  and  S_1 
REMARK    3  A    between atoms: C_3  and  N_2 
REMARK    4  A    between atoms: C_14  and  C_4 
REMARK    5  A    between atoms: O_19  and  C_16 
ROOT
ATOM      1  N   UNL d   1      57.885  -0.048  30.492  0.00  0.00    -0.158 NA
ENDROOT
BRANCH   1   2
ATOM      2  S   UNL d   1      57.516   0.076  31.348  0.00  0.00     0.285 S 
ATOM      3  O   UNL d   1      58.099   0.682  31.751  0.00  0.00    -0.198 OA
ATOM      4  O   UNL d   1      56.935  -0.538  30.925  0.00  0.00    -0.198 OA
BRANCH   2   5
ATOM      5  C   UNL d   1      57.009  -0.058  31.859  0.00  0.00     0.105 A 
ATOM      6  C   UNL d   1      56.749  -0.745  31.944  0.00  0.00     0.015 A 
ATOM      7  C   UNL d   1      56.238  -0.879  32.460  0.00  0.00     0.025 A 
ATOM      8  C   UNL d   1      55.980  -0.333  32.894  0.00  0.00     0.094 A 
ATOM      9  C   UNL d   1      56.239   0.354  32.809  0.00  0.00     0.025 A 
ATOM     10  C   UNL d   1      56.761   0.496  32.285  0.00  0.00     0.015 A 
BRANCH   8  11
ATOM     11  O   UNL d   1      55.472  -0.479  33.403  0.00  0.00    -0.328 OA
ATOM     12  C   UNL d   1      55.055   0.010  33.744  0.00  0.00     0.181 C 
ENDBRANCH   8  11
ENDBRANCH   2   5
ENDBRANCH   1   2
BRANCH   1  13
ATOM     13  C   UNL d   1      58.541   0.136  30.006  0.00  0.00     0.094 A 
ATOM     14  C   UNL d   1      59.303  -0.003  30.283  0.00  0.00     0.023 A 
ATOM     15  C   UNL d   1      59.957   0.182  29.797  0.00  0.00     0.041 A 
ATOM     16  C   UNL d   1      59.837   0.500  29.044  0.00  0.00     0.196 A 
ATOM     17  C   UNL d   1      59.065   0.636  28.774  0.00  0.00     0.044 A 
ATOM     18  O   UNL d   1      60.481   0.681  28.565  0.00  0.00    -0.287 OA
ATOM     19  C   UNL d   1      58.420   0.454  29.253  0.00  0.00     0.022 A 
ATOM     20  C   UNL d   1      57.649   0.590  28.982  0.00  0.00     0.002 C 
BRANCH  15  21
ATOM     21  C   UNL d   1      60.729   0.046  30.067  0.00  0.00     0.003 C 
ATOM     22  C   UNL d   1      61.133  -0.646  29.851  0.00  0.00     0.000 C 
ATOM     23  C   UNL d   1      61.105   0.613  30.562  0.00  0.00     0.000 C 
ENDBRANCH  15  21
ENDBRANCH   1  13
TORSDOF 5
ENDMDL
MODEL 2
REMARK VINA RESULT:      -3.1      9.143     10.222
REMARK  5 active torsions:
REMARK  status: ('A' for Active; 'I' for Inactive)
REMARK    1  A    between atoms: N_2  and  S_1 
REMARK    2  A    between atoms: C_7  and  S_1 
REMARK    3  A    between atoms: C_3  and  N_2 
REMARK    4  A    between atoms: C_14  and  C_4 
REMARK    5  A    between atoms: O_19  and  C_16 
ROOT
ATOM      1  N   UNL d   1      59.593  -9.488  33.467  0.00  0.00    -0.158 NA
ENDROOT
BRANCH   1   2
ATOM      2  S   UNL d   1      58.816  -9.635  32.958  0.00  0.00     0.285 S 
ATOM      3  O   UNL d   1      58.166  -9.818  33.601  0.00  0.00    -0.198 OA
ATOM      4  O   UNL d   1      59.487  -9.448  32.319  0.00  0.00    -0.198 OA
BRANCH   2   5
ATOM      5  C   UNL d   1      58.459  -9.680  32.320  0.00  0.00     0.105 A 
ATOM      6  C   UNL d   1      58.844  -9.766  31.693  0.00  0.00     0.015 A 
ATOM      7  C   UNL d   1      58.484  -9.811  31.050  0.00  0.00     0.025 A 
ATOM      8  C   UNL d   1      57.741  -9.770  31.023  0.00  0.00     0.094 A 
ATOM      9  C   UNL d   1      57.358  -9.684  31.649  0.00  0.00     0.025 A 
ATOM     10  C   UNL d   1      57.720  -9.638  32.307  0.00  0.00     0.015 A 
BRANCH   8  11
ATOM     11  O   UNL d   1      57.396  -9.816  30.378  0.00  0.00    -0.328 OA
ATOM     12  C   UNL d   1      57.688  -9.676  29.725  0.00  0.00     0.181 C 
ENDBRANCH   8  11
ENDBRANCH   2   5
ENDBRANCH   1   2
BRANCH   1  13
ATOM     13  C   UNL d   1      59.898  -9.083  34.133  0.00  0.00     0.094 A 
ATOM     14  C   UNL d   1      59.429  -8.532  34.522  0.00  0.00     0.023 A 
ATOM     15  C   UNL d   1      59.734  -8.128  35.187  0.00  0.00     0.041 A 
ATOM     16  C   UNL d   1      60.502  -8.283  35.449  0.00  0.00     0.196 A 
ATOM     17  C   UNL d   1      60.967  -8.841  35.049  0.00  0.00     0.044 A 
ATOM     18  O   UNL d   1      60.803  -7.885  36.104  0.00  0.00    -0.287 OA
ATOM     19  C   UNL d   1      60.667  -9.239  34.394  0.00  0.00     0.022 A 
ATOM     20  C   UNL d   1      61.133  -9.796  33.995  0.00  0.00     0.002 C 
BRANCH  15  21
ATOM     21  C   UNL d   1      59.269  -7.571  35.587  0.00  0.00     0.003 C 
ATOM     22  C   UNL d   1      59.198  -6.797  35.294  0.00  0.00     0.000 C 
ATOM     23  C   UNL d   1      58.867  -7.790  36.292  0.00  0.00     0.000 C 
ENDBRANCH  15  21
ENDBRANCH   1  13
TORSDOF 5
ENDMDL
MODEL 3
REMARK VINA RESULT:      -2.5      1.078      1.877
REMARK  5 active torsions:
REMARK  status: ('A' for Active; 'I' for Inactive)
REMARK    1  A    between atoms: N_2  and  S_1 
REMARK    2  A    between atoms: C_7  and  S_1 
REMARK    3  A    between atoms: C_3  and  N_2 
REMARK    4  A    between atoms: C_14  and  C_4 
REMARK    5  A    between atoms: O_19  and  C_16 
ROOT
ATOM      1  N   UNL d   1      57.747  -0.046  31.803  0.00  0.00    -0.158 NA
ENDROOT
BRANCH   1   2
ATOM      2  S   UNL d   1      56.908   0.220  32.136  0.00  0.00     0.285 S 
ATOM      3  O   UNL d   1      56.521   0.671  31.417  0.00  0.00    -0.198 OA
ATOM      4  O   UNL d   1      57.315  -0.239  32.855  0.00  0.00    -0.198 OA
BRANCH   2   5
ATOM      5  C   UNL d   1      56.405   0.256  32.667  0.00  0.00     0.105 A 
ATOM      6  C   UNL d   1      56.550   0.641  33.282  0.00  0.00     0.015 A 
ATOM      7  C   UNL d   1      56.042   0.676  33.817  0.00  0.00     0.025 A 
ATOM      8  C   UNL d   1      55.387   0.330  33.746  0.00  0.00     0.094 A 
ATOM      9  C   UNL d   1      55.242  -0.055  33.132  0.00  0.00     0.025 A 
ATOM     10  C   UNL d   1      55.757  -0.094  32.584  0.00  0.00     0.015 A 
BRANCH   8  11
ATOM     11  O   UNL d   1      54.892   0.373  34.285  0.00  0.00    -0.328 OA
ATOM     12  C   UNL d   1      55.029   0.536  34.981  0.00  0.00     0.181 C 
ENDBRANCH   8  11
ENDBRANCH   2   5
ENDBRANCH   1   2
BRANCH   1  13
ATOM     13  C   UNL d   1      58.300   0.079  31.187  0.00  0.00     0.094 A 
ATOM     14  C   UNL d   1      58.114  -0.158  30.422  0.00  0.00     0.023 A 
ATOM     15  C   UNL d   1      58.667  -0.033  29.807  0.00  0.00     0.041 A 
ATOM     16  C   UNL d   1      59.393   0.327  29.970  0.00  0.00     0.196 A 
ATOM     17  C   UNL d   1      59.569   0.562  30.745  0.00  0.00     0.044 A 
ATOM     18  O   UNL d   1      59.937   0.450  29.365  0.00  0.00    -0.287 OA
ATOM     19  C   UNL d   1      59.025   0.439  31.351  0.00  0.00     0.022 A 
ATOM     20  C   UNL d   1      59.203   0.675  32.125  0.00  0.00     0.002 C 
BRANCH  15  21
ATOM     21  C   UNL d   1      58.490  -0.269  29.033  0.00  0.00     0.003 C 
ATOM     22  C   UNL d   1      58.680  -1.035  28.774  0.00  0.00     0.000 C 
ATOM     23  C   UNL d   1      58.117   0.270  28.506  0.00  0.00     0.000 C 
ENDBRANCH  15  21
ENDBRANCH   1  13
TORSDOF 5
ENDMDL
MODEL 4
REMARK VINA RESULT:      -2.4      1.218      4.762
REMARK  5 active torsions:
REMARK  status: ('A' for Active; 'I' for Inactive)
REMARK    1  A    between atoms: N_2  and  S_1 
REMARK    2  A    between atoms: C_7  and  S_1 
REMARK    3  A    between atoms: C_3  and  N_2 
REMARK    4  A    between atoms: C_14  and  C_4 
REMARK    5  A    between atoms: O_19  and  C_16 
ROOT
ATOM      1  N   UNL d   1      57.897   0.512  32.107  0.00  0.00    -0.158 NA
ENDROOT
BRANCH   1   2
ATOM      2  S   UNL d   1      57.926   0.345  31.182  0.00  0.00     0.285 S 
ATOM      3  O   UNL d   1      57.090   0.630  30.883  0.00  0.00    -0.198 OA
ATOM      4  O   UNL d   1      58.769   0.060  31.501  0.00  0.00    -0.198 OA
BRANCH   2   5
ATOM      5  C   UNL d   1      58.266   0.107  30.578  0.00  0.00     0.105 A 
ATOM      6  C   UNL d   1      58.003  -0.485  30.221  0.00  0.00     0.015 A 
ATOM      7  C   UNL d   1      58.346  -0.724  29.612  0.00  0.00     0.025 A 
ATOM      8  C   UNL d   1      58.951  -0.377  29.353  0.00  0.00     0.094 A 
ATOM      9  C   UNL d   1      59.214   0.215  29.710  0.00  0.00     0.025 A 
ATOM     10  C   UNL d   1      58.868   0.462  30.330  0.00  0.00     0.015 A 
BRANCH   8  11
ATOM     11  O   UNL d   1      59.283  -0.624  28.747  0.00  0.00    -0.328 OA
ATOM     12  C   UNL d   1      59.894  -0.358  28.455  0.00  0.00     0.181 C 
ENDBRANCH   8  11
ENDBRANCH   2   5
ENDBRANCH   1   2
BRANCH   1  13
ATOM     13  C   UNL d   1      57.422   0.437  32.793  0.00  0.00     0.094 A 
ATOM     14  C   UNL d   1      56.619   0.279  32.714  0.00  0.00     0.023 A 
ATOM     15  C   UNL d   1      56.146   0.205  33.399  0.00  0.00     0.041 A 
ATOM     16  C   UNL d   1      56.485   0.289  34.148  0.00  0.00     0.196 A 
ATOM     17  C   UNL d   1      57.296   0.448  34.216  0.00  0.00     0.044 A 
ATOM     18  O   UNL d   1      56.019   0.216  34.822  0.00  0.00    -0.287 OA
ATOM     19  C   UNL d   1      57.763   0.522  33.541  0.00  0.00     0.022 A 
ATOM     20  C   UNL d   1      58.573   0.680  33.610  0.00  0.00     0.002 C 
BRANCH  15  21
ATOM     21  C   UNL d   1      55.335   0.046  33.331  0.00  0.00     0.003 C 
ATOM     22  C   UNL d   1      55.065  -0.737  33.279  0.00  0.00     0.000 C 
ATOM     23  C   UNL d   1      54.784   0.681  33.315  0.00  0.00     0.000 C 
ENDBRANCH  15  21
ENDBRANCH   1  13
TORSDOF 5
ENDMDL
MODEL 5
REMARK VINA RESULT:      -2.4      2.135      4.532
REMARK  5 active torsions:
REMARK  status: ('A' for Active; 'I' for Inactive)
REMARK    1  A    between atoms: N_2  and  S_1 
REMARK    2  A    between atoms: C_7  and  S_1 
REMARK    3  A    between atoms: C_3  and  N_2 
REMARK    4  A    between atoms: C_14  and  C_4 
REMARK    5  A    between atoms: O_19  and  C_16 
ROOT
ATOM      1  N   UNL d   1      57.751  -0.973  30.107  0.00  0.00    -0.158 NA
ENDROOT
BRANCH   1   2
ATOM      2  S   UNL d   1      58.536  -1.411  29.831  0.00  0.00     0.285 S 
ATOM      3  O   UNL d   1      59.213  -0.821  30.078  0.00  0.00    -0.198 OA
ATOM      4  O   UNL d   1      57.837  -1.999  29.586  0.00  0.00    -0.198 OA
BRANCH   2   5
ATOM      5  C   UNL d   1      58.887  -1.975  29.522  0.00  0.00     0.105 A 
ATOM      6  C   UNL d   1      59.622  -2.028  29.591  0.00  0.00     0.015 A 
ATOM      7  C   UNL d   1      59.976  -2.597  29.280  0.00  0.00     0.025 A 
ATOM      8  C   UNL d   1      59.604  -3.117  28.898  0.00  0.00     0.094 A 
ATOM      9  C   UNL d   1      58.870  -3.064  28.830  0.00  0.00     0.025 A 
ATOM     10  C   UNL d   1      58.505  -2.486  29.145  0.00  0.00     0.015 A 
BRANCH   8  11
ATOM     11  O   UNL d   1      59.967  -3.677  28.594  0.00  0.00    -0.328 OA
ATOM     12  C   UNL d   1      60.166  -4.291  28.930  0.00  0.00     0.181 C 
ENDBRANCH   8  11
ENDBRANCH   2   5
ENDBRANCH   1   2
BRANCH   1  13
ATOM     13  C   UNL d   1      57.398  -0.555  30.741  0.00  0.00     0.094 A 
ATOM     14  C   UNL d   1      57.080  -0.973  31.374  0.00  0.00     0.023 A 
ATOM     15  C   UNL d   1      56.727  -0.555  32.006  0.00  0.00     0.041 A 
ATOM     16  C   UNL d   1      56.700   0.271  31.993  0.00  0.00     0.196 A 
ATOM     17  C   UNL d   1      57.023   0.682  31.350  0.00  0.00     0.044 A 
ATOM     18  O   UNL d   1      56.353   0.682  32.615  0.00  0.00    -0.287 OA
ATOM     19  C   UNL d   1      57.371   0.270  30.726  0.00  0.00     0.022 A 
ATOM     20  C   UNL d   1      57.694   0.682  30.084  0.00  0.00     0.002 C 
BRANCH  15  21
ATOM     21  C   UNL d   1      56.404  -0.966  32.649  0.00  0.00     0.003 C 
ATOM     22  C   UNL d   1      55.780  -1.500  32.533  0.00  0.00     0.000 C 
ATOM     23  C   UNL d   1      56.710  -0.841  33.423  0.00  0.00     0.000 C 
ENDBRANCH  15  21
ENDBRANCH   1  13
TORSDOF 5
ENDMDL
