MODEL 1
REMARK VINA RESULT:      -8.1      0.000      0.000
REMARK  6 active torsions:
REMARK  status: ('A' for Active; 'I' for Inactive)
REMARK    1  A    between atoms: N_5  and  C_1 
REMARK    2  A    between atoms: S_2  and  C_11 
REMARK    3  A    between atoms: N_12  and  S_2 
REMARK    4  A    between atoms: O_8  and  C_4 
REMARK    5  A    between atoms: C_9  and  O_8 
REMARK    6  A    between atoms: C_16  and  C_9 
ROOT
ATOM      1  C   UNL d   1      53.180  32.503  53.148  0.00  0.00     0.300 C 
ATOM      2  O   UNL d   1      53.107  32.752  52.373  0.00  0.00    -0.259 OA
ENDROOT
BRANCH   1   3
ATOM      3  O   UNL d   1      53.274  33.052  53.759  0.00  0.00    -0.271 OA
BRANCH   3   4
ATOM      4  C   UNL d   1      52.889  33.780  53.732  0.00  0.00     0.132 A 
ATOM      5  C   UNL d   1      53.137  34.402  54.215  0.00  0.00     0.207 A 
ATOM      6  C   UNL d   1      52.751  35.130  54.188  0.00  0.00     0.303 A 
ATOM      7  N   UNL d   1      52.116  35.238  53.678  0.00  0.00    -0.206 NA
ATOM      8  O   UNL d   1      53.005  35.750  54.674  0.00  0.00    -0.263 OA
ATOM      9  C   UNL d   1      51.867  34.625  53.198  0.00  0.00     0.087 A 
ATOM     10  C   UNL d   1      52.253  33.897  53.225  0.00  0.00     0.046 A 
ATOM     11  C   UNL d   1      51.222  34.732  52.680  0.00  0.00     0.021 C 
BRANCH   5  12
ATOM     12  N   UNL d   1      53.779  34.288  54.728  0.00  0.00    -0.107 N 
ATOM     13  O   UNL d   1      53.651  33.951  55.471  0.00  0.00    -0.531 OA
ATOM     14  O   UNL d   1      54.538  34.510  54.497  0.00  0.00    -0.531 OA
ENDBRANCH   5  12
ENDBRANCH   3   4
ENDBRANCH   1   3
BRANCH   1  15
ATOM     15  C   UNL d   1      53.159  31.692  53.323  0.00  0.00     0.064 A 
ATOM     16  C   UNL d   1      53.837  31.314  53.563  0.00  0.00     0.006 A 
ATOM     17  C   UNL d   1      53.804  30.504  53.736  0.00  0.00     0.013 A 
ATOM     18  C   UNL d   1      53.099  30.101  53.664  0.00  0.00     0.104 A 
ATOM     19  C   UNL d   1      52.419  30.482  53.423  0.00  0.00     0.013 A 
ATOM     20  C   UNL d   1      52.444  31.286  53.250  0.00  0.00     0.006 A 
BRANCH  18  21
ATOM     21  S   UNL d   1      53.063  29.289  53.836  0.00  0.00     0.271 S 
ATOM     22  O   UNL d   1      52.955  28.478  53.812  0.00  0.00    -0.200 OA
ATOM     23  O   UNL d   1      52.786  29.359  53.059  0.00  0.00    -0.200 OA
BRANCH  21  24
ATOM     24  N   UNL d   1      53.303  29.032  54.572  0.00  0.00    -0.226 N 
ATOM     25  C   UNL d   1      52.904  29.273  55.243  0.00  0.00     0.111 C 
ATOM     26  C   UNL d   1      53.955  28.525  54.629  0.00  0.00     0.111 C 
ENDBRANCH  21  24
ENDBRANCH  18  21
ENDBRANCH   1  15
TORSDOF 6
ENDMDL
MODEL 2
REMARK VINA RESULT:      -7.6      3.143      4.536
REMARK  6 active torsions:
REMARK  status: ('A' for Active; 'I' for Inactive)
REMARK    1  A    between atoms: N_5  and  C_1 
REMARK    2  A    between atoms: S_2  and  C_11 
REMARK    3  A    between atoms: N_12  and  S_2 
REMARK    4  A    between atoms: O_8  and  C_4 
REMARK    5  A    between atoms: C_9  and  O_8 
REMARK    6  A    between atoms: C_16  and  C_9 
ROOT
ATOM      1  C   UNL d   1      50.163  34.734  53.050  0.00  0.00     0.300 C 
ATOM      2  O   UNL d   1      50.138  35.321  53.618  0.00  0.00    -0.259 OA
ENDROOT
BRANCH   1   3
ATOM      3  O   UNL d   1      49.551  34.655  52.500  0.00  0.00    -0.271 OA
BRANCH   3   4
ATOM      4  C   UNL d   1      48.877  35.127  52.551  0.00  0.00     0.132 A 
ATOM      5  C   UNL d   1      48.344  35.162  51.922  0.00  0.00     0.207 A 
ATOM      6  C   UNL d   1      47.669  35.635  51.974  0.00  0.00     0.303 A 
ATOM      7  N   UNL d   1      47.528  36.073  52.653  0.00  0.00    -0.206 NA
ATOM      8  O   UNL d   1      47.138  35.666  51.340  0.00  0.00    -0.263 OA
ATOM      9  C   UNL d   1      48.054  36.042  53.278  0.00  0.00     0.087 A 
ATOM     10  C   UNL d   1      48.728  35.569  53.227  0.00  0.00     0.046 A 
ATOM     11  C   UNL d   1      47.913  36.486  53.970  0.00  0.00     0.021 C 
BRANCH   5  12
ATOM     12  N   UNL d   1      48.490  34.718  51.238  0.00  0.00    -0.107 N 
ATOM     13  O   UNL d   1      48.097  33.999  51.127  0.00  0.00    -0.531 OA
ATOM     14  O   UNL d   1      49.024  34.991  50.672  0.00  0.00    -0.531 OA
ENDBRANCH   5  12
ENDBRANCH   3   4
ENDBRANCH   1   3
BRANCH   1  15
ATOM     15  C   UNL d   1      50.809  34.213  53.024  0.00  0.00     0.064 A 
ATOM     16  C   UNL d   1      51.512  34.457  52.699  0.00  0.00     0.006 A 
ATOM     17  C   UNL d   1      52.149  33.928  52.679  0.00  0.00     0.013 A 
ATOM     18  C   UNL d   1      52.063  33.175  52.983  0.00  0.00     0.104 A 
ATOM     19  C   UNL d   1      51.356  32.931  53.309  0.00  0.00     0.013 A 
ATOM     20  C   UNL d   1      50.719  33.452  53.332  0.00  0.00     0.006 A 
BRANCH  18  21
ATOM     21  S   UNL d   1      52.700  32.643  52.964  0.00  0.00     0.271 S 
ATOM     22  O   UNL d   1      53.221  32.036  52.787  0.00  0.00    -0.200 OA
ATOM     23  O   UNL d   1      52.195  32.401  52.354  0.00  0.00    -0.200 OA
BRANCH  21  24
ATOM     24  N   UNL d   1      53.304  32.732  53.505  0.00  0.00    -0.226 N 
ATOM     25  C   UNL d   1      53.942  33.214  53.336  0.00  0.00     0.111 C 
ATOM     26  C   UNL d   1      53.261  32.329  54.227  0.00  0.00     0.111 C 
ENDBRANCH  21  24
ENDBRANCH  18  21
ENDBRANCH   1  15
TORSDOF 6
ENDMDL
MODEL 3
REMARK VINA RESULT:      -7.4      2.630      5.045
REMARK  6 active torsions:
REMARK  status: ('A' for Active; 'I' for Inactive)
REMARK    1  A    between atoms: N_5  and  C_1 
REMARK    2  A    between atoms: S_2  and  C_11 
REMARK    3  A    between atoms: N_12  and  S_2 
REMARK    4  A    between atoms: O_8  and  C_4 
REMARK    5  A    between atoms: C_9  and  O_8 
REMARK    6  A    between atoms: C_16  and  C_9 
ROOT
ATOM      1  C   UNL d   1      51.884  33.990  52.865  0.00  0.00     0.300 C 
ATOM      2  O   UNL d   1      52.461  34.562  52.948  0.00  0.00    -0.259 OA
ENDROOT
BRANCH   1   3
ATOM      3  O   UNL d   1      52.060  33.192  52.994  0.00  0.00    -0.271 OA
BRANCH   3   4
ATOM      4  C   UNL d   1      52.706  32.975  53.456  0.00  0.00     0.132 A 
ATOM      5  C   UNL d   1      52.988  32.200  53.440  0.00  0.00     0.207 A 
ATOM      6  C   UNL d   1      53.635  31.982  53.903  0.00  0.00     0.303 A 
ATOM      7  N   UNL d   1      54.001  32.539  54.383  0.00  0.00    -0.206 NA
ATOM      8  O   UNL d   1      53.915  31.203  53.883  0.00  0.00    -0.263 OA
ATOM      9  C   UNL d   1      53.724  33.308  54.403  0.00  0.00     0.087 A 
ATOM     10  C   UNL d   1      53.077  33.526  53.940  0.00  0.00     0.046 A 
ATOM     11  C   UNL d   1      54.093  33.876  54.890  0.00  0.00     0.021 C 
BRANCH   5  12
ATOM     12  N   UNL d   1      52.617  31.640  52.954  0.00  0.00    -0.107 N 
ATOM     13  O   UNL d   1      52.905  31.509  52.191  0.00  0.00    -0.531 OA
ATOM     14  O   UNL d   1      51.965  31.219  53.230  0.00  0.00    -0.531 OA
ENDBRANCH   5  12
ENDBRANCH   3   4
ENDBRANCH   1   3
BRANCH   1  15
ATOM     15  C   UNL d   1      51.113  34.211  52.649  0.00  0.00     0.064 A 
ATOM     16  C   UNL d   1      50.558  34.355  53.226  0.00  0.00     0.006 A 
ATOM     17  C   UNL d   1      49.793  34.575  52.999  0.00  0.00     0.013 A 
ATOM     18  C   UNL d   1      49.606  34.644  52.208  0.00  0.00     0.104 A 
ATOM     19  C   UNL d   1      50.164  34.499  51.630  0.00  0.00     0.013 A 
ATOM     20  C   UNL d   1      50.927  34.280  51.849  0.00  0.00     0.006 A 
BRANCH  18  21
ATOM     21  S   UNL d   1      48.840  34.864  51.978  0.00  0.00     0.271 S 
ATOM     22  O   UNL d   1      48.102  34.916  51.626  0.00  0.00    -0.200 OA
ATOM     23  O   UNL d   1      49.019  34.194  51.525  0.00  0.00    -0.200 OA
BRANCH  21  24
ATOM     24  N   UNL d   1      48.495  35.516  52.328  0.00  0.00    -0.226 N 
ATOM     25  C   UNL d   1      48.357  35.527  53.133  0.00  0.00     0.111 C 
ATOM     26  C   UNL d   1      48.288  36.164  51.856  0.00  0.00     0.111 C 
ENDBRANCH  21  24
ENDBRANCH  18  21
ENDBRANCH   1  15
TORSDOF 6
ENDMDL
MODEL 4
REMARK VINA RESULT:      -7.2      2.406      4.604
REMARK  6 active torsions:
REMARK  status: ('A' for Active; 'I' for Inactive)
REMARK    1  A    between atoms: N_5  and  C_1 
REMARK    2  A    between atoms: S_2  and  C_11 
REMARK    3  A    between atoms: N_12  and  S_2 
REMARK    4  A    between atoms: O_8  and  C_4 
REMARK    5  A    between atoms: C_9  and  O_8 
REMARK    6  A    between atoms: C_16  and  C_9 
ROOT
ATOM      1  C   UNL d   1      52.039  33.493  53.099  0.00  0.00     0.300 C 
ATOM      2  O   UNL d   1      52.286  32.777  52.794  0.00  0.00    -0.259 OA
ENDROOT
BRANCH   1   3
ATOM      3  O   UNL d   1      52.484  33.879  53.680  0.00  0.00    -0.271 OA
BRANCH   3   4
ATOM      4  C   UNL d   1      53.158  33.526  53.995  0.00  0.00     0.132 A 
ATOM      5  C   UNL d   1      53.661  33.955  54.489  0.00  0.00     0.207 A 
ATOM      6  C   UNL d   1      54.337  33.602  54.805  0.00  0.00     0.303 A 
ATOM      7  N   UNL d   1      54.510  32.819  54.626  0.00  0.00    -0.206 NA
ATOM      8  O   UNL d   1      54.837  34.036  55.300  0.00  0.00    -0.263 OA
ATOM      9  C   UNL d   1      54.015  32.391  54.137  0.00  0.00     0.087 A 
ATOM     10  C   UNL d   1      53.339  32.744  53.821  0.00  0.00     0.046 A 
ATOM     11  C   UNL d   1      54.189  31.595  53.953  0.00  0.00     0.021 C 
BRANCH   5  12
ATOM     12  N   UNL d   1      53.482  34.745  54.667  0.00  0.00    -0.107 N 
ATOM     13  O   UNL d   1      53.747  35.345  54.166  0.00  0.00    -0.531 OA
ATOM     14  O   UNL d   1      53.043  34.929  55.340  0.00  0.00    -0.531 OA
ENDBRANCH   5  12
ENDBRANCH   3   4
ENDBRANCH   1   3
BRANCH   1  15
ATOM     15  C   UNL d   1      51.334  33.837  52.825  0.00  0.00     0.064 A 
ATOM     16  C   UNL d   1      51.333  34.252  52.127  0.00  0.00     0.006 A 
ATOM     17  C   UNL d   1      50.625  34.591  51.863  0.00  0.00     0.013 A 
ATOM     18  C   UNL d   1      49.944  34.505  52.303  0.00  0.00     0.104 A 
ATOM     19  C   UNL d   1      49.946  34.088  53.005  0.00  0.00     0.013 A 
ATOM     20  C   UNL d   1      50.647  33.749  53.273  0.00  0.00     0.006 A 
BRANCH  18  21
ATOM     21  S   UNL d   1      49.232  34.844  52.041  0.00  0.00     0.271 S 
ATOM     22  O   UNL d   1      48.546  35.283  51.962  0.00  0.00    -0.200 OA
ATOM     23  O   UNL d   1      49.391  35.205  52.769  0.00  0.00    -0.200 OA
BRANCH  21  24
ATOM     24  N   UNL d   1      48.920  34.601  51.328  0.00  0.00    -0.226 N 
ATOM     25  C   UNL d   1      49.402  34.523  50.672  0.00  0.00     0.111 C 
ATOM     26  C   UNL d   1      48.110  34.437  51.278  0.00  0.00     0.111 C 
ENDBRANCH  21  24
ENDBRANCH  18  21
ENDBRANCH   1  15
TORSDOF 6
ENDMDL
