MODEL 1
REMARK VINA RESULT:      76.5      0.000      0.000
REMARK  6 active torsions:
REMARK  status: ('A' for Active; 'I' for Inactive)
REMARK       I    between atoms: C_6  and  N_1 
REMARK    1  A    between atoms: C_7  and  C_3 
REMARK    2  A    between atoms: C_8  and  C_4 
REMARK    3  A    between atoms: C_11  and  C_6 
REMARK    4  A    between atoms: C_9  and  C_17 
REMARK    5  A    between atoms: C_17  and  C_11 
REMARK    6  A    between atoms: O_26  and  C_19 
ROOT
ATOM      1  N   UNL d   1     -50.639  25.552  33.529  0.00  0.00    -0.195 N 
ATOM      2  N   UNL d   1     -50.198  26.242  33.559  0.00  0.00    -0.163 NA
ATOM      3  C   UNL d   1     -50.682  26.874  33.664  0.00  0.00     0.103 A 
ATOM      4  C   UNL d   1     -51.418  25.761  33.618  0.00  0.00     0.088 A 
ATOM      5  C   UNL d   1     -51.460  26.557  33.701  0.00  0.00     0.040 A 
ATOM      6  C   UNL d   1     -50.330  24.788  33.426  0.00  0.00     0.281 C 
ATOM      7  O   UNL d   1     -50.871  24.132  33.408  0.00  0.00    -0.265 OA
ENDROOT
BRANCH   3   8
ATOM      8  C   UNL d   1     -50.376  27.620  33.711  0.00  0.00     0.019 A 
ATOM      9  C   UNL d   1     -49.698  27.745  34.184  0.00  0.00     0.004 A 
ATOM     10  C   UNL d   1     -49.371  28.518  34.240  0.00  0.00     0.024 A 
ATOM     11  C   UNL d   1     -49.714  29.149  33.834  0.00  0.00     0.094 A 
ATOM     12  C   UNL d   1     -50.392  29.024  33.362  0.00  0.00     0.024 A 
ATOM     13  C   UNL d   1     -50.718  28.250  33.306  0.00  0.00     0.004 A 
BRANCH  11  14
ATOM     14  O   UNL d   1     -49.371  29.896  33.909  0.00  0.00    -0.328 OA
ATOM     15  C   UNL d   1     -49.744  30.582  33.611  0.00  0.00     0.181 C 
ENDBRANCH  11  14
ENDBRANCH   3   8
BRANCH   4  16
ATOM     16  C   UNL d   1     -52.099  25.257  33.627  0.00  0.00     0.018 A 
ATOM     17  C   UNL d   1     -52.044  24.491  33.944  0.00  0.00     0.002 A 
ATOM     18  C   UNL d   1     -52.705  24.000  33.953  0.00  0.00     0.007 A 
ATOM     19  C   UNL d   1     -53.417  24.270  33.650  0.00  0.00     0.035 A 
ATOM     20  C   UNL d   1     -53.473  25.036  33.334  0.00  0.00     0.007 A 
ATOM     21 BR   UNL d   1     -54.079  23.779  33.660  0.00  0.00    -0.049 Br
ATOM     22  C   UNL d   1     -52.816  25.537  33.319  0.00  0.00     0.002 A 
ENDBRANCH   4  16
BRANCH   6  23
ATOM     23  C   UNL d   1     -49.531  24.638  33.341  0.00  0.00     0.069 C 
BRANCH  23  24
ATOM     24  C   UNL d   1     -49.010  24.743  33.958  0.00  0.00     0.075 C 
BRANCH  24  25
ATOM     25  C   UNL d   1     -48.463  24.171  34.158  0.00  0.00     0.211 C 
ATOM     26  O   UNL d   1     -48.692  23.400  34.336  0.00  0.00    -0.644 OA
ATOM     27  O   UNL d   1     -47.663  24.349  34.189  0.00  0.00    -0.644 OA
ENDBRANCH  24  25
ENDBRANCH  23  24
ENDBRANCH   6  23
TORSDOF 6
ENDMDL
MODEL 2
REMARK VINA RESULT:      79.2      3.367      6.271
REMARK  6 active torsions:
REMARK  status: ('A' for Active; 'I' for Inactive)
REMARK       I    between atoms: C_6  and  N_1 
REMARK    1  A    between atoms: C_7  and  C_3 
REMARK    2  A    between atoms: C_8  and  C_4 
REMARK    3  A    between atoms: C_11  and  C_6 
REMARK    4  A    between atoms: C_9  and  C_17 
REMARK    5  A    between atoms: C_17  and  C_11 
REMARK    6  A    between atoms: O_26  and  C_19 
ROOT
ATOM      1  N   UNL d   1     -48.214  30.038  34.778  0.00  0.00    -0.195 N 
ATOM      2  N   UNL d   1     -48.552  29.296  34.702  0.00  0.00    -0.163 NA
ATOM      3  C   UNL d   1     -49.061  29.287  34.082  0.00  0.00     0.103 A 
ATOM      4  C   UNL d   1     -48.522  30.504  34.189  0.00  0.00     0.088 A 
ATOM      5  C   UNL d   1     -49.036  30.063  33.760  0.00  0.00     0.040 A 
ATOM      6  C   UNL d   1     -47.661  30.258  35.357  0.00  0.00     0.281 C 
ATOM      7  O   UNL d   1     -47.367  31.056  35.354  0.00  0.00    -0.265 OA
ENDROOT
BRANCH   3   8
ATOM      8  C   UNL d   1     -49.465  28.613  33.894  0.00  0.00     0.019 A 
ATOM      9  C   UNL d   1     -49.134  27.876  34.107  0.00  0.00     0.004 A 
ATOM     10  C   UNL d   1     -49.546  27.168  33.916  0.00  0.00     0.024 A 
ATOM     11  C   UNL d   1     -50.270  27.197  33.521  0.00  0.00     0.094 A 
ATOM     12  C   UNL d   1     -50.600  27.935  33.308  0.00  0.00     0.024 A 
ATOM     13  C   UNL d   1     -50.187  28.643  33.500  0.00  0.00     0.004 A 
BRANCH  11  14
ATOM     14  O   UNL d   1     -50.651  26.486  33.347  0.00  0.00    -0.328 OA
ATOM     15  C   UNL d   1     -51.402  26.302  33.664  0.00  0.00     0.181 C 
ENDBRANCH  11  14
ENDBRANCH   3   8
BRANCH   4  16
ATOM     16  C   UNL d   1     -48.357  31.317  34.022  0.00  0.00     0.018 A 
ATOM     17  C   UNL d   1     -47.619  31.534  33.707  0.00  0.00     0.002 A 
ATOM     18  C   UNL d   1     -47.457  32.325  33.544  0.00  0.00     0.007 A 
ATOM     19  C   UNL d   1     -48.025  32.897  33.695  0.00  0.00     0.035 A 
ATOM     20  C   UNL d   1     -48.762  32.680  34.010  0.00  0.00     0.007 A 
ATOM     21 BR   UNL d   1     -47.863  33.688  33.532  0.00  0.00    -0.049 Br
ATOM     22  C   UNL d   1     -48.935  31.890  34.177  0.00  0.00     0.002 A 
ENDBRANCH   4  16
BRANCH   6  23
ATOM     23  C   UNL d   1     -47.386  29.742  35.929  0.00  0.00     0.069 C 
BRANCH  23  24
ATOM     24  C   UNL d   1     -46.891  29.993  36.526  0.00  0.00     0.075 C 
BRANCH  24  25
ATOM     25  C   UNL d   1     -47.055  29.838  37.311  0.00  0.00     0.211 C 
ATOM     26  O   UNL d   1     -46.456  29.796  37.875  0.00  0.00    -0.644 OA
ATOM     27  O   UNL d   1     -47.827  29.718  37.563  0.00  0.00    -0.644 OA
ENDBRANCH  24  25
ENDBRANCH  23  24
ENDBRANCH   6  23
TORSDOF 6
ENDMDL
