MODEL 1
REMARK VINA RESULT:      10.0      0.000      0.000
REMARK  4 active torsions:
REMARK  status: ('A' for Active; 'I' for Inactive)
REMARK    1  A    between atoms: N_9  and  C_3 
REMARK    2  A    between atoms: C_11  and  C_5 
REMARK    3  A    between atoms: C_15  and  C_10 
REMARK    4  A    between atoms: C_18  and  C_15 
ROOT
ATOM      1  N   UNL d   1     -42.081-122.155 -52.478  0.00  0.00    -0.196 N 
ATOM      2  C   UNL d   1     -41.973-121.983 -51.667  0.00  0.00     0.167 A 
ATOM      3  C   UNL d   1     -41.869-121.589 -53.027  0.00  0.00     0.152 A 
ATOM      4  N   UNL d   1     -42.600-123.432 -52.137  0.00  0.00    -0.163 NA
ATOM      5  C   UNL d   1     -42.177-122.530 -51.106  0.00  0.00     0.055 A 
ATOM      6  C   UNL d   1     -42.492-123.260 -51.326  0.00  0.00     0.104 A 
ATOM      7  N   UNL d   1     -41.658-121.253 -51.447  0.00  0.00    -0.227 NA
ATOM      8  C   UNL d   1     -41.559-120.871 -52.821  0.00  0.00     0.057 A 
ATOM      9  C   UNL d   1     -41.451-120.698 -52.010  0.00  0.00     0.086 A 
ATOM     10  C   UNL d   1     -42.699-123.815 -50.767  0.00  0.00     0.023 C 
ENDROOT
BRANCH   5  11
ATOM     11  C   UNL d   1     -42.070-122.360 -50.307  0.00  0.00     0.004 A 
ATOM     12  C   UNL d   1     -42.719-122.153 -49.847  0.00  0.00     0.000 A 
ATOM     13  C   UNL d   1     -42.612-121.983 -49.048  0.00  0.00     0.000 A 
ATOM     14  C   UNL d   1     -41.857-122.021 -48.710  0.00  0.00     0.000 A 
ATOM     15  C   UNL d   1     -41.205-122.229 -49.171  0.00  0.00     0.000 A 
ATOM     16  C   UNL d   1     -41.314-122.402 -49.981  0.00  0.00     0.000 A 
ENDBRANCH   5  11
BRANCH   3  17
ATOM     17  N   UNL d   1     -41.981-121.767 -53.863  0.00  0.00    -0.289 N 
ATOM     18  C   UNL d   1     -42.481-121.381 -54.269  0.00  0.00     0.082 A 
ATOM     19  C   UNL d   1     -42.578-121.534 -54.992  0.00  0.00     0.021 A 
ATOM     20  C   UNL d   1     -41.678-122.461 -54.915  0.00  0.00     0.021 A 
ATOM     21  C   UNL d   1     -41.580-122.305 -54.179  0.00  0.00     0.082 A 
ENDBRANCH   3  17
BRANCH   9  22
ATOM     22  C   UNL d   1     -41.123-119.940 -51.775  0.00  0.00     0.019 C 
BRANCH  22  23
ATOM     23  C   UNL d   1     -41.380-119.209 -52.162  0.00  0.00     0.002 C 
ATOM     24  C   UNL d   1     -41.160-118.452 -51.841  0.00  0.00     0.000 C 
ENDBRANCH  22  23
ENDBRANCH   9  22
TORSDOF 4
ENDMDL
