MODEL 1
REMARK VINA RESULT:      39.3      0.000      0.000
REMARK  4 active torsions:
REMARK  status: ('A' for Active; 'I' for Inactive)
REMARK    1  A    between atoms: N_2  and  S_1 
REMARK    2  A    between atoms: C_3  and  S_1 
REMARK    3  A    between atoms: C_11  and  N_2 
REMARK    4  A    between atoms: C_6  and  C_7 
ROOT
ATOM      1  S   UNL d   1      60.189  49.438  50.698  0.00  0.00     0.285 S 
ATOM      2  O   UNL d   1      60.777  49.169  50.188  0.00  0.00    -0.198 OA
ATOM      3  O   UNL d   1      59.600  49.708  51.228  0.00  0.00    -0.198 OA
ENDROOT
BRANCH   1   4
ATOM      4  N   UNL d   1      59.745  49.699  50.063  0.00  0.00    -0.158 NA
BRANCH   4   5
ATOM      5  C   UNL d   1      58.925  49.647  50.081  0.00  0.00     0.094 A 
ATOM      6  C   UNL d   1      58.565  49.531  50.818  0.00  0.00     0.020 A 
ATOM      7  C   UNL d   1      57.729  49.476  50.849  0.00  0.00     0.005 A 
ATOM      8  C   UNL d   1      57.287  49.539  50.155  0.00  0.00     0.039 A 
ATOM      9  C   UNL d   1      57.647  49.654  49.426  0.00  0.00     0.005 A 
ATOM     10  C   UNL d   1      58.468  49.708  49.392  0.00  0.00     0.020 A 
BRANCH   8  11
ATOM     11  C   UNL d   1      56.447  49.483  50.196  0.00  0.00     0.196 C 
ATOM     12  O   UNL d   1      56.035  49.227  49.529  0.00  0.00    -0.287 OA
ATOM     13  C   UNL d   1      56.068  49.686  50.899  0.00  0.00     0.045 C 
ENDBRANCH   8  11
ENDBRANCH   4   5
ENDBRANCH   1   4
BRANCH   1  14
ATOM     14  C   UNL d   1      60.656  49.164  51.373  0.00  0.00     0.105 A 
ATOM     15  C   UNL d   1      60.880  49.705  51.940  0.00  0.00     0.015 A 
ATOM     16  C   UNL d   1      61.326  49.465  52.593  0.00  0.00     0.022 A 
ATOM     17  C   UNL d   1      61.541  48.680  52.666  0.00  0.00     0.103 A 
ATOM     18  C   UNL d   1      61.311  48.119  52.081  0.00  0.00     0.022 A 
ATOM     19  N   UNL d   1      62.000  48.433  53.338  0.00  0.00    -0.148 N 
ATOM     20  C   UNL d   1      60.862  48.393  51.436  0.00  0.00     0.015 A 
ENDBRANCH   1  14
TORSDOF 4
ENDMDL
