MODEL 1
REMARK VINA RESULT:      -8.7      0.000      0.000
REMARK  1 active torsions:
REMARK  status: ('A' for Active; 'I' for Inactive)
REMARK    1  A    between atoms: N_8  and  C_7 
REMARK       I    between atoms: C_11  and  N_8 
ROOT
ATOM      1  N   UNL d   1     -46.710  12.750  23.258  0.00  0.00    -0.273 N 
ATOM      2  C   UNL d   1     -47.483  12.989  23.096  0.00  0.00     0.067 A 
ATOM      3  C   UNL d   1     -47.628  13.751  22.815  0.00  0.00     0.019 A 
ATOM      4  C   UNL d   1     -48.106  12.473  23.213  0.00  0.00     0.018 A 
ATOM      5  C   UNL d   1     -46.560  11.995  23.536  0.00  0.00     0.265 A 
ATOM      6  C   UNL d   1     -46.213  13.383  23.086  0.00  0.00     0.083 A 
ATOM      7  C   UNL d   1     -49.028  13.467  22.773  0.00  0.00     0.085 A 
ATOM      8  C   UNL d   1     -48.401  13.990  22.653  0.00  0.00     0.021 A 
ATOM      9  C   UNL d   1     -48.879  12.712  23.052  0.00  0.00     0.021 A 
ATOM     10  C   UNL d   1     -46.904  14.148  22.749  0.00  0.00     0.021 A 
ATOM     11  C   UNL d   1     -47.964  11.703  23.497  0.00  0.00     0.006 A 
ATOM     12  C   UNL d   1     -47.191  11.464  23.658  0.00  0.00     0.061 A 
ATOM     13  O   UNL d   1     -45.787  11.756  23.698  0.00  0.00    -0.267 OA
ENDROOT
BRANCH   7  14
ATOM     14  N   UNL d   1     -49.800  13.705  22.612  0.00  0.00    -0.208 NA
ATOM     15  C   UNL d   1     -50.108  13.616  21.866  0.00  0.00     0.279 C 
ATOM     16  O   UNL d   1     -49.648  13.282  21.254  0.00  0.00    -0.265 OA
ATOM     17  C   UNL d   1     -50.880  13.854  21.700  0.00  0.00     0.068 C 
ENDBRANCH   7  14
TORSDOF 1
ENDMDL
MODEL 2
REMARK VINA RESULT:      -8.0      1.240      3.674
REMARK  1 active torsions:
REMARK  status: ('A' for Active; 'I' for Inactive)
REMARK    1  A    between atoms: N_8  and  C_7 
REMARK       I    between atoms: C_11  and  N_8 
ROOT
ATOM      1  N   UNL d   1     -50.046  14.286  22.075  0.00  0.00    -0.273 N 
ATOM      2  C   UNL d   1     -49.267  14.026  22.154  0.00  0.00     0.067 A 
ATOM      3  C   UNL d   1     -49.030  13.320  21.797  0.00  0.00     0.019 A 
ATOM      4  C   UNL d   1     -48.727  14.464  22.584  0.00  0.00     0.018 A 
ATOM      5  C   UNL d   1     -50.285  14.985  22.427  0.00  0.00     0.265 A 
ATOM      6  C   UNL d   1     -50.447  13.734  21.618  0.00  0.00     0.083 A 
ATOM      7  C   UNL d   1     -47.709  13.505  22.310  0.00  0.00     0.085 A 
ATOM      8  C   UNL d   1     -48.252  13.060  21.875  0.00  0.00     0.021 A 
ATOM      9  C   UNL d   1     -47.948  14.203  22.662  0.00  0.00     0.021 A 
ATOM     10  C   UNL d   1     -49.682  12.996  21.402  0.00  0.00     0.021 A 
ATOM     11  C   UNL d   1     -48.962  15.177  22.946  0.00  0.00     0.006 A 
ATOM     12  C   UNL d   1     -49.740  15.437  22.867  0.00  0.00     0.061 A 
ATOM     13  O   UNL d   1     -51.064  15.245  22.349  0.00  0.00    -0.267 OA
ENDROOT
BRANCH   7  14
ATOM     14  N   UNL d   1     -46.931  13.245  22.389  0.00  0.00    -0.208 NA
ATOM     15  C   UNL d   1     -46.723  12.761  23.005  0.00  0.00     0.279 C 
ATOM     16  O   UNL d   1     -47.292  12.520  23.567  0.00  0.00    -0.265 OA
ATOM     17  C   UNL d   1     -45.945  12.498  23.088  0.00  0.00     0.068 C 
ENDBRANCH   7  14
TORSDOF 1
ENDMDL
MODEL 3
REMARK VINA RESULT:      -7.9      1.291      3.117
REMARK  1 active torsions:
REMARK  status: ('A' for Active; 'I' for Inactive)
REMARK    1  A    between atoms: N_8  and  C_7 
REMARK       I    between atoms: C_11  and  N_8 
ROOT
ATOM      1  N   UNL d   1     -49.907  13.237  23.268  0.00  0.00    -0.273 N 
ATOM      2  C   UNL d   1     -49.127  13.242  23.000  0.00  0.00     0.067 A 
ATOM      3  C   UNL d   1     -48.752  13.959  22.837  0.00  0.00     0.019 A 
ATOM      4  C   UNL d   1     -48.724  12.539  22.894  0.00  0.00     0.018 A 
ATOM      5  C   UNL d   1     -50.284  12.529  23.430  0.00  0.00     0.265 A 
ATOM      6  C   UNL d   1     -50.157  14.019  23.317  0.00  0.00     0.083 A 
ATOM      7  C   UNL d   1     -47.567  13.252  22.463  0.00  0.00     0.085 A 
ATOM      8  C   UNL d   1     -47.972  13.964  22.569  0.00  0.00     0.021 A 
ATOM      9  C   UNL d   1     -47.943  12.544  22.626  0.00  0.00     0.021 A 
ATOM     10  C   UNL d   1     -49.284  14.574  22.992  0.00  0.00     0.021 A 
ATOM     11  C   UNL d   1     -49.099  11.814  23.056  0.00  0.00     0.006 A 
ATOM     12  C   UNL d   1     -49.879  11.809  23.324  0.00  0.00     0.061 A 
ATOM     13  O   UNL d   1     -51.064  12.525  23.698  0.00  0.00    -0.267 OA
ENDROOT
BRANCH   7  14
ATOM     14  N   UNL d   1     -46.787  13.257  22.196  0.00  0.00    -0.208 NA
ATOM     15  C   UNL d   1     -46.174  13.293  22.725  0.00  0.00     0.279 C 
ATOM     16  O   UNL d   1     -46.324  13.325  23.547  0.00  0.00    -0.265 OA
ATOM     17  C   UNL d   1     -45.392  13.298  22.462  0.00  0.00     0.068 C 
ENDBRANCH   7  14
TORSDOF 1
ENDMDL
MODEL 4
REMARK VINA RESULT:      -6.7      1.173      3.402
REMARK  1 active torsions:
REMARK  status: ('A' for Active; 'I' for Inactive)
REMARK    1  A    between atoms: N_8  and  C_7 
REMARK       I    between atoms: C_11  and  N_8 
ROOT
ATOM      1  N   UNL d   1     -47.764  13.890  22.629  0.00  0.00    -0.273 N 
ATOM      2  C   UNL d   1     -47.348  13.229  22.896  0.00  0.00     0.067 A 
ATOM      3  C   UNL d   1     -46.653  13.328  23.330  0.00  0.00     0.019 A 
ATOM      4  C   UNL d   1     -47.621  12.476  22.733  0.00  0.00     0.018 A 
ATOM      5  C   UNL d   1     -48.453  13.797  22.198  0.00  0.00     0.265 A 
ATOM      6  C   UNL d   1     -47.354  14.558  22.878  0.00  0.00     0.083 A 
ATOM      7  C   UNL d   1     -46.516  11.908  23.431  0.00  0.00     0.085 A 
ATOM      8  C   UNL d   1     -46.237  12.667  23.598  0.00  0.00     0.021 A 
ATOM      9  C   UNL d   1     -47.206  11.816  23.000  0.00  0.00     0.021 A 
ATOM     10  C   UNL d   1     -46.508  14.139  23.412  0.00  0.00     0.021 A 
ATOM     11  C   UNL d   1     -48.322  12.372  22.295  0.00  0.00     0.006 A 
ATOM     12  C   UNL d   1     -48.738  13.033  22.028  0.00  0.00     0.061 A 
ATOM     13  O   UNL d   1     -48.869  14.458  21.931  0.00  0.00    -0.267 OA
ENDROOT
BRANCH   7  14
ATOM     14  N   UNL d   1     -46.101  11.248  23.698  0.00  0.00    -0.208 NA
ATOM     15  C   UNL d   1     -45.348  11.105  23.433  0.00  0.00     0.279 C 
ATOM     16  O   UNL d   1     -44.984  11.623  22.887  0.00  0.00    -0.265 OA
ATOM     17  C   UNL d   1     -44.928  10.446  23.697  0.00  0.00     0.068 C 
ENDBRANCH   7  14
TORSDOF 1
ENDMDL
MODEL 5
REMARK VINA RESULT:      -6.0      8.713     10.125
REMARK  1 active torsions:
REMARK  status: ('A' for Active; 'I' for Inactive)
REMARK    1  A    between atoms: N_8  and  C_7 
REMARK       I    between atoms: C_11  and  N_8 
ROOT
ATOM      1  N   UNL d   1     -39.131  14.763  16.593  0.00  0.00    -0.273 N 
ATOM      2  C   UNL d   1     -39.557  14.649  17.289  0.00  0.00     0.067 A 
ATOM      3  C   UNL d   1     -40.080  15.230  17.553  0.00  0.00     0.019 A 
ATOM      4  C   UNL d   1     -39.463  13.961  17.721  0.00  0.00     0.018 A 
ATOM      5  C   UNL d   1     -38.611  14.190  16.327  0.00  0.00     0.265 A 
ATOM      6  C   UNL d   1     -39.343  15.498  16.290  0.00  0.00     0.083 A 
ATOM      7  C   UNL d   1     -40.409  14.420  18.683  0.00  0.00     0.085 A 
ATOM      8  C   UNL d   1     -40.506  15.116  18.250  0.00  0.00     0.021 A 
ATOM      9  C   UNL d   1     -39.890  13.846  18.418  0.00  0.00     0.021 A 
ATOM     10  C   UNL d   1     -40.064  15.859  17.015  0.00  0.00     0.021 A 
ATOM     11  C   UNL d   1     -38.936  13.372  17.459  0.00  0.00     0.006 A 
ATOM     12  C   UNL d   1     -38.510  13.486  16.762  0.00  0.00     0.061 A 
ATOM     13  O   UNL d   1     -38.185  14.305  15.630  0.00  0.00    -0.267 OA
ENDROOT
BRANCH   7  14
ATOM     14  N   UNL d   1     -40.835  14.305  19.380  0.00  0.00    -0.208 NA
ATOM     15  C   UNL d   1     -40.539  14.570  20.087  0.00  0.00     0.279 C 
ATOM     16  O   UNL d   1     -39.802  14.960  20.119  0.00  0.00    -0.265 OA
ATOM     17  C   UNL d   1     -40.962  14.457  20.786  0.00  0.00     0.068 C 
ENDBRANCH   7  14
TORSDOF 1
ENDMDL
MODEL 6
REMARK VINA RESULT:      -5.8      8.401      9.177
REMARK  1 active torsions:
REMARK  status: ('A' for Active; 'I' for Inactive)
REMARK    1  A    between atoms: N_8  and  C_7 
REMARK       I    between atoms: C_11  and  N_8 
ROOT
ATOM      1  N   UNL d   1     -39.107  14.039  20.312  0.00  0.00    -0.273 N 
ATOM      2  C   UNL d   1     -39.566  14.190  19.643  0.00  0.00     0.067 A 
ATOM      3  C   UNL d   1     -39.250  14.069  18.890  0.00  0.00     0.019 A 
ATOM      4  C   UNL d   1     -40.334  14.459  19.723  0.00  0.00     0.018 A 
ATOM      5  C   UNL d   1     -39.415  14.158  21.060  0.00  0.00     0.265 A 
ATOM      6  C   UNL d   1     -38.371  13.779  20.054  0.00  0.00     0.083 A 
ATOM      7  C   UNL d   1     -40.484  14.491  18.306  0.00  0.00     0.085 A 
ATOM      8  C   UNL d   1     -39.709  14.219  18.222  0.00  0.00     0.021 A 
ATOM      9  C   UNL d   1     -40.793  14.609  19.054  0.00  0.00     0.021 A 
ATOM     10  C   UNL d   1     -38.472  13.798  18.974  0.00  0.00     0.021 A 
ATOM     11  C   UNL d   1     -40.656  14.583  20.480  0.00  0.00     0.006 A 
ATOM     12  C   UNL d   1     -40.197  14.432  21.149  0.00  0.00     0.061 A 
ATOM     13  O   UNL d   1     -38.956  14.007  21.728  0.00  0.00    -0.267 OA
ENDROOT
BRANCH   7  14
ATOM     14  N   UNL d   1     -40.943  14.641  17.638  0.00  0.00    -0.208 NA
ATOM     15  C   UNL d   1     -40.865  15.343  17.239  0.00  0.00     0.279 C 
ATOM     16  O   UNL d   1     -40.321  15.922  17.499  0.00  0.00    -0.265 OA
ATOM     17  C   UNL d   1     -41.322  15.498  16.570  0.00  0.00     0.068 C 
ENDBRANCH   7  14
TORSDOF 1
ENDMDL
MODEL 7
REMARK VINA RESULT:      -5.7      8.879      9.645
REMARK  1 active torsions:
REMARK  status: ('A' for Active; 'I' for Inactive)
REMARK    1  A    between atoms: N_8  and  C_7 
REMARK       I    between atoms: C_11  and  N_8 
ROOT
ATOM      1  N   UNL d   1     -40.362  14.705  17.628  0.00  0.00    -0.273 N 
ATOM      2  C   UNL d   1     -40.053  14.754  18.391  0.00  0.00     0.067 A 
ATOM      3  C   UNL d   1     -39.503  14.195  18.650  0.00  0.00     0.019 A 
ATOM      4  C   UNL d   1     -40.287  15.355  18.893  0.00  0.00     0.018 A 
ATOM      5  C   UNL d   1     -40.907  15.257  17.367  0.00  0.00     0.265 A 
ATOM      6  C   UNL d   1     -40.023  14.051  17.264  0.00  0.00     0.083 A 
ATOM      7  C   UNL d   1     -39.433  14.852  19.917  0.00  0.00     0.085 A 
ATOM      8  C   UNL d   1     -39.194  14.244  19.413  0.00  0.00     0.021 A 
ATOM      9  C   UNL d   1     -39.978  15.404  19.656  0.00  0.00     0.021 A 
ATOM     10  C   UNL d   1     -39.368  13.657  18.035  0.00  0.00     0.021 A 
ATOM     11  C   UNL d   1     -40.841  15.922  18.636  0.00  0.00     0.006 A 
ATOM     12  C   UNL d   1     -41.151  15.873  17.873  0.00  0.00     0.061 A 
ATOM     13  O   UNL d   1     -41.217  15.208  16.604  0.00  0.00    -0.267 OA
ENDROOT
BRANCH   7  14
ATOM     14  N   UNL d   1     -39.124  14.901  20.680  0.00  0.00    -0.208 NA
ATOM     15  C   UNL d   1     -39.486  14.513  21.293  0.00  0.00     0.279 C 
ATOM     16  O   UNL d   1     -40.176  14.061  21.161  0.00  0.00    -0.265 OA
ATOM     17  C   UNL d   1     -39.180  14.560  22.058  0.00  0.00     0.068 C 
ENDBRANCH   7  14
TORSDOF 1
ENDMDL
