MODEL 1
REMARK VINA RESULT:      19.8      0.000      0.000
REMARK  5 active torsions:
REMARK  status: ('A' for Active; 'I' for Inactive)
REMARK    1  A    between atoms: C_4  and  S_1 
REMARK    2  A    between atoms: N_5  and  S_1 
REMARK    3  A    between atoms: C_2  and  C_9 
REMARK       I    between atoms: N_3  and  C_2 
REMARK    4  A    between atoms: C_14  and  N_5 
REMARK    5  A    between atoms: C_15  and  C_14 
ROOT
ATOM      1  C   UNL d   1      45.490 -14.445  44.301  0.00  0.00     0.057 A 
ATOM      2  C   UNL d   1      45.948 -14.762  44.914  0.00  0.00     0.005 A 
ATOM      3  C   UNL d   1      45.161 -14.942  43.732  0.00  0.00     0.005 A 
ATOM      4  C   UNL d   1      45.745 -16.074  44.385  0.00  0.00     0.020 A 
ATOM      5  C   UNL d   1      46.074 -15.579  44.954  0.00  0.00     0.002 A 
ATOM      6  C   UNL d   1      45.289 -15.762  43.775  0.00  0.00     0.002 A 
ENDROOT
BRANCH   4   7
ATOM      7  C   UNL d   1      45.868 -16.894  44.421  0.00  0.00     0.112 C 
BRANCH   7   8
ATOM      8  N   UNL d   1      46.543 -17.216  44.069  0.00  0.00    -0.157 NA
BRANCH   8   9
ATOM      9  S   UNL d   1      46.527 -18.003  43.784  0.00  0.00     0.285 S 
ATOM     10  O   UNL d   1      46.451 -18.281  44.564  0.00  0.00    -0.198 OA
ATOM     11  O   UNL d   1      46.602 -17.720  43.007  0.00  0.00    -0.198 OA
BRANCH   9  12
ATOM     12  C   UNL d   1      46.510 -18.785  43.503  0.00  0.00     0.106 A 
ATOM     13  C   UNL d   1      46.472 -18.925  42.689  0.00  0.00     0.024 A 
ATOM     14  C   UNL d   1      46.455 -19.699  42.402  0.00  0.00     0.059 A 
ATOM     15 CL   UNL d   1      46.417 -19.845  41.589  0.00  0.00    -0.082 Cl
ATOM     16  C   UNL d   1      46.477 -20.330  42.932  0.00  0.00     0.011 A 
ATOM     17  C   UNL d   1      46.515 -20.188  43.743  0.00  0.00     0.002 A 
ATOM     18  C   UNL d   1      46.531 -19.415  44.024  0.00  0.00     0.013 A 
ENDBRANCH   9  12
ENDBRANCH   8   9
ENDBRANCH   7   8
ENDBRANCH   4   7
BRANCH   1  19
ATOM     19  C   UNL d   1      45.359 -13.617  44.256  0.00  0.00     0.265 C 
ATOM     20  N   UNL d   1      45.257 -13.257  43.515  0.00  0.00    -0.272 N 
ATOM     21  C   UNL d   1      45.283 -13.708  42.827  0.00  0.00     0.083 A 
ATOM     22  C   UNL d   1      45.128 -12.440  43.470  0.00  0.00     0.083 A 
ATOM     23  C   UNL d   1      45.181 -13.348  42.100  0.00  0.00     0.019 A 
ATOM     24  C   UNL d   1      45.054 -12.540  42.057  0.00  0.00     0.003 A 
ATOM     25  C   UNL d   1      45.025 -12.080  42.733  0.00  0.00     0.019 A 
ATOM     26  O   UNL d   1      45.333 -13.159  44.955  0.00  0.00    -0.267 OA
ENDBRANCH   1  19
TORSDOF 5
ENDMDL
