MODEL 1
REMARK VINA RESULT:      71.6      0.000      0.000
REMARK  5 active torsions:
REMARK  status: ('A' for Active; 'I' for Inactive)
REMARK    1  A    between atoms: N_2  and  S_1 
REMARK    2  A    between atoms: C_3  and  S_1 
REMARK    3  A    between atoms: C_6  and  O_7 
REMARK    4  A    between atoms: O_7  and  C_11 
REMARK    5  A    between atoms: O_16  and  C_8 
ROOT
ATOM      1  C   UNL d   1     -57.016 -99.687 -44.076  0.00  0.00     0.104 A 
ATOM      2  C   UNL d   1     -56.888 -99.482 -43.296  0.00  0.00     0.015 A 
ATOM      3  C   UNL d   1     -56.464-100.165 -44.477  0.00  0.00     0.015 A 
ATOM      4  C   UNL d   1     -55.667-100.224 -43.308  0.00  0.00     0.100 A 
ATOM      5  C   UNL d   1     -55.793-100.430 -44.090  0.00  0.00     0.025 A 
ATOM      6  C   UNL d   1     -56.219 -99.746 -42.907  0.00  0.00     0.025 A 
ENDROOT
BRANCH   4   7
ATOM      7  O   UNL d   1     -54.986-100.490 -42.906  0.00  0.00    -0.305 OA
BRANCH   7   8
ATOM      8  C   UNL d   1     -54.951-101.252 -42.580  0.00  0.00     0.122 A 
ATOM      9  C   UNL d   1     -54.874-101.350 -41.767  0.00  0.00     0.117 A 
ATOM     10  C   UNL d   1     -54.840-102.113 -41.447  0.00  0.00     0.026 A 
ATOM     11  C   UNL d   1     -54.882-102.766 -41.944  0.00  0.00     0.002 A 
ATOM     12  C   UNL d   1     -54.959-102.667 -42.759  0.00  0.00     0.002 A 
ATOM     13  C   UNL d   1     -54.993-101.906 -43.077  0.00  0.00     0.027 A 
BRANCH   9  14
ATOM     14  O   UNL d   1     -54.832-100.690 -41.279  0.00  0.00    -0.326 OA
ATOM     15  C   UNL d   1     -54.757-100.786 -40.473  0.00  0.00     0.181 C 
ENDBRANCH   9  14
ENDBRANCH   7   8
ENDBRANCH   4   7
BRANCH   1  16
ATOM     16  S   UNL d   1     -57.694 -99.417 -44.463  0.00  0.00     0.271 S 
ATOM     17  O   UNL d   1     -57.668 -99.227 -45.273  0.00  0.00    -0.200 OA
ATOM     18  O   UNL d   1     -58.403 -99.334 -44.048  0.00  0.00    -0.200 OA
BRANCH  16  19
ATOM     19  N   UNL d   1     -58.458 -99.171 -44.657  0.00  0.00    -0.229 N 
ATOM     20  C   UNL d   1     -59.094 -99.076 -44.128  0.00  0.00     0.092 A 
ATOM     21  C   UNL d   1     -59.759 -98.822 -44.550  0.00  0.00     0.021 A 
ATOM     22  C   UNL d   1     -59.546 -98.757 -45.342  0.00  0.00     0.021 A 
ATOM     23  C   UNL d   1     -58.744 -98.971 -45.418  0.00  0.00     0.092 A 
ENDBRANCH  16  19
ENDBRANCH   1  16
TORSDOF 5
ENDMDL
MODEL 2
REMARK VINA RESULT:      73.3      1.695      2.614
REMARK  5 active torsions:
REMARK  status: ('A' for Active; 'I' for Inactive)
REMARK    1  A    between atoms: N_2  and  S_1 
REMARK    2  A    between atoms: C_3  and  S_1 
REMARK    3  A    between atoms: C_6  and  O_7 
REMARK    4  A    between atoms: O_7  and  C_11 
REMARK    5  A    between atoms: O_16  and  C_8 
ROOT
ATOM      1  C   UNL d   1     -57.078 -99.219 -43.556  0.00  0.00     0.104 A 
ATOM      2  C   UNL d   1     -57.041 -99.436 -44.343  0.00  0.00     0.015 A 
ATOM      3  C   UNL d   1     -56.379 -99.168 -43.105  0.00  0.00     0.015 A 
ATOM      4  C   UNL d   1     -55.621 -99.551 -44.238  0.00  0.00     0.100 A 
ATOM      5  C   UNL d   1     -55.655 -99.334 -43.449  0.00  0.00     0.025 A 
ATOM      6  C   UNL d   1     -56.320 -99.603 -44.688  0.00  0.00     0.025 A 
ENDROOT
BRANCH   4   7
ATOM      7  O   UNL d   1     -54.887 -99.722 -44.596  0.00  0.00    -0.305 OA
BRANCH   7   8
ATOM      8  C   UNL d   1     -54.829-100.277 -45.210  0.00  0.00     0.122 A 
ATOM      9  C   UNL d   1     -54.770-101.079 -45.036  0.00  0.00     0.117 A 
ATOM     10  C   UNL d   1     -54.712-101.629 -45.653  0.00  0.00     0.026 A 
ATOM     11  C   UNL d   1     -54.715-101.370 -46.433  0.00  0.00     0.002 A 
ATOM     12  C   UNL d   1     -54.774-100.565 -46.605  0.00  0.00     0.002 A 
ATOM     13  C   UNL d   1     -54.832-100.018 -45.990  0.00  0.00     0.027 A 
BRANCH   9  14
ATOM     14  O   UNL d   1     -54.768-101.328 -44.253  0.00  0.00    -0.326 OA
ATOM     15  C   UNL d   1     -54.952-102.101 -44.073  0.00  0.00     0.181 C 
ENDBRANCH   9  14
ENDBRANCH   7   8
ENDBRANCH   4   7
BRANCH   1  16
ATOM     16  S   UNL d   1     -57.811 -99.052 -43.213  0.00  0.00     0.271 S 
ATOM     17  O   UNL d   1     -57.853 -98.767 -42.432  0.00  0.00    -0.200 OA
ATOM     18  O   UNL d   1     -58.507 -99.168 -43.643  0.00  0.00    -0.200 OA
BRANCH  16  19
ATOM     19  N   UNL d   1     -58.616 -98.950 -43.058  0.00  0.00    -0.229 N 
ATOM     20  C   UNL d   1     -58.962 -98.834 -42.310  0.00  0.00     0.092 A 
ATOM     21  C   UNL d   1     -59.781 -98.756 -42.402  0.00  0.00     0.021 A 
ATOM     22  C   UNL d   1     -59.952 -98.822 -43.204  0.00  0.00     0.021 A 
ATOM     23  C   UNL d   1     -59.239 -98.942 -43.617  0.00  0.00     0.092 A 
ENDBRANCH  16  19
ENDBRANCH   1  16
TORSDOF 5
ENDMDL
