MODEL 1
REMARK VINA RESULT:     139.1      0.000      0.000
REMARK  3 active torsions:
REMARK  status: ('A' for Active; 'I' for Inactive)
REMARK    1  A    between atoms: C_8  and  C_2 
REMARK    2  A    between atoms: O_11  and  C_8 
REMARK    3  A    between atoms: C_12  and  O_11 
ROOT
ATOM      1  O   UNL d   1     -48.687  28.146  34.038  0.00  0.00    -0.302 OA
ENDROOT
BRANCH   1   2
ATOM      2  C   UNL d   1     -48.654  27.551  33.461  0.00  0.00     0.161 C 
BRANCH   2   3
ATOM      3  C   UNL d   1     -49.208  26.940  33.469  0.00  0.00     0.188 A 
ATOM      4  N   UNL d   1     -49.030  26.112  33.428  0.00  0.00    -0.224 NA
ATOM      5  C   UNL d   1     -49.729  25.709  33.451  0.00  0.00     0.101 A 
ATOM      6  C   UNL d   1     -50.361  26.282  33.509  0.00  0.00     0.101 A 
ATOM      7  C   UNL d   1     -49.944  24.903  33.433  0.00  0.00     0.021 A 
ATOM      8  C   UNL d   1     -51.145  26.029  33.543  0.00  0.00     0.021 A 
ATOM      9  N   UNL d   1     -50.025  27.016  33.518  0.00  0.00    -0.224 NA
ATOM     10  C   UNL d   1     -51.321  25.224  33.522  0.00  0.00     0.002 A 
ATOM     11  C   UNL d   1     -50.710  24.670  33.467  0.00  0.00     0.002 A 
ENDBRANCH   2   3
ENDBRANCH   1   2
BRANCH   1  12
ATOM     12  C   UNL d   1     -49.432  28.405  34.283  0.00  0.00     0.100 A 
ATOM     13  C   UNL d   1     -49.797  29.047  33.965  0.00  0.00     0.025 A 
ATOM     14  C   UNL d   1     -50.542  29.284  34.229  0.00  0.00     0.002 A 
ATOM     15  C   UNL d   1     -50.907  29.963  33.880  0.00  0.00     0.000 A 
ATOM     16  C   UNL d   1     -50.922  28.879  34.811  0.00  0.00     0.000 A 
ATOM     17  C   UNL d   1     -51.652  30.200  34.143  0.00  0.00     0.000 A 
ATOM     18  C   UNL d   1     -52.059  29.766  34.766  0.00  0.00     0.000 A 
ATOM     19  C   UNL d   1     -51.667  29.116  35.074  0.00  0.00     0.000 A 
ATOM     20  C   UNL d   1     -50.557  28.196  35.163  0.00  0.00     0.002 A 
ATOM     21  C   UNL d   1     -49.812  27.959  34.900  0.00  0.00     0.025 A 
ENDBRANCH   1  12
TORSDOF 3
ENDMDL
