MODEL 1
REMARK VINA RESULT:      56.8      0.000      0.000
REMARK  8 active torsions:
REMARK  status: ('A' for Active; 'I' for Inactive)
REMARK    1  A    between atoms: N_10  and  C_1 
REMARK    2  A    between atoms: C_20  and  N_2 
REMARK    3  A    between atoms: C_4  and  S_13 
REMARK       I    between atoms: C_14  and  N_10 
REMARK       I    between atoms: C_12  and  N_18 
REMARK    4  A    between atoms: C_16  and  C_12 
REMARK    5  A    between atoms: S_13  and  C_19 
REMARK    6  A    between atoms: C_19  and  C_14 
REMARK    7  A    between atoms: N_18  and  C_22 
REMARK    8  A    between atoms: C_22  and  C_20 
ROOT
ATOM      1  N   UNL d   1     -55.277-101.183 -43.523  0.00  0.00    -0.302 N 
ATOM      2  C   UNL d   1     -54.918-100.190 -44.343  0.00  0.00     0.049 A 
ATOM      3  C   UNL d   1     -55.107-100.365 -43.566  0.00  0.00     0.087 A 
ATOM      4  C   UNL d   1     -54.967-100.888 -44.789  0.00  0.00     0.024 A 
ATOM      5  C   UNL d   1     -55.189-101.498 -44.281  0.00  0.00     0.065 A 
ATOM      6  C   UNL d   1     -54.839-101.035 -45.585  0.00  0.00     0.002 A 
ATOM      7  C   UNL d   1     -55.280-102.255 -44.575  0.00  0.00     0.018 A 
ATOM      8  C   UNL d   1     -54.931-101.799 -45.878  0.00  0.00     0.000 A 
ATOM      9  C   UNL d   1     -55.152-102.412 -45.375  0.00  0.00     0.002 A 
ENDROOT
BRANCH   1  10
ATOM     10  C   UNL d   1     -55.493-101.603 -42.851  0.00  0.00     0.101 C 
BRANCH  10  11
ATOM     11  C   UNL d   1     -54.917-101.861 -42.324  0.00  0.00     0.121 C 
BRANCH  11  12
ATOM     12  N   UNL d   1     -55.143-102.213 -41.608  0.00  0.00    -0.205 NA
ATOM     13  C   UNL d   1     -55.044-101.802 -40.897  0.00  0.00     0.279 C 
ATOM     14  O   UNL d   1     -54.720-101.038 -40.903  0.00  0.00    -0.265 OA
BRANCH  13  15
ATOM     15  C   UNL d   1     -55.268-102.152 -40.190  0.00  0.00     0.058 A 
ATOM     16  C   UNL d   1     -54.717-102.328 -39.626  0.00  0.00     0.005 A 
ATOM     17  C   UNL d   1     -54.925-102.680 -38.912  0.00  0.00     0.000 A 
ATOM     18  C   UNL d   1     -55.717-102.859 -38.763  0.00  0.00     0.000 A 
ATOM     19  C   UNL d   1     -56.291-102.681 -39.335  0.00  0.00     0.000 A 
ATOM     20  C   UNL d   1     -56.066-102.328 -40.048  0.00  0.00     0.005 A 
ENDBRANCH  13  15
ENDBRANCH  11  12
ENDBRANCH  10  11
ENDBRANCH   1  10
BRANCH   2  21
ATOM     21  S   UNL d   1     -54.713 -99.447 -44.637  0.00  0.00    -0.080 SA
BRANCH  21  22
ATOM     22  C   UNL d   1     -55.306 -98.921 -44.860  0.00  0.00     0.098 C 
BRANCH  22  23
ATOM     23  C   UNL d   1     -56.102 -99.155 -44.831  0.00  0.00     0.288 C 
ATOM     24  N   UNL d   1     -56.608 -98.802 -44.292  0.00  0.00    -0.181 NA
ATOM     25  O   UNL d   1     -56.376 -99.736 -45.343  0.00  0.00    -0.265 OA
BRANCH  24  26
ATOM     26  C   UNL d   1     -57.406 -99.029 -44.256  0.00  0.00     0.219 A 
ATOM     27  S   UNL d   1     -57.870 -99.074 -43.583  0.00  0.00    -0.026 SA
ATOM     28  C   UNL d   1     -58.623 -99.323 -43.812  0.00  0.00     0.135 A 
ATOM     29  C   UNL d   1     -59.267 -99.442 -43.308  0.00  0.00     0.030 C 
ATOM     30  N   UNL d   1     -58.633 -99.434 -44.618  0.00  0.00    -0.139 NA
ATOM     31  N   UNL d   1     -57.880 -99.254 -44.901  0.00  0.00    -0.121 NA
ENDBRANCH  24  26
ENDBRANCH  22  23
ENDBRANCH  21  22
ENDBRANCH   2  21
TORSDOF 8
ENDMDL
MODEL 2
REMARK VINA RESULT:      58.7      2.578      6.047
REMARK  8 active torsions:
REMARK  status: ('A' for Active; 'I' for Inactive)
REMARK    1  A    between atoms: N_10  and  C_1 
REMARK    2  A    between atoms: C_20  and  N_2 
REMARK    3  A    between atoms: C_4  and  S_13 
REMARK       I    between atoms: C_14  and  N_10 
REMARK       I    between atoms: C_12  and  N_18 
REMARK    4  A    between atoms: C_16  and  C_12 
REMARK    5  A    between atoms: S_13  and  C_19 
REMARK    6  A    between atoms: C_19  and  C_14 
REMARK    7  A    between atoms: N_18  and  C_22 
REMARK    8  A    between atoms: C_22  and  C_20 
ROOT
ATOM      1  N   UNL d   1     -54.889-101.311 -41.861  0.00  0.00    -0.302 N 
ATOM      2  C   UNL d   1     -55.060-102.126 -40.817  0.00  0.00     0.049 A 
ATOM      3  C   UNL d   1     -55.004-102.107 -41.634  0.00  0.00     0.087 A 
ATOM      4  C   UNL d   1     -54.983-101.352 -40.529  0.00  0.00     0.024 A 
ATOM      5  C   UNL d   1     -54.877-100.852 -41.176  0.00  0.00     0.065 A 
ATOM      6  C   UNL d   1     -54.996-101.051 -39.767  0.00  0.00     0.002 A 
ATOM      7  C   UNL d   1     -54.786-100.049 -41.053  0.00  0.00     0.018 A 
ATOM      8  C   UNL d   1     -54.903-100.242 -39.647  0.00  0.00     0.000 A 
ATOM      9  C   UNL d   1     -54.797 -99.737 -40.289  0.00  0.00     0.002 A 
ENDROOT
BRANCH   1  10
ATOM     10  C   UNL d   1     -54.803-101.029 -42.629  0.00  0.00     0.101 C 
BRANCH  10  11
ATOM     11  C   UNL d   1     -55.355-101.230 -43.205  0.00  0.00     0.121 C 
BRANCH  11  12
ATOM     12  N   UNL d   1     -55.934-100.679 -43.430  0.00  0.00    -0.205 NA
ATOM     13  C   UNL d   1     -56.001-100.455 -44.223  0.00  0.00     0.279 C 
ATOM     14  O   UNL d   1     -55.491-100.781 -44.790  0.00  0.00    -0.265 OA
BRANCH  13  15
ATOM     15  C   UNL d   1     -56.574 -99.911 -44.444  0.00  0.00     0.058 A 
ATOM     16  C   UNL d   1     -57.294 -99.901 -44.079  0.00  0.00     0.005 A 
ATOM     17  C   UNL d   1     -57.879 -99.361 -44.289  0.00  0.00     0.000 A 
ATOM     18  C   UNL d   1     -57.730 -98.813 -44.888  0.00  0.00     0.000 A 
ATOM     19  C   UNL d   1     -56.993 -98.815 -45.269  0.00  0.00     0.000 A 
ATOM     20  C   UNL d   1     -56.416 -99.363 -45.047  0.00  0.00     0.005 A 
ENDBRANCH  13  15
ENDBRANCH  11  12
ENDBRANCH  10  11
ENDBRANCH   1  10
BRANCH   2  21
ATOM     21  S   UNL d   1     -55.175-102.800 -40.355  0.00  0.00    -0.080 SA
BRANCH  21  22
ATOM     22  C   UNL d   1     -54.775-102.875 -39.639  0.00  0.00     0.098 C 
BRANCH  22  23
ATOM     23  C   UNL d   1     -55.175-102.743 -38.923  0.00  0.00     0.288 C 
ATOM     24  N   UNL d   1     -54.749-102.699 -38.224  0.00  0.00    -0.181 NA
ATOM     25  O   UNL d   1     -55.991-102.658 -38.921  0.00  0.00    -0.265 OA
BRANCH  24  26
ATOM     26  C   UNL d   1     -55.140-102.568 -37.504  0.00  0.00     0.219 A 
ATOM     27  S   UNL d   1     -54.845-102.167 -36.855  0.00  0.00    -0.026 SA
ATOM     28  C   UNL d   1     -55.425-102.174 -36.268  0.00  0.00     0.135 A 
ATOM     29  C   UNL d   1     -55.359-101.831 -35.519  0.00  0.00     0.030 C 
ATOM     30  N   UNL d   1     -56.077-102.574 -36.543  0.00  0.00    -0.139 NA
ATOM     31  N   UNL d   1     -55.908-102.823 -37.311  0.00  0.00    -0.121 NA
ENDBRANCH  24  26
ENDBRANCH  22  23
ENDBRANCH  21  22
ENDBRANCH   2  21
TORSDOF 8
ENDMDL
