MODEL 1
REMARK VINA RESULT:      18.1      0.000      0.000
REMARK  3 active torsions:
REMARK  status: ('A' for Active; 'I' for Inactive)
REMARK    1  A    between atoms: S_3  and  N_1 
REMARK    2  A    between atoms: C_8  and  C_4 
REMARK    3  A    between atoms: C_7  and  C_5 
ROOT
ATOM      1  N   UNL d   1      46.006 -18.753  44.088  0.00  0.00    -0.155 N 
ATOM      2  N   UNL d   1      45.875 -18.079  44.562  0.00  0.00    -0.155 NA
ATOM      3  C   UNL d   1      46.160 -18.501  43.334  0.00  0.00     0.096 A 
ATOM      4  C   UNL d   1      45.954 -17.422  44.076  0.00  0.00     0.110 A 
ATOM      5  C   UNL d   1      46.135 -17.683  43.295  0.00  0.00     0.041 A 
ENDROOT
BRANCH   3   6
ATOM      6  C   UNL d   1      46.320 -18.995  42.694  0.00  0.00     0.018 A 
ATOM      7  C   UNL d   1      46.319 -18.697  41.933  0.00  0.00     0.002 A 
ATOM      8  C   UNL d   1      46.157 -17.899  41.807  0.00  0.00     0.000 C 
ATOM      9  C   UNL d   1      46.479 -19.192  41.293  0.00  0.00     0.000 A 
ATOM     10  C   UNL d   1      46.641 -19.984  41.412  0.00  0.00     0.000 A 
ATOM     11  C   UNL d   1      46.643 -20.292  42.182  0.00  0.00     0.000 A 
ATOM     12  C   UNL d   1      46.483 -19.797  42.823  0.00  0.00     0.002 A 
ENDBRANCH   3   6
BRANCH   1  13
ATOM     13  S   UNL d   1      45.979 -19.515  44.356  0.00  0.00     0.266 S 
ATOM     14  O   UNL d   1      45.357 -19.664  43.856  0.00  0.00    -0.203 OA
ATOM     15  O   UNL d   1      46.623 -19.377  44.881  0.00  0.00    -0.203 OA
ATOM     16  C   UNL d   1      45.957 -20.326  44.648  0.00  0.00     0.165 C 
ENDBRANCH   1  13
BRANCH   4  17
ATOM     17  C   UNL d   1      45.873 -16.632  44.297  0.00  0.00     0.049 A 
ATOM     18  S   UNL d   1      45.348 -16.371  44.863  0.00  0.00    -0.085 SA
ATOM     19  C   UNL d   1      45.438 -15.551  44.920  0.00  0.00     0.035 A 
ATOM     20  C   UNL d   1      46.023 -15.305  44.386  0.00  0.00     0.007 A 
ATOM     21  C   UNL d   1      46.282 -15.968  44.011  0.00  0.00     0.009 A 
ENDBRANCH   4  17
TORSDOF 3
ENDMDL
