MODEL 1
REMARK VINA RESULT:      -9.6      0.000      0.000
REMARK  3 active torsions:
REMARK  status: ('A' for Active; 'I' for Inactive)
REMARK    1  A    between atoms: C_2  and  C_4 
REMARK    2  A    between atoms: N_3  and  C_2 
REMARK    3  A    between atoms: C_5  and  N_3 
ROOT
ATOM      1  N   UNL d   1      53.564  31.272  54.057  0.00  0.00    -0.243 NA
ATOM      2  C   UNL d   1      53.363  31.795  53.436  0.00  0.00     0.109 A 
ATOM      3  C   UNL d   1      53.361  30.474  54.003  0.00  0.00     0.081 A 
ATOM      4  C   UNL d   1      52.963  31.512  52.773  0.00  0.00     0.021 A 
ATOM      5  C   UNL d   1      52.957  30.194  53.331  0.00  0.00     0.018 A 
ATOM      6  C   UNL d   1      52.758  30.712  52.718  0.00  0.00     0.003 A 
ATOM      7  C   UNL d   1      53.555  29.953  54.610  0.00  0.00     0.019 A 
ATOM      8  C   UNL d   1      52.755  29.399  53.281  0.00  0.00     0.002 A 
ATOM      9  C   UNL d   1      53.351  29.164  54.553  0.00  0.00     0.002 A 
ATOM     10  C   UNL d   1      52.952  28.886  53.888  0.00  0.00     0.000 A 
ENDROOT
BRANCH   2  11
ATOM     11  C   UNL d   1      53.568  32.596  53.492  0.00  0.00     0.153 C 
ATOM     12  S   UNL d   1      54.351  32.814  53.641  0.00  0.00    -0.056 SA
BRANCH  11  13
ATOM     13  N   UNL d   1      52.989  33.174  53.397  0.00  0.00    -0.233 NA
BRANCH  13  14
ATOM     14  C   UNL d   1      53.038  33.879  53.821  0.00  0.00     0.082 A 
ATOM     15  C   UNL d   1      52.636  34.554  53.551  0.00  0.00     0.018 A 
ATOM     16  C   UNL d   1      52.189  34.520  52.864  0.00  0.00     0.002 C 
ATOM     17  C   UNL d   1      52.690  35.256  53.981  0.00  0.00     0.002 A 
ATOM     18  C   UNL d   1      53.139  35.293  54.673  0.00  0.00     0.000 A 
ATOM     19  C   UNL d   1      53.538  34.619  54.938  0.00  0.00     0.002 A 
ATOM     20  C   UNL d   1      53.487  33.911  54.511  0.00  0.00     0.019 A 
ENDBRANCH  13  14
ENDBRANCH  11  13
ENDBRANCH   2  11
TORSDOF 3
ENDMDL
MODEL 2
REMARK VINA RESULT:      -8.8      1.814      4.081
REMARK  3 active torsions:
REMARK  status: ('A' for Active; 'I' for Inactive)
REMARK    1  A    between atoms: C_2  and  C_4 
REMARK    2  A    between atoms: N_3  and  C_2 
REMARK    3  A    between atoms: C_5  and  N_3 
ROOT
ATOM      1  N   UNL d   1      51.067  34.528  53.286  0.00  0.00    -0.243 NA
ATOM      2  C   UNL d   1      51.770  34.244  52.934  0.00  0.00     0.109 A 
ATOM      3  C   UNL d   1      50.379  34.592  52.835  0.00  0.00     0.081 A 
ATOM      4  C   UNL d   1      51.774  34.028  52.138  0.00  0.00     0.021 A 
ATOM      5  C   UNL d   1      50.388  34.373  52.032  0.00  0.00     0.018 A 
ATOM      6  C   UNL d   1      51.084  34.091  51.685  0.00  0.00     0.003 A 
ATOM      7  C   UNL d   1      49.683  34.871  53.174  0.00  0.00     0.019 A 
ATOM      8  C   UNL d   1      49.701  34.437  51.586  0.00  0.00     0.002 A 
ATOM      9  C   UNL d   1      49.004  34.932  52.724  0.00  0.00     0.002 A 
ATOM     10  C   UNL d   1      49.013  34.716  51.930  0.00  0.00     0.000 A 
ENDROOT
BRANCH   2  11
ATOM     11  C   UNL d   1      52.460  34.181  53.388  0.00  0.00     0.153 C 
ATOM     12  S   UNL d   1      52.910  34.854  53.556  0.00  0.00    -0.056 SA
BRANCH  11  13
ATOM     13  N   UNL d   1      52.697  33.444  53.672  0.00  0.00    -0.233 NA
BRANCH  13  14
ATOM     14  C   UNL d   1      53.333  33.390  54.194  0.00  0.00     0.082 A 
ATOM     15  C   UNL d   1      53.755  32.677  54.260  0.00  0.00     0.018 A 
ATOM     16  C   UNL d   1      53.540  32.028  53.807  0.00  0.00     0.002 C 
ATOM     17  C   UNL d   1      54.390  32.631  54.785  0.00  0.00     0.002 A 
ATOM     18  C   UNL d   1      54.608  33.283  55.241  0.00  0.00     0.000 A 
ATOM     19  C   UNL d   1      54.186  33.990  55.173  0.00  0.00     0.002 A 
ATOM     20  C   UNL d   1      53.547  34.044  54.648  0.00  0.00     0.019 A 
ENDBRANCH  13  14
ENDBRANCH  11  13
ENDBRANCH   2  11
TORSDOF 3
ENDMDL
MODEL 3
REMARK VINA RESULT:      -8.7      0.569      4.361
REMARK  3 active torsions:
REMARK  status: ('A' for Active; 'I' for Inactive)
REMARK    1  A    between atoms: C_2  and  C_4 
REMARK    2  A    between atoms: N_3  and  C_2 
REMARK    3  A    between atoms: C_5  and  N_3 
ROOT
ATOM      1  N   UNL d   1      53.281  33.248  53.717  0.00  0.00    -0.243 NA
ATOM      2  C   UNL d   1      53.787  32.726  54.130  0.00  0.00     0.109 A 
ATOM      3  C   UNL d   1      53.157  34.012  54.002  0.00  0.00     0.081 A 
ATOM      4  C   UNL d   1      54.161  32.977  54.821  0.00  0.00     0.021 A 
ATOM      5  C   UNL d   1      53.537  34.259  54.701  0.00  0.00     0.018 A 
ATOM      6  C   UNL d   1      54.037  33.743  55.109  0.00  0.00     0.003 A 
ATOM      7  C   UNL d   1      52.660  34.531  53.601  0.00  0.00     0.019 A 
ATOM      8  C   UNL d   1      53.411  35.021  54.983  0.00  0.00     0.002 A 
ATOM      9  C   UNL d   1      52.540  35.287  53.888  0.00  0.00     0.002 A 
ATOM     10  C   UNL d   1      52.915  35.532  54.579  0.00  0.00     0.000 A 
ENDROOT
BRANCH   2  11
ATOM     11  C   UNL d   1      53.911  31.960  53.842  0.00  0.00     0.153 C 
ATOM     12  S   UNL d   1      54.373  31.839  53.167  0.00  0.00    -0.056 SA
BRANCH  11  13
ATOM     13  N   UNL d   1      53.571  31.317  54.230  0.00  0.00    -0.233 NA
BRANCH  13  14
ATOM     14  C   UNL d   1      53.278  30.681  53.794  0.00  0.00     0.082 A 
ATOM     15  C   UNL d   1      53.192  29.937  54.154  0.00  0.00     0.018 A 
ATOM     16  C   UNL d   1      53.399  29.834  54.941  0.00  0.00     0.002 C 
ATOM     17  C   UNL d   1      52.898  29.306  53.711  0.00  0.00     0.002 A 
ATOM     18  C   UNL d   1      52.689  29.408  52.919  0.00  0.00     0.000 A 
ATOM     19  C   UNL d   1      52.776  30.150  52.565  0.00  0.00     0.002 A 
ATOM     20  C   UNL d   1      53.071  30.788  53.004  0.00  0.00     0.019 A 
ENDBRANCH  13  14
ENDBRANCH  11  13
ENDBRANCH   2  11
TORSDOF 3
ENDMDL
MODEL 4
REMARK VINA RESULT:      -8.3      1.458      2.331
REMARK  3 active torsions:
REMARK  status: ('A' for Active; 'I' for Inactive)
REMARK    1  A    between atoms: C_2  and  C_4 
REMARK    2  A    between atoms: N_3  and  C_2 
REMARK    3  A    between atoms: C_5  and  N_3 
ROOT
ATOM      1  N   UNL d   1      52.430  32.238  53.033  0.00  0.00    -0.243 NA
ATOM      2  C   UNL d   1      52.760  32.970  53.267  0.00  0.00     0.109 A 
ATOM      3  C   UNL d   1      52.843  31.538  53.172  0.00  0.00     0.081 A 
ATOM      4  C   UNL d   1      53.498  32.989  53.636  0.00  0.00     0.021 A 
ATOM      5  C   UNL d   1      53.587  31.563  53.545  0.00  0.00     0.018 A 
ATOM      6  C   UNL d   1      53.914  32.287  53.776  0.00  0.00     0.003 A 
ATOM      7  C   UNL d   1      52.525  30.814  52.945  0.00  0.00     0.019 A 
ATOM      8  C   UNL d   1      53.997  30.864  53.682  0.00  0.00     0.002 A 
ATOM      9  C   UNL d   1      52.938  30.123  53.084  0.00  0.00     0.002 A 
ATOM     10  C   UNL d   1      53.673  30.147  53.453  0.00  0.00     0.000 A 
ENDROOT
BRANCH   2  11
ATOM     11  C   UNL d   1      52.344  33.672  53.127  0.00  0.00     0.153 C 
ATOM     12  S   UNL d   1      52.492  34.341  53.589  0.00  0.00    -0.056 SA
BRANCH  11  13
ATOM     13  N   UNL d   1      51.782  33.701  52.525  0.00  0.00    -0.233 NA
BRANCH  13  14
ATOM     14  C   UNL d   1      51.066  34.091  52.649  0.00  0.00     0.082 A 
ATOM     15  C   UNL d   1      50.587  34.294  52.002  0.00  0.00     0.018 A 
ATOM     16  C   UNL d   1      50.824  34.106  51.239  0.00  0.00     0.002 C 
ATOM     17  C   UNL d   1      49.872  34.684  52.134  0.00  0.00     0.002 A 
ATOM     18  C   UNL d   1      49.632  34.874  52.900  0.00  0.00     0.000 A 
ATOM     19  C   UNL d   1      50.112  34.671  53.542  0.00  0.00     0.002 A 
ATOM     20  C   UNL d   1      50.831  34.279  53.416  0.00  0.00     0.019 A 
ENDBRANCH  13  14
ENDBRANCH  11  13
ENDBRANCH   2  11
TORSDOF 3
ENDMDL
MODEL 5
REMARK VINA RESULT:      -8.2      2.110      3.719
REMARK  3 active torsions:
REMARK  status: ('A' for Active; 'I' for Inactive)
REMARK    1  A    between atoms: C_2  and  C_4 
REMARK    2  A    between atoms: N_3  and  C_2 
REMARK    3  A    between atoms: C_5  and  N_3 
ROOT
ATOM      1  N   UNL d   1      52.600  33.446  53.577  0.00  0.00    -0.243 NA
ATOM      2  C   UNL d   1      52.318  34.209  53.381  0.00  0.00     0.109 A 
ATOM      3  C   UNL d   1      53.214  33.362  54.121  0.00  0.00     0.081 A 
ATOM      4  C   UNL d   1      52.655  34.874  53.733  0.00  0.00     0.021 A 
ATOM      5  C   UNL d   1      53.551  34.037  54.473  0.00  0.00     0.018 A 
ATOM      6  C   UNL d   1      53.272  34.792  54.279  0.00  0.00     0.003 A 
ATOM      7  C   UNL d   1      53.497  32.615  54.318  0.00  0.00     0.019 A 
ATOM      8  C   UNL d   1      54.163  33.950  55.014  0.00  0.00     0.002 A 
ATOM      9  C   UNL d   1      54.105  32.536  54.857  0.00  0.00     0.002 A 
ATOM     10  C   UNL d   1      54.439  33.203  55.205  0.00  0.00     0.000 A 
ENDROOT
BRANCH   2  11
ATOM     11  C   UNL d   1      51.701  34.292  52.835  0.00  0.00     0.153 C 
ATOM     12  S   UNL d   1      51.858  34.263  52.024  0.00  0.00    -0.056 SA
BRANCH  11  13
ATOM     13  N   UNL d   1      50.930  34.403  53.103  0.00  0.00    -0.233 NA
BRANCH  13  14
ATOM     14  C   UNL d   1      50.311  34.460  52.561  0.00  0.00     0.082 A 
ATOM     15  C   UNL d   1      49.599  34.827  52.783  0.00  0.00     0.018 A 
ATOM     16  C   UNL d   1      49.512  35.134  53.539  0.00  0.00     0.002 C 
ATOM     17  C   UNL d   1      48.984  34.880  52.236  0.00  0.00     0.002 A 
ATOM     18  C   UNL d   1      49.070  34.573  51.474  0.00  0.00     0.000 A 
ATOM     19  C   UNL d   1      49.780  34.208  51.258  0.00  0.00     0.002 A 
ATOM     20  C   UNL d   1      50.401  34.151  51.803  0.00  0.00     0.019 A 
ENDBRANCH  13  14
ENDBRANCH  11  13
ENDBRANCH   2  11
TORSDOF 3
ENDMDL
