MODEL 1
REMARK VINA RESULT:      55.0      0.000      0.000
REMARK  4 active torsions:
REMARK  status: ('A' for Active; 'I' for Inactive)
REMARK    1  A    between atoms: C_2  and  C_1 
REMARK    2  A    between atoms: N_4  and  C_1 
REMARK    3  A    between atoms: O_13  and  C_5 
REMARK    4  A    between atoms: O_12  and  C_6 
ROOT
ATOM      1  C   UNL d   1      59.578  49.186  50.663  0.00  0.00     0.031 A 
ATOM      2  C   UNL d   1      57.951  49.449  50.586  0.00  0.00     0.138 A 
ATOM      3  C   UNL d   1      58.380  49.316  49.889  0.00  0.00     0.118 A 
ATOM      4  C   UNL d   1      58.336  49.450  51.321  0.00  0.00     0.118 A 
ATOM      5  C   UNL d   1      59.189  49.186  49.935  0.00  0.00     0.029 A 
ATOM      6  C   UNL d   1      59.149  49.319  51.357  0.00  0.00     0.029 A 
ATOM      7  O   UNL d   1      57.134  49.582  50.557  0.00  0.00    -0.324 OA
ATOM      8  C   UNL d   1      56.331  49.707  50.473  0.00  0.00     0.182 C 
ENDROOT
BRANCH   4   9
ATOM      9  O   UNL d   1      57.909  49.583  52.017  0.00  0.00    -0.326 OA
ATOM     10  C   UNL d   1      58.304  49.676  52.729  0.00  0.00     0.181 C 
ENDBRANCH   4   9
BRANCH   3  11
ATOM     11  O   UNL d   1      57.985  49.316  49.151  0.00  0.00    -0.326 OA
ATOM     12  C   UNL d   1      57.225  49.656  49.097  0.00  0.00     0.181 C 
ENDBRANCH   3  11
BRANCH   1  13
ATOM     13  C   UNL d   1      60.385  49.056  50.703  0.00  0.00     0.120 C 
ATOM     14  S   UNL d   1      60.905  49.707  50.709  0.00  0.00    -0.059 SA
BRANCH  13  15
ATOM     15  N   UNL d   1      60.679  48.280  50.738  0.00  0.00    -0.292 N 
ATOM     16  C   UNL d   1      61.410  48.135  50.415  0.00  0.00     0.108 A 
ATOM     17  C   UNL d   1      61.728  47.366  50.437  0.00  0.00     0.142 A 
ATOM     18  O   UNL d   1      61.302  46.756  50.785  0.00  0.00    -0.300 OA
ATOM     19  C   UNL d   1      60.561  46.910  51.111  0.00  0.00     0.142 A 
ATOM     20  C   UNL d   1      60.251  47.667  51.088  0.00  0.00     0.108 A 
ENDBRANCH  13  15
ENDBRANCH   1  13
TORSDOF 4
ENDMDL
MODEL 2
REMARK VINA RESULT:      55.3      1.192      3.835
REMARK  4 active torsions:
REMARK  status: ('A' for Active; 'I' for Inactive)
REMARK    1  A    between atoms: C_2  and  C_1 
REMARK    2  A    between atoms: N_4  and  C_1 
REMARK    3  A    between atoms: O_13  and  C_5 
REMARK    4  A    between atoms: O_12  and  C_6 
ROOT
ATOM      1  C   UNL d   1      59.838  48.928  51.124  0.00  0.00     0.031 A 
ATOM      2  C   UNL d   1      61.126  48.072  50.550  0.00  0.00     0.138 A 
ATOM      3  C   UNL d   1      60.502  47.676  50.924  0.00  0.00     0.118 A 
ATOM      4  C   UNL d   1      61.106  48.897  50.463  0.00  0.00     0.118 A 
ATOM      5  C   UNL d   1      59.865  48.108  51.207  0.00  0.00     0.029 A 
ATOM      6  C   UNL d   1      60.461  49.323  50.750  0.00  0.00     0.029 A 
ATOM      7  O   UNL d   1      61.777  47.652  50.258  0.00  0.00    -0.324 OA
ATOM      8  C   UNL d   1      62.395  47.189  49.989  0.00  0.00     0.182 C 
ENDROOT
BRANCH   4   9
ATOM      9  O   UNL d   1      61.728  49.295  50.090  0.00  0.00    -0.326 OA
ATOM     10  C   UNL d   1      61.596  49.696  49.388  0.00  0.00     0.181 C 
ENDBRANCH   4   9
BRANCH   3  11
ATOM     11  O   UNL d   1      60.530  46.843  51.008  0.00  0.00    -0.326 OA
ATOM     12  C   UNL d   1      60.866  46.515  51.697  0.00  0.00     0.181 C 
ENDBRANCH   3  11
BRANCH   1  13
ATOM     13  C   UNL d   1      59.200  49.354  51.408  0.00  0.00     0.120 C 
ATOM     14  S   UNL d   1      59.246  49.707  52.161  0.00  0.00    -0.059 SA
BRANCH  13  15
ATOM     15  N   UNL d   1      58.514  49.433  50.946  0.00  0.00    -0.292 N 
ATOM     16  C   UNL d   1      57.797  49.307  51.305  0.00  0.00     0.108 A 
ATOM     17  C   UNL d   1      57.094  49.379  50.864  0.00  0.00     0.142 A 
ATOM     18  O   UNL d   1      57.128  49.577  50.068  0.00  0.00    -0.300 OA
ATOM     19  C   UNL d   1      57.859  49.704  49.710  0.00  0.00     0.142 A 
ATOM     20  C   UNL d   1      58.549  49.632  50.145  0.00  0.00     0.108 A 
ENDBRANCH  13  15
ENDBRANCH   1  13
TORSDOF 4
ENDMDL
MODEL 3
REMARK VINA RESULT:      56.8      1.340      3.778
REMARK  4 active torsions:
REMARK  status: ('A' for Active; 'I' for Inactive)
REMARK    1  A    between atoms: C_2  and  C_1 
REMARK    2  A    between atoms: N_4  and  C_1 
REMARK    3  A    between atoms: O_13  and  C_5 
REMARK    4  A    between atoms: O_12  and  C_6 
ROOT
ATOM      1  C   UNL d   1      59.142  48.978  51.141  0.00  0.00     0.031 A 
ATOM      2  C   UNL d   1      60.527  48.151  50.796  0.00  0.00     0.138 A 
ATOM      3  C   UNL d   1      60.556  48.970  50.920  0.00  0.00     0.118 A 
ATOM      4  C   UNL d   1      59.805  47.745  50.845  0.00  0.00     0.118 A 
ATOM      5  C   UNL d   1      59.863  49.375  51.091  0.00  0.00     0.029 A 
ATOM      6  C   UNL d   1      59.114  48.160  51.017  0.00  0.00     0.029 A 
ATOM      7  O   UNL d   1      61.217  47.727  50.623  0.00  0.00    -0.324 OA
ATOM      8  C   UNL d   1      61.927  47.358  50.455  0.00  0.00     0.182 C 
ENDROOT
BRANCH   4   9
ATOM      9  O   UNL d   1      59.774  46.928  50.721  0.00  0.00    -0.326 OA
ATOM     10  C   UNL d   1      60.378  46.448  50.998  0.00  0.00     0.181 C 
ENDBRANCH   4   9
BRANCH   3  11
ATOM     11  O   UNL d   1      61.289  49.373  50.870  0.00  0.00    -0.326 OA
ATOM     12  C   UNL d   1      61.617  49.708  51.560  0.00  0.00     0.181 C 
ENDBRANCH   3  11
BRANCH   1  13
ATOM     13  C   UNL d   1      58.453  49.386  51.312  0.00  0.00     0.120 C 
ATOM     14  S   UNL d   1      58.346  49.707  52.072  0.00  0.00    -0.059 SA
BRANCH  13  15
ATOM     15  N   UNL d   1      57.869  49.477  50.728  0.00  0.00    -0.292 N 
ATOM     16  C   UNL d   1      57.091  49.435  50.959  0.00  0.00     0.108 A 
ATOM     17  C   UNL d   1      56.487  49.523  50.393  0.00  0.00     0.142 A 
ATOM     18  O   UNL d   1      56.677  49.652  49.605  0.00  0.00    -0.300 OA
ATOM     19  C   UNL d   1      57.468  49.694  49.378  0.00  0.00     0.142 A 
ATOM     20  C   UNL d   1      58.061  49.607  49.936  0.00  0.00     0.108 A 
ENDBRANCH  13  15
ENDBRANCH   1  13
TORSDOF 4
ENDMDL
