MODEL 1
REMARK VINA RESULT:      -6.9      0.000      0.000
REMARK  3 active torsions:
REMARK  status: ('A' for Active; 'I' for Inactive)
REMARK    1  A    between atoms: C_4  and  S_13 
REMARK    2  A    between atoms: C_16  and  C_6 
REMARK    3  A    between atoms: S_13  and  C_16 
ROOT
ATOM      1  C   UNL d   1     -47.222  13.008  22.631  0.00  0.00     0.059 C 
ENDROOT
BRANCH   1   2
ATOM      2  S   UNL d   1     -46.982  12.658  23.321  0.00  0.00    -0.046 SA
BRANCH   2   3
ATOM      3  C   UNL d   1     -46.317  12.170  23.311  0.00  0.00     0.194 A 
ATOM      4  N   UNL d   1     -45.537  12.282  23.071  0.00  0.00    -0.220 NA
ATOM      5  C   UNL d   1     -45.128  11.586  23.197  0.00  0.00     0.101 A 
ATOM      6  C   UNL d   1     -44.347  11.386  23.060  0.00  0.00     0.021 A 
ATOM      7  C   UNL d   1     -45.635  11.053  23.507  0.00  0.00     0.101 A 
ATOM      8  C   UNL d   1     -44.064  10.643  23.235  0.00  0.00     0.002 A 
ATOM      9  C   UNL d   1     -44.576  10.069  23.560  0.00  0.00     0.002 A 
ATOM     10  C   UNL d   1     -45.383  10.283  23.698  0.00  0.00     0.021 A 
ATOM     11  N   UNL d   1     -46.394  11.389  23.592  0.00  0.00    -0.220 NA
ENDBRANCH   2   3
ENDBRANCH   1   2
BRANCH   1  12
ATOM     12  C   UNL d   1     -47.903  13.457  22.623  0.00  0.00     0.107 A 
ATOM     13  C   UNL d   1     -48.616  13.255  22.287  0.00  0.00     0.101 A 
ATOM     14  N   UNL d   1     -49.169  13.853  22.394  0.00  0.00    -0.289 N 
ATOM     15  C   UNL d   1     -48.786  14.455  22.816  0.00  0.00     0.148 A 
ATOM     16  C   UNL d   1     -49.971  13.952  22.175  0.00  0.00     0.066 A 
ATOM     17  N   UNL d   1     -48.001  14.218  22.962  0.00  0.00    -0.226 NA
ATOM     18  C   UNL d   1     -49.193  15.144  23.017  0.00  0.00     0.037 A 
ATOM     19  C   UNL d   1     -49.993  15.235  22.794  0.00  0.00     0.005 A 
ATOM     20  C   UNL d   1     -50.377  14.634  22.373  0.00  0.00     0.018 A 
ATOM     21  C   UNL d   1     -50.353  13.343  21.750  0.00  0.00     0.019 C 
ENDBRANCH   1  12
TORSDOF 3
ENDMDL
MODEL 2
REMARK VINA RESULT:      -5.4      8.337      9.581
REMARK  3 active torsions:
REMARK  status: ('A' for Active; 'I' for Inactive)
REMARK    1  A    between atoms: C_4  and  S_13 
REMARK    2  A    between atoms: C_16  and  C_6 
REMARK    3  A    between atoms: S_13  and  C_16 
ROOT
ATOM      1  C   UNL d   1     -39.969  14.952  20.531  0.00  0.00     0.059 C 
ENDROOT
BRANCH   1   2
ATOM      2  S   UNL d   1     -39.518  15.140  19.885  0.00  0.00    -0.046 SA
BRANCH   2   3
ATOM      3  C   UNL d   1     -39.894  15.314  19.172  0.00  0.00     0.194 A 
ATOM      4  N   UNL d   1     -40.640  15.610  18.985  0.00  0.00    -0.220 NA
ATOM      5  C   UNL d   1     -40.697  15.665  18.171  0.00  0.00     0.101 A 
ATOM      6  C   UNL d   1     -41.305  15.919  17.687  0.00  0.00     0.021 A 
ATOM      7  C   UNL d   1     -40.008  15.411  17.857  0.00  0.00     0.101 A 
ATOM      8  C   UNL d   1     -41.228  15.922  16.878  0.00  0.00     0.002 A 
ATOM      9  C   UNL d   1     -40.517  15.661  16.526  0.00  0.00     0.002 A 
ATOM     10  C   UNL d   1     -39.891  15.400  17.033  0.00  0.00     0.021 A 
ATOM     11  N   UNL d   1     -39.480  15.183  18.461  0.00  0.00    -0.220 NA
ENDBRANCH   2   3
ENDBRANCH   1   2
BRANCH   1  12
ATOM     12  C   UNL d   1     -39.604  14.710  21.219  0.00  0.00     0.107 A 
ATOM     13  C   UNL d   1     -39.377  15.181  21.843  0.00  0.00     0.101 A 
ATOM     14  N   UNL d   1     -39.027  14.733  22.436  0.00  0.00    -0.289 N 
ATOM     15  C   UNL d   1     -39.036  13.946  22.173  0.00  0.00     0.148 A 
ATOM     16  C   UNL d   1     -38.697  14.911  23.184  0.00  0.00     0.066 A 
ATOM     17  N   UNL d   1     -39.392  13.923  21.420  0.00  0.00    -0.226 NA
ATOM     18  C   UNL d   1     -38.722  13.348  22.645  0.00  0.00     0.037 A 
ATOM     19  C   UNL d   1     -38.394  13.534  23.391  0.00  0.00     0.005 A 
ATOM     20  C   UNL d   1     -38.385  14.319  23.654  0.00  0.00     0.018 A 
ATOM     21  C   UNL d   1     -38.690  15.704  23.445  0.00  0.00     0.019 C 
ENDBRANCH   1  12
TORSDOF 3
ENDMDL
MODEL 3
REMARK VINA RESULT:      -5.0      8.403      9.145
REMARK  3 active torsions:
REMARK  status: ('A' for Active; 'I' for Inactive)
REMARK    1  A    between atoms: C_4  and  S_13 
REMARK    2  A    between atoms: C_16  and  C_6 
REMARK    3  A    between atoms: S_13  and  C_16 
ROOT
ATOM      1  C   UNL d   1     -39.631  14.509  19.733  0.00  0.00     0.059 C 
ENDROOT
BRANCH   1   2
ATOM      2  S   UNL d   1     -39.472  14.980  20.371  0.00  0.00    -0.046 SA
BRANCH   2   3
ATOM      3  C   UNL d   1     -39.303  14.627  21.097  0.00  0.00     0.194 A 
ATOM      4  N   UNL d   1     -39.358  13.854  21.375  0.00  0.00    -0.220 NA
ATOM      5  C   UNL d   1     -39.108  13.843  22.154  0.00  0.00     0.101 A 
ATOM      6  C   UNL d   1     -39.047  13.232  22.694  0.00  0.00     0.021 A 
ATOM      7  C   UNL d   1     -38.903  14.587  22.358  0.00  0.00     0.101 A 
ATOM      8  C   UNL d   1     -38.778  13.362  23.450  0.00  0.00     0.002 A 
ATOM      9  C   UNL d   1     -38.557  14.132  23.687  0.00  0.00     0.002 A 
ATOM     10  C   UNL d   1     -38.623  14.759  23.123  0.00  0.00     0.021 A 
ATOM     11  N   UNL d   1     -39.014  15.107  21.715  0.00  0.00    -0.220 NA
ENDBRANCH   2   3
ENDBRANCH   1   2
BRANCH   1  12
ATOM     12  C   UNL d   1     -39.645  14.834  18.985  0.00  0.00     0.107 A 
ATOM     13  C   UNL d   1     -40.305  15.034  18.553  0.00  0.00     0.101 A 
ATOM     14  N   UNL d   1     -40.093  15.348  17.823  0.00  0.00    -0.289 N 
ATOM     15  C   UNL d   1     -39.264  15.344  17.798  0.00  0.00     0.148 A 
ATOM     16  C   UNL d   1     -40.521  15.641  17.168  0.00  0.00     0.066 A 
ATOM     17  N   UNL d   1     -38.978  15.028  18.514  0.00  0.00    -0.226 NA
ATOM     18  C   UNL d   1     -38.869  15.627  17.132  0.00  0.00     0.037 A 
ATOM     19  C   UNL d   1     -39.304  15.918  16.481  0.00  0.00     0.005 A 
ATOM     20  C   UNL d   1     -40.132  15.922  16.506  0.00  0.00     0.018 A 
ATOM     21  C   UNL d   1     -41.356  15.643  17.197  0.00  0.00     0.019 C 
ENDBRANCH   1  12
TORSDOF 3
ENDMDL
MODEL 4
REMARK VINA RESULT:      -4.9      8.293     10.012
REMARK  3 active torsions:
REMARK  status: ('A' for Active; 'I' for Inactive)
REMARK    1  A    between atoms: C_4  and  S_13 
REMARK    2  A    between atoms: C_16  and  C_6 
REMARK    3  A    between atoms: S_13  and  C_16 
ROOT
ATOM      1  C   UNL d   1     -39.521  14.355  18.380  0.00  0.00     0.059 C 
ENDROOT
BRANCH   1   2
ATOM      2  S   UNL d   1     -38.905  14.714  17.998  0.00  0.00    -0.046 SA
BRANCH   2   3
ATOM      3  C   UNL d   1     -38.682  14.439  17.253  0.00  0.00     0.194 A 
ATOM      4  N   UNL d   1     -38.490  13.693  16.960  0.00  0.00    -0.220 NA
ATOM      5  C   UNL d   1     -38.312  13.768  16.165  0.00  0.00     0.101 A 
ATOM      6  C   UNL d   1     -38.088  13.214  15.607  0.00  0.00     0.021 A 
ATOM      7  C   UNL d   1     -38.391  14.537  15.965  0.00  0.00     0.101 A 
ATOM      8  C   UNL d   1     -37.940  13.427  14.837  0.00  0.00     0.002 A 
ATOM      9  C   UNL d   1     -38.015  14.225  14.603  0.00  0.00     0.002 A 
ATOM     10  C   UNL d   1     -38.248  14.793  15.187  0.00  0.00     0.021 A 
ATOM     11  N   UNL d   1     -38.623  14.988  16.628  0.00  0.00    -0.220 NA
ENDBRANCH   2   3
ENDBRANCH   1   2
BRANCH   1  12
ATOM     12  C   UNL d   1     -39.787  14.659  19.089  0.00  0.00     0.107 A 
ATOM     13  C   UNL d   1     -39.540  14.445  19.835  0.00  0.00     0.101 A 
ATOM     14  N   UNL d   1     -39.939  14.876  20.410  0.00  0.00    -0.289 N 
ATOM     15  C   UNL d   1     -40.457  15.383  20.007  0.00  0.00     0.148 A 
ATOM     16  C   UNL d   1     -39.916  14.894  21.246  0.00  0.00     0.066 A 
ATOM     17  N   UNL d   1     -40.370  15.254  19.188  0.00  0.00    -0.226 NA
ATOM     18  C   UNL d   1     -40.945  15.897  20.428  0.00  0.00     0.037 A 
ATOM     19  C   UNL d   1     -40.916  15.908  21.263  0.00  0.00     0.005 A 
ATOM     20  C   UNL d   1     -40.398  15.403  21.666  0.00  0.00     0.018 A 
ATOM     21  C   UNL d   1     -39.392  14.382  21.648  0.00  0.00     0.019 C 
ENDBRANCH   1  12
TORSDOF 3
ENDMDL
MODEL 5
REMARK VINA RESULT:      -4.5      8.660     10.463
REMARK  3 active torsions:
REMARK  status: ('A' for Active; 'I' for Inactive)
REMARK    1  A    between atoms: C_4  and  S_13 
REMARK    2  A    between atoms: C_16  and  C_6 
REMARK    3  A    between atoms: S_13  and  C_16 
ROOT
ATOM      1  C   UNL d   1     -38.416  14.569  19.012  0.00  0.00     0.059 C 
ENDROOT
BRANCH   1   2
ATOM      2  S   UNL d   1     -38.825  14.134  18.465  0.00  0.00    -0.046 SA
BRANCH   2   3
ATOM      3  C   UNL d   1     -38.619  14.197  17.669  0.00  0.00     0.194 A 
ATOM      4  N   UNL d   1     -38.494  14.838  17.167  0.00  0.00    -0.220 NA
ATOM      5  C   UNL d   1     -38.300  14.550  16.426  0.00  0.00     0.101 A 
ATOM      6  C   UNL d   1     -38.121  14.933  15.727  0.00  0.00     0.021 A 
ATOM      7  C   UNL d   1     -38.303  13.753  16.462  0.00  0.00     0.101 A 
ATOM      8  C   UNL d   1     -37.943  14.518  15.051  0.00  0.00     0.002 A 
ATOM      9  C   UNL d   1     -37.940  13.683  15.064  0.00  0.00     0.002 A 
ATOM     10  C   UNL d   1     -38.126  13.293  15.792  0.00  0.00     0.021 A 
ATOM     11  N   UNL d   1     -38.501  13.497  17.232  0.00  0.00    -0.220 NA
ENDBRANCH   2   3
ENDBRANCH   1   2
BRANCH   1  12
ATOM     12  C   UNL d   1     -38.523  14.420  19.806  0.00  0.00     0.107 A 
ATOM     13  C   UNL d   1     -38.963  14.860  20.331  0.00  0.00     0.101 A 
ATOM     14  N   UNL d   1     -38.936  14.532  21.083  0.00  0.00    -0.289 N 
ATOM     15  C   UNL d   1     -38.459  13.856  21.028  0.00  0.00     0.148 A 
ATOM     16  C   UNL d   1     -39.272  14.738  21.821  0.00  0.00     0.066 A 
ATOM     17  N   UNL d   1     -38.198  13.779  20.240  0.00  0.00    -0.226 NA
ATOM     18  C   UNL d   1     -38.317  13.394  21.696  0.00  0.00     0.037 A 
ATOM     19  C   UNL d   1     -38.656  13.606  22.430  0.00  0.00     0.005 A 
ATOM     20  C   UNL d   1     -39.133  14.281  22.485  0.00  0.00     0.018 A 
ATOM     21  C   UNL d   1     -39.752  15.419  21.872  0.00  0.00     0.019 C 
ENDBRANCH   1  12
TORSDOF 3
ENDMDL
MODEL 6
REMARK VINA RESULT:      -4.5      8.891      9.629
REMARK  3 active torsions:
REMARK  status: ('A' for Active; 'I' for Inactive)
REMARK    1  A    between atoms: C_4  and  S_13 
REMARK    2  A    between atoms: C_16  and  C_6 
REMARK    3  A    between atoms: S_13  and  C_16 
ROOT
ATOM      1  C   UNL d   1     -39.408  14.431  19.805  0.00  0.00     0.059 C 
ENDROOT
BRANCH   1   2
ATOM      2  S   UNL d   1     -39.309  15.089  20.266  0.00  0.00    -0.046 SA
BRANCH   2   3
ATOM      3  C   UNL d   1     -39.135  14.993  21.067  0.00  0.00     0.194 A 
ATOM      4  N   UNL d   1     -39.099  14.336  21.563  0.00  0.00    -0.220 NA
ATOM      5  C   UNL d   1     -38.896  14.592  22.312  0.00  0.00     0.101 A 
ATOM      6  C   UNL d   1     -38.783  14.182  23.011  0.00  0.00     0.021 A 
ATOM      7  C   UNL d   1     -38.806  15.384  22.288  0.00  0.00     0.101 A 
ATOM      8  C   UNL d   1     -38.578  14.567  23.698  0.00  0.00     0.002 A 
ATOM      9  C   UNL d   1     -38.479  15.396  23.697  0.00  0.00     0.002 A 
ATOM     10  C   UNL d   1     -38.597  15.813  22.970  0.00  0.00     0.021 A 
ATOM     11  N   UNL d   1     -38.950  15.670  21.517  0.00  0.00    -0.220 NA
ENDBRANCH   2   3
ENDBRANCH   1   2
BRANCH   1  12
ATOM     12  C   UNL d   1     -39.419  14.506  18.993  0.00  0.00     0.107 A 
ATOM     13  C   UNL d   1     -38.899  14.169  18.465  0.00  0.00     0.101 A 
ATOM     14  N   UNL d   1     -39.092  14.375  17.693  0.00  0.00    -0.289 N 
ATOM     15  C   UNL d   1     -39.762  14.862  17.740  0.00  0.00     0.148 A 
ATOM     16  C   UNL d   1     -38.765  14.198  16.944  0.00  0.00     0.066 A 
ATOM     17  N   UNL d   1     -39.971  14.948  18.542  0.00  0.00    -0.226 NA
ATOM     18  C   UNL d   1     -40.100  15.167  17.053  0.00  0.00     0.037 A 
ATOM     19  C   UNL d   1     -39.768  14.985  16.308  0.00  0.00     0.005 A 
ATOM     20  C   UNL d   1     -39.099  14.499  16.261  0.00  0.00     0.018 A 
ATOM     21  C   UNL d   1     -38.090  13.708  16.902  0.00  0.00     0.019 C 
ENDBRANCH   1  12
TORSDOF 3
ENDMDL
MODEL 7
REMARK VINA RESULT:      -4.4      8.778     10.761
REMARK  3 active torsions:
REMARK  status: ('A' for Active; 'I' for Inactive)
REMARK    1  A    between atoms: C_4  and  S_13 
REMARK    2  A    between atoms: C_16  and  C_6 
REMARK    3  A    between atoms: S_13  and  C_16 
ROOT
ATOM      1  C   UNL d   1     -38.358  15.000  18.283  0.00  0.00     0.059 C 
ENDROOT
BRANCH   1   2
ATOM      2  S   UNL d   1     -39.103  15.072  18.590  0.00  0.00    -0.046 SA
BRANCH   2   3
ATOM      3  C   UNL d   1     -39.192  15.212  19.398  0.00  0.00     0.194 A 
ATOM      4  N   UNL d   1     -38.692  15.523  19.975  0.00  0.00    -0.220 NA
ATOM      5  C   UNL d   1     -39.094  15.525  20.687  0.00  0.00     0.101 A 
ATOM      6  C   UNL d   1     -38.869  15.769  21.434  0.00  0.00     0.021 A 
ATOM      7  C   UNL d   1     -39.823  15.225  20.561  0.00  0.00     0.101 A 
ATOM      8  C   UNL d   1     -39.377  15.714  22.067  0.00  0.00     0.002 A 
ATOM      9  C   UNL d   1     -40.144  15.404  21.960  0.00  0.00     0.002 A 
ATOM     10  C   UNL d   1     -40.370  15.154  21.183  0.00  0.00     0.021 A 
ATOM     11  N   UNL d   1     -39.918  15.018  19.758  0.00  0.00    -0.220 NA
ENDBRANCH   2   3
ENDBRANCH   1   2
BRANCH   1  12
ATOM     12  C   UNL d   1     -38.263  14.797  17.499  0.00  0.00     0.107 A 
ATOM     13  C   UNL d   1     -38.196  15.305  16.867  0.00  0.00     0.101 A 
ATOM     14  N   UNL d   1     -38.107  14.888  16.164  0.00  0.00    -0.289 N 
ATOM     15  C   UNL d   1     -38.119  14.084  16.365  0.00  0.00     0.148 A 
ATOM     16  C   UNL d   1     -38.016  15.109  15.363  0.00  0.00     0.066 A 
ATOM     17  N   UNL d   1     -38.215  14.017  17.190  0.00  0.00    -0.226 NA
ATOM     18  C   UNL d   1     -38.042  13.509  15.778  0.00  0.00     0.037 A 
ATOM     19  C   UNL d   1     -37.952  13.739  14.979  0.00  0.00     0.005 A 
ATOM     20  C   UNL d   1     -37.940  14.542  14.779  0.00  0.00     0.018 A 
ATOM     21  C   UNL d   1     -38.004  15.921  15.165  0.00  0.00     0.019 C 
ENDBRANCH   1  12
TORSDOF 3
ENDMDL
