MODEL 1
REMARK VINA RESULT:      86.8      0.000      0.000
REMARK  3 active torsions:
REMARK  status: ('A' for Active; 'I' for Inactive)
REMARK    1  A    between atoms: C_14  and  C_1 
REMARK    2  A    between atoms: C_3  and  C_8 
REMARK       I    between atoms: C_8  and  N_13 
REMARK    3  A    between atoms: N_13  and  C_15 
ROOT
ATOM      1  C   UNL d   1      59.396  49.625  50.978  0.00  0.00     0.025 A 
ATOM      2  C   UNL d   1      60.812  49.581  50.752  0.00  0.00     0.085 A 
ATOM      3  C   UNL d   1      60.041  49.568  50.461  0.00  0.00     0.021 A 
ATOM      4  C   UNL d   1      59.493  49.692  51.753  0.00  0.00     0.002 A 
ATOM      5  C   UNL d   1      60.238  49.706  52.059  0.00  0.00     0.002 A 
ATOM      6  C   UNL d   1      60.929  49.653  51.583  0.00  0.00     0.019 A 
ENDROOT
BRANCH   2   7
ATOM      7  N   UNL d   1      61.460  49.527  50.257  0.00  0.00    -0.206 NA
ATOM      8  C   UNL d   1      61.832  48.784  50.160  0.00  0.00     0.302 C 
ATOM      9  O   UNL d   1      62.506  48.739  49.641  0.00  0.00    -0.263 OA
BRANCH   8  10
ATOM     10  C   UNL d   1      61.556  48.145  50.544  0.00  0.00     0.161 A 
ATOM     11  C   UNL d   1      61.478  48.223  51.350  0.00  0.00     0.072 A 
ATOM     12  C   UNL d   1      61.195  47.571  51.760  0.00  0.00     0.200 A 
ATOM     13  O   UNL d   1      61.110  47.626  52.558  0.00  0.00    -0.286 OA
ATOM     14  C   UNL d   1      60.997  46.869  51.374  0.00  0.00     0.062 A 
ATOM     15  C   UNL d   1      61.081  46.805  50.556  0.00  0.00     0.103 A 
ATOM     16  C   UNL d   1      60.712  46.213  51.781  0.00  0.00     0.005 A 
ATOM     17  O   UNL d   1      61.364  47.446  50.119  0.00  0.00    -0.302 OA
ATOM     18  C   UNL d   1      60.876  46.083  50.171  0.00  0.00     0.025 A 
ATOM     19  C   UNL d   1      60.598  45.444  50.568  0.00  0.00     0.002 A 
ATOM     20  C   UNL d   1      60.521  45.519  51.366  0.00  0.00     0.000 A 
ENDBRANCH   8  10
ENDBRANCH   2   7
BRANCH   1  21
ATOM     21  C   UNL d   1      58.625  49.607  50.641  0.00  0.00     0.111 A 
ATOM     22  N   UNL d   1      57.878  49.527  50.981  0.00  0.00    -0.239 NA
ATOM     23  C   UNL d   1      57.313  49.548  50.378  0.00  0.00     0.088 A 
ATOM     24  C   UNL d   1      56.485  49.498  50.353  0.00  0.00     0.020 A 
ATOM     25  C   UNL d   1      57.725  49.643  49.671  0.00  0.00     0.049 A 
ATOM     26  C   UNL d   1      56.041  49.538  49.635  0.00  0.00     0.002 A 
ATOM     27  C   UNL d   1      56.468  49.635  48.908  0.00  0.00     0.001 A 
ATOM     28  C   UNL d   1      57.311  49.686  48.946  0.00  0.00     0.008 A 
ATOM     29  S   UNL d   1      58.546  49.678  49.849  0.00  0.00    -0.066 SA
ENDBRANCH   1  21
TORSDOF 3
ENDMDL
