MODEL 1
REMARK VINA RESULT:      22.2      0.000      0.000
REMARK  4 active torsions:
REMARK  status: ('A' for Active; 'I' for Inactive)
REMARK    1  A    between atoms: C_2  and  N_1 
REMARK       I    between atoms: C_3  and  N_1 
REMARK    2  A    between atoms: C_6  and  C_3 
REMARK    3  A    between atoms: O_7  and  C_6 
REMARK    4  A    between atoms: C_9  and  O_7 
ROOT
ATOM      1  C   UNL d   1      58.802  49.670  50.588  0.00  0.00     0.158 C 
ATOM      2  C   UNL d   1      58.301  49.704  51.231  0.00  0.00     0.032 C 
ENDROOT
BRANCH   1   3
ATOM      3  C   UNL d   1      59.616  49.611  50.701  0.00  0.00     0.304 C 
ATOM      4  N   UNL d   1      59.923  49.514  51.454  0.00  0.00    -0.181 NA
ATOM      5  O   UNL d   1      60.124  49.649  50.052  0.00  0.00    -0.263 OA
BRANCH   4   6
ATOM      6  C   UNL d   1      60.736  49.454  51.568  0.00  0.00     0.197 A 
ATOM      7  N   UNL d   1      61.151  49.703  52.242  0.00  0.00    -0.219 NA
ATOM      8  C   UNL d   1      61.949  49.540  52.124  0.00  0.00     0.108 A 
ATOM      9  C   UNL d   1      62.033  49.188  51.373  0.00  0.00     0.059 A 
ATOM     10  S   UNL d   1      61.284  49.137  51.034  0.00  0.00    -0.046 SA
ENDBRANCH   4   6
ENDBRANCH   1   3
BRANCH   1  11
ATOM     11  O   UNL d   1      58.490  49.697  49.824  0.00  0.00    -0.302 OA
BRANCH  11  12
ATOM     12  C   UNL d   1      57.675  49.676  49.709  0.00  0.00     0.100 A 
ATOM     13  C   UNL d   1      57.363  49.664  48.939  0.00  0.00     0.025 A 
ATOM     14  C   UNL d   1      56.544  49.643  48.830  0.00  0.00     0.002 A 
ATOM     15  C   UNL d   1      56.034  49.634  49.479  0.00  0.00     0.000 A 
ATOM     16  C   UNL d   1      56.339  49.645  50.244  0.00  0.00     0.002 A 
ATOM     17  C   UNL d   1      57.161  49.667  50.364  0.00  0.00     0.025 A 
ENDBRANCH  11  12
ENDBRANCH   1  11
TORSDOF 4
ENDMDL
