MODEL 1
REMARK VINA RESULT:      44.2      0.000      0.000
REMARK  7 active torsions:
REMARK  status: ('A' for Active; 'I' for Inactive)
REMARK    1  A    between atoms: N_4  and  C_1 
REMARK    2  A    between atoms: N_8  and  C_1 
REMARK    3  A    between atoms: C_2  and  C_3 
REMARK    4  A    between atoms: C_5  and  C_2 
REMARK    5  A    between atoms: N_6  and  C_2 
REMARK    6  A    between atoms: C_3  and  N_4 
REMARK    7  A    between atoms: C_14  and  N_8 
ROOT
ATOM      1  C   UNL d   1      13.306  13.849  -4.164  0.00  0.00     0.100 C 
ATOM      2  C   UNL d   1      12.828  14.177  -4.744  0.00  0.00     0.022 C 
ENDROOT
BRANCH   1   3
ATOM      3  C   UNL d   1      13.403  13.031  -4.126  0.00  0.00     0.088 C 
BRANCH   3   4
ATOM      4  C   UNL d   1      13.415  12.582  -4.818  0.00  0.00     0.047 A 
ATOM      5  S   UNL d   1      14.059  12.479  -5.330  0.00  0.00    -0.085 SA
ATOM      6  C   UNL d   1      13.822  11.990  -5.949  0.00  0.00     0.035 A 
ATOM      7  C   UNL d   1      13.029  11.781  -5.834  0.00  0.00     0.007 A 
ATOM      8  C   UNL d   1      12.771  12.149  -5.130  0.00  0.00     0.009 A 
ENDBRANCH   3   4
BRANCH   3   9
ATOM      9  N   UNL d   1      13.489  12.653  -3.391  0.00  0.00    -0.299 N 
ATOM     10  C   UNL d   1      14.165  12.770  -2.946  0.00  0.00     0.107 A 
ATOM     11  C   UNL d   1      14.259  12.400  -2.216  0.00  0.00     0.142 A 
ATOM     12  O   UNL d   1      13.664  11.897  -1.920  0.00  0.00    -0.300 OA
ATOM     13  C   UNL d   1      12.976  11.780  -2.375  0.00  0.00     0.142 A 
ATOM     14  C   UNL d   1      12.890  12.156  -3.107  0.00  0.00     0.107 A 
ENDBRANCH   3   9
ENDBRANCH   1   3
BRANCH   1  15
ATOM     15  N   UNL d   1      13.693  14.328  -3.617  0.00  0.00    -0.216 NA
BRANCH  15  16
ATOM     16  C   UNL d   1      13.701  15.153  -3.723  0.00  0.00     0.221 C 
ATOM     17  S   UNL d   1      12.988  15.559  -3.801  0.00  0.00    -0.037 SA
BRANCH  16  18
ATOM     18  N   UNL d   1      14.419  15.556  -3.749  0.00  0.00    -0.217 NA
BRANCH  18  19
ATOM     19  C   UNL d   1      14.674  16.002  -3.101  0.00  0.00     0.084 A 
ATOM     20  C   UNL d   1      14.982  16.765  -3.223  0.00  0.00     0.021 A 
ATOM     21  C   UNL d   1      15.231  17.198  -2.583  0.00  0.00     0.031 A 
ATOM     22  C   UNL d   1      15.181  16.891  -1.815  0.00  0.00     0.140 A 
ATOM     23  C   UNL d   1      14.874  16.134  -1.699  0.00  0.00     0.031 A 
ATOM     24  F   UNL d   1      15.438  17.343  -1.168  0.00  0.00    -0.204 F 
ATOM     25  C   UNL d   1      14.621  15.692  -2.342  0.00  0.00     0.021 A 
ENDBRANCH  18  19
ENDBRANCH  16  18
ENDBRANCH  15  16
ENDBRANCH   1  15
TORSDOF 7
ENDMDL
MODEL 2
REMARK VINA RESULT:      44.5      1.330      2.272
REMARK  7 active torsions:
REMARK  status: ('A' for Active; 'I' for Inactive)
REMARK    1  A    between atoms: N_4  and  C_1 
REMARK    2  A    between atoms: N_8  and  C_1 
REMARK    3  A    between atoms: C_2  and  C_3 
REMARK    4  A    between atoms: C_5  and  C_2 
REMARK    5  A    between atoms: N_6  and  C_2 
REMARK    6  A    between atoms: C_3  and  N_4 
REMARK    7  A    between atoms: C_14  and  N_8 
ROOT
ATOM      1  C   UNL d   1      13.680  13.751  -3.272  0.00  0.00     0.100 C 
ATOM      2  C   UNL d   1      12.992  14.150  -3.473  0.00  0.00     0.022 C 
ENDROOT
BRANCH   1   3
ATOM      3  C   UNL d   1      13.705  12.927  -3.319  0.00  0.00     0.088 C 
BRANCH   3   4
ATOM      4  C   UNL d   1      13.828  12.478  -2.637  0.00  0.00     0.047 A 
ATOM      5  S   UNL d   1      13.247  12.203  -2.114  0.00  0.00    -0.085 SA
ATOM      6  C   UNL d   1      13.619  11.779  -1.513  0.00  0.00     0.035 A 
ATOM      7  C   UNL d   1      14.436  11.784  -1.652  0.00  0.00     0.007 A 
ATOM      8  C   UNL d   1      14.571  12.218  -2.352  0.00  0.00     0.009 A 
ENDBRANCH   3   4
BRANCH   3   9
ATOM      9  N   UNL d   1      13.606  12.545  -4.050  0.00  0.00    -0.299 N 
ATOM     10  C   UNL d   1      14.239  12.167  -4.403  0.00  0.00     0.107 A 
ATOM     11  C   UNL d   1      14.151  11.785  -5.128  0.00  0.00     0.142 A 
ATOM     12  O   UNL d   1      13.412  11.780  -5.513  0.00  0.00    -0.300 OA
ATOM     13  C   UNL d   1      12.769  12.166  -5.151  0.00  0.00     0.142 A 
ATOM     14  C   UNL d   1      12.867  12.546  -4.423  0.00  0.00     0.107 A 
ENDBRANCH   3   9
ENDBRANCH   1   3
BRANCH   1  15
ATOM     15  N   UNL d   1      14.348  14.163  -3.025  0.00  0.00    -0.216 NA
BRANCH  15  16
ATOM     16  C   UNL d   1      14.300  14.980  -2.882  0.00  0.00     0.221 C 
ATOM     17  S   UNL d   1      14.454  15.509  -3.495  0.00  0.00    -0.037 SA
BRANCH  16  18
ATOM     18  N   UNL d   1      14.100  15.254  -2.131  0.00  0.00    -0.217 NA
BRANCH  18  19
ATOM     19  C   UNL d   1      14.613  15.752  -1.715  0.00  0.00     0.084 A 
ATOM     20  C   UNL d   1      14.889  15.524  -0.965  0.00  0.00     0.021 A 
ATOM     21  C   UNL d   1      15.393  16.018  -0.562  0.00  0.00     0.031 A 
ATOM     22  C   UNL d   1      15.632  16.740  -0.888  0.00  0.00     0.140 A 
ATOM     23  C   UNL d   1      15.355  16.963  -1.632  0.00  0.00     0.031 A 
ATOM     24  F   UNL d   1      16.147  17.237  -0.466  0.00  0.00    -0.204 F 
ATOM     25  C   UNL d   1      14.847  16.468  -2.044  0.00  0.00     0.021 A 
ENDBRANCH  18  19
ENDBRANCH  16  18
ENDBRANCH  15  16
ENDBRANCH   1  15
TORSDOF 7
ENDMDL
MODEL 3
REMARK VINA RESULT:      46.4      2.275      4.280
REMARK  7 active torsions:
REMARK  status: ('A' for Active; 'I' for Inactive)
REMARK    1  A    between atoms: N_4  and  C_1 
REMARK    2  A    between atoms: N_8  and  C_1 
REMARK    3  A    between atoms: C_2  and  C_3 
REMARK    4  A    between atoms: C_5  and  C_2 
REMARK    5  A    between atoms: N_6  and  C_2 
REMARK    6  A    between atoms: C_3  and  N_4 
REMARK    7  A    between atoms: C_14  and  N_8 
ROOT
ATOM      1  C   UNL d   1      14.391  13.687  -2.190  0.00  0.00     0.100 C 
ATOM      2  C   UNL d   1      14.770  13.132  -2.660  0.00  0.00     0.022 C 
ENDROOT
BRANCH   1   3
ATOM      3  C   UNL d   1      14.494  13.671  -1.371  0.00  0.00     0.088 C 
BRANCH   3   4
ATOM      4  C   UNL d   1      14.898  14.284  -0.994  0.00  0.00     0.047 A 
ATOM      5  S   UNL d   1      15.478  14.206  -0.406  0.00  0.00    -0.085 SA
ATOM      6  C   UNL d   1      15.730  14.959  -0.189  0.00  0.00     0.035 A 
ATOM      7  C   UNL d   1      15.312  15.517  -0.635  0.00  0.00     0.007 A 
ATOM      8  C   UNL d   1      14.792  15.101  -1.139  0.00  0.00     0.009 A 
ENDBRANCH   3   4
BRANCH   3   9
ATOM      9  N   UNL d   1      14.193  13.040  -0.922  0.00  0.00    -0.299 N 
ATOM     10  C   UNL d   1      13.408  13.039  -0.692  0.00  0.00     0.107 A 
ATOM     11  C   UNL d   1      13.100  12.418  -0.247  0.00  0.00     0.142 A 
ATOM     12  O   UNL d   1      13.587  11.779  -0.024  0.00  0.00    -0.300 OA
ATOM     13  C   UNL d   1      14.386  11.783  -0.260  0.00  0.00     0.142 A 
ATOM     14  C   UNL d   1      14.686  12.411  -0.707  0.00  0.00     0.107 A 
ENDBRANCH   3   9
ENDBRANCH   1   3
BRANCH   1  15
ATOM     15  N   UNL d   1      13.907  14.261  -2.526  0.00  0.00    -0.216 NA
BRANCH  15  16
ATOM     16  C   UNL d   1      13.503  14.099  -3.234  0.00  0.00     0.221 C 
ATOM     17  S   UNL d   1      13.504  14.657  -3.840  0.00  0.00    -0.037 SA
BRANCH  16  18
ATOM     18  N   UNL d   1      13.104  13.383  -3.324  0.00  0.00    -0.217 NA
BRANCH  18  19
ATOM     19  C   UNL d   1      13.115  12.985  -4.048  0.00  0.00     0.084 A 
ATOM     20  C   UNL d   1      13.256  12.165  -4.064  0.00  0.00     0.021 A 
ATOM     21  C   UNL d   1      13.266  11.780  -4.779  0.00  0.00     0.031 A 
ATOM     22  C   UNL d   1      13.137  12.191  -5.486  0.00  0.00     0.140 A 
ATOM     23  C   UNL d   1      12.998  13.003  -5.465  0.00  0.00     0.031 A 
ATOM     24  F   UNL d   1      13.149  11.786  -6.212  0.00  0.00    -0.204 F 
ATOM     25  C   UNL d   1      12.987  13.398  -4.746  0.00  0.00     0.021 A 
ENDBRANCH  18  19
ENDBRANCH  16  18
ENDBRANCH  15  16
ENDBRANCH   1  15
TORSDOF 7
ENDMDL
