MODEL 1
REMARK VINA RESULT:      -2.8      0.000      0.000
REMARK  3 active torsions:
REMARK  status: ('A' for Active; 'I' for Inactive)
REMARK    1  A    between atoms: S_6  and  C_1 
REMARK    2  A    between atoms: C_9  and  S_6 
REMARK    3  A    between atoms: C_7  and  C_9 
REMARK       I    between atoms: N_8  and  C_7 
ROOT
ATOM      1  C   UNL d   1      33.083  19.070 -23.598  0.00  0.00     0.049 A 
ATOM      2  N   UNL d   1      33.241  20.327 -24.027  0.00  0.00    -0.245 NA
ATOM      3  C   UNL d   1      33.171  19.540 -24.270  0.00  0.00     0.087 A 
ATOM      4  C   UNL d   1      33.097  19.556 -22.936  0.00  0.00     0.025 A 
ATOM      5  C   UNL d   1      33.195  20.333 -23.194  0.00  0.00     0.082 A 
ATOM      6  C   UNL d   1      33.185  19.263 -25.046  0.00  0.00     0.021 C 
ATOM      7  C   UNL d   1      33.035  19.400 -22.131  0.00  0.00     0.002 A 
ATOM      8  C   UNL d   1      33.230  20.954 -22.649  0.00  0.00     0.019 A 
ATOM      9  C   UNL d   1      33.069  20.009 -21.577  0.00  0.00     0.000 A 
ATOM     10  C   UNL d   1      33.168  20.795 -21.848  0.00  0.00     0.002 A 
ENDROOT
BRANCH   1  11
ATOM     11  S   UNL d   1      32.995  18.242 -23.587  0.00  0.00    -0.080 SA
BRANCH  11  12
ATOM     12  C   UNL d   1      32.255  17.911 -23.757  0.00  0.00     0.097 C 
BRANCH  12  13
ATOM     13  C   UNL d   1      32.131  17.103 -23.615  0.00  0.00     0.272 C 
ATOM     14  N   UNL d   1      31.391  16.769 -23.798  0.00  0.00    -0.267 N 
ATOM     15  C   UNL d   1      31.265  15.964 -23.658  0.00  0.00     0.110 A 
ATOM     16  C   UNL d   1      30.785  17.236 -24.118  0.00  0.00     0.110 A 
ATOM     17  C   UNL d   1      30.529  15.630 -23.840  0.00  0.00     0.142 A 
ATOM     18  O   UNL d   1      29.920  16.094 -24.160  0.00  0.00    -0.300 OA
ATOM     19  C   UNL d   1      30.055  16.903 -24.297  0.00  0.00     0.142 A 
ATOM     20  O   UNL d   1      32.735  16.631 -23.295  0.00  0.00    -0.266 OA
ENDBRANCH  12  13
ENDBRANCH  11  12
ENDBRANCH   1  11
TORSDOF 3
ENDMDL
MODEL 2
REMARK VINA RESULT:      -2.6      1.330      4.259
REMARK  3 active torsions:
REMARK  status: ('A' for Active; 'I' for Inactive)
REMARK    1  A    between atoms: S_6  and  C_1 
REMARK    2  A    between atoms: C_9  and  S_6 
REMARK    3  A    between atoms: C_7  and  C_9 
REMARK       I    between atoms: N_8  and  C_7 
ROOT
ATOM      1  C   UNL d   1      32.022  16.921 -23.923  0.00  0.00     0.049 A 
ATOM      2  N   UNL d   1      31.816  15.675 -23.482  0.00  0.00    -0.245 NA
ATOM      3  C   UNL d   1      32.389  16.260 -23.594  0.00  0.00     0.087 A 
ATOM      4  C   UNL d   1      31.223  16.755 -24.019  0.00  0.00     0.025 A 
ATOM      5  C   UNL d   1      31.089  15.987 -23.749  0.00  0.00     0.082 A 
ATOM      6  C   UNL d   1      33.190  16.202 -23.410  0.00  0.00     0.021 C 
ATOM      7  C   UNL d   1      30.595  17.196 -24.316  0.00  0.00     0.002 A 
ATOM      8  C   UNL d   1      30.330  15.661 -23.775  0.00  0.00     0.019 A 
ATOM      9  C   UNL d   1      29.834  16.883 -24.347  0.00  0.00     0.000 A 
ATOM     10  C   UNL d   1      29.708  16.103 -24.071  0.00  0.00     0.002 A 
ENDROOT
BRANCH   1  11
ATOM     11  S   UNL d   1      32.394  17.638 -24.126  0.00  0.00    -0.080 SA
BRANCH  11  12
ATOM     12  C   UNL d   1      32.577  18.183 -23.530  0.00  0.00     0.097 C 
BRANCH  12  13
ATOM     13  C   UNL d   1      32.789  18.957 -23.740  0.00  0.00     0.272 C 
ATOM     14  N   UNL d   1      32.909  19.520 -23.139  0.00  0.00    -0.267 N 
ATOM     15  C   UNL d   1      33.120  20.293 -23.346  0.00  0.00     0.110 A 
ATOM     16  C   UNL d   1      32.819  19.312 -22.342  0.00  0.00     0.110 A 
ATOM     17  C   UNL d   1      33.241  20.855 -22.750  0.00  0.00     0.142 A 
ATOM     18  O   UNL d   1      33.152  20.651 -21.951  0.00  0.00    -0.300 OA
ATOM     19  C   UNL d   1      32.939  19.872 -21.752  0.00  0.00     0.142 A 
ATOM     20  O   UNL d   1      32.880  19.169 -24.537  0.00  0.00    -0.266 OA
ENDBRANCH  12  13
ENDBRANCH  11  12
ENDBRANCH   1  11
TORSDOF 3
ENDMDL
MODEL 3
REMARK VINA RESULT:      -1.6      2.204      3.046
REMARK  3 active torsions:
REMARK  status: ('A' for Active; 'I' for Inactive)
REMARK    1  A    between atoms: S_6  and  C_1 
REMARK    2  A    between atoms: C_9  and  S_6 
REMARK    3  A    between atoms: C_7  and  C_9 
REMARK       I    between atoms: N_8  and  C_7 
ROOT
ATOM      1  C   UNL d   1      31.301  17.255 -24.498  0.00  0.00     0.049 A 
ATOM      2  N   UNL d   1      32.046  18.330 -24.224  0.00  0.00    -0.245 NA
ATOM      3  C   UNL d   1      31.379  18.064 -24.633  0.00  0.00     0.087 A 
ATOM      4  C   UNL d   1      31.914  17.011 -24.008  0.00  0.00     0.025 A 
ATOM      5  C   UNL d   1      32.378  17.670 -23.836  0.00  0.00     0.082 A 
ATOM      6  C   UNL d   1      30.874  18.521 -25.097  0.00  0.00     0.021 C 
ATOM      7  C   UNL d   1      32.116  16.278 -23.694  0.00  0.00     0.002 A 
ATOM      8  C   UNL d   1      33.042  17.598 -23.349  0.00  0.00     0.019 A 
ATOM      9  C   UNL d   1      32.776  16.193 -23.208  0.00  0.00     0.000 A 
ATOM     10  C   UNL d   1      33.241  16.867 -23.038  0.00  0.00     0.002 A 
ENDROOT
BRANCH   1  11
ATOM     11  S   UNL d   1      30.703  16.762 -24.805  0.00  0.00    -0.080 SA
BRANCH  11  12
ATOM     12  C   UNL d   1      29.942  16.798 -24.481  0.00  0.00     0.097 C 
BRANCH  12  13
ATOM     13  C   UNL d   1      29.433  16.150 -24.571  0.00  0.00     0.272 C 
ATOM     14  N   UNL d   1      28.727  16.125 -24.129  0.00  0.00    -0.267 N 
ATOM     15  C   UNL d   1      28.218  15.479 -24.217  0.00  0.00     0.110 A 
ATOM     16  C   UNL d   1      28.536  16.739 -23.605  0.00  0.00     0.110 A 
ATOM     17  C   UNL d   1      27.516  15.453 -23.778  0.00  0.00     0.142 A 
ATOM     18  O   UNL d   1      27.321  16.065 -23.253  0.00  0.00    -0.300 OA
ATOM     19  C   UNL d   1      27.839  16.710 -23.171  0.00  0.00     0.142 A 
ATOM     20  O   UNL d   1      29.620  15.533 -25.094  0.00  0.00    -0.266 OA
ENDBRANCH  12  13
ENDBRANCH  11  12
ENDBRANCH   1  11
TORSDOF 3
ENDMDL
MODEL 4
REMARK VINA RESULT:      -1.6      1.344      1.856
REMARK  3 active torsions:
REMARK  status: ('A' for Active; 'I' for Inactive)
REMARK    1  A    between atoms: S_6  and  C_1 
REMARK    2  A    between atoms: C_9  and  S_6 
REMARK    3  A    between atoms: C_7  and  C_9 
REMARK       I    between atoms: N_8  and  C_7 
ROOT
ATOM      1  C   UNL d   1      33.121  20.598 -22.438  0.00  0.00     0.049 A 
ATOM      2  N   UNL d   1      32.985  21.912 -22.649  0.00  0.00    -0.245 NA
ATOM      3  C   UNL d   1      33.122  21.184 -23.017  0.00  0.00     0.087 A 
ATOM      4  C   UNL d   1      32.984  20.952 -21.709  0.00  0.00     0.025 A 
ATOM      5  C   UNL d   1      32.899  21.763 -21.832  0.00  0.00     0.082 A 
ATOM      6  C   UNL d   1      33.241  21.058 -23.823  0.00  0.00     0.021 C 
ATOM      7  C   UNL d   1      32.925  20.649 -20.946  0.00  0.00     0.002 A 
ATOM      8  C   UNL d   1      32.755  22.270 -21.196  0.00  0.00     0.019 A 
ATOM      9  C   UNL d   1      32.781  21.144 -20.303  0.00  0.00     0.000 A 
ATOM     10  C   UNL d   1      32.696  21.965 -20.438  0.00  0.00     0.002 A 
ENDROOT
BRANCH   1  11
ATOM     11  S   UNL d   1      33.239  19.784 -22.564  0.00  0.00    -0.080 SA
BRANCH  11  12
ATOM     12  C   UNL d   1      32.679  19.356 -23.001  0.00  0.00     0.097 C 
BRANCH  12  13
ATOM     13  C   UNL d   1      32.734  18.529 -23.028  0.00  0.00     0.272 C 
ATOM     14  N   UNL d   1      32.277  18.112 -23.586  0.00  0.00    -0.267 N 
ATOM     15  C   UNL d   1      32.330  17.287 -23.616  0.00  0.00     0.110 A 
ATOM     16  C   UNL d   1      31.774  18.517 -24.107  0.00  0.00     0.110 A 
ATOM     17  C   UNL d   1      31.876  16.870 -24.169  0.00  0.00     0.142 A 
ATOM     18  O   UNL d   1      31.372  17.272 -24.692  0.00  0.00    -0.300 OA
ATOM     19  C   UNL d   1      31.325  18.101 -24.655  0.00  0.00     0.142 A 
ATOM     20  O   UNL d   1      33.236  18.119 -22.509  0.00  0.00    -0.266 OA
ENDBRANCH  12  13
ENDBRANCH  11  12
ENDBRANCH   1  11
TORSDOF 3
ENDMDL
MODEL 5
REMARK VINA RESULT:      -0.5      1.988      4.543
REMARK  3 active torsions:
REMARK  status: ('A' for Active; 'I' for Inactive)
REMARK    1  A    between atoms: S_6  and  C_1 
REMARK    2  A    between atoms: C_9  and  S_6 
REMARK    3  A    between atoms: C_7  and  C_9 
REMARK       I    between atoms: N_8  and  C_7 
ROOT
ATOM      1  C   UNL d   1      29.293  17.052 -24.386  0.00  0.00     0.049 A 
ATOM      2  N   UNL d   1      28.076  17.496 -24.056  0.00  0.00    -0.245 NA
ATOM      3  C   UNL d   1      28.735  17.639 -24.535  0.00  0.00     0.087 A 
ATOM      4  C   UNL d   1      28.990  16.540 -23.818  0.00  0.00     0.025 A 
ATOM      5  C   UNL d   1      28.239  16.810 -23.611  0.00  0.00     0.082 A 
ATOM      6  C   UNL d   1      28.826  18.259 -25.070  0.00  0.00     0.021 C 
ATOM      7  C   UNL d   1      29.293  15.865 -23.460  0.00  0.00     0.002 A 
ATOM      8  C   UNL d   1      27.791  16.405 -23.045  0.00  0.00     0.019 A 
ATOM      9  C   UNL d   1      28.858  15.453 -22.895  0.00  0.00     0.000 A 
ATOM     10  C   UNL d   1      28.096  15.733 -22.690  0.00  0.00     0.002 A 
ENDROOT
BRANCH   1  11
ATOM     11  S   UNL d   1      30.040  16.983 -24.748  0.00  0.00    -0.080 SA
BRANCH  11  12
ATOM     12  C   UNL d   1      30.698  17.336 -24.391  0.00  0.00     0.097 C 
BRANCH  12  13
ATOM     13  C   UNL d   1      31.444  17.250 -24.742  0.00  0.00     0.272 C 
ATOM     14  N   UNL d   1      31.971  17.895 -24.736  0.00  0.00    -0.267 N 
ATOM     15  C   UNL d   1      32.716  17.812 -25.086  0.00  0.00     0.110 A 
ATOM     16  C   UNL d   1      31.753  18.614 -24.385  0.00  0.00     0.110 A 
ATOM     17  C   UNL d   1      33.241  18.452 -25.082  0.00  0.00     0.142 A 
ATOM     18  O   UNL d   1      33.027  19.173 -24.731  0.00  0.00    -0.300 OA
ATOM     19  C   UNL d   1      32.276  19.248 -24.381  0.00  0.00     0.142 A 
ATOM     20  O   UNL d   1      31.666  16.532 -25.096  0.00  0.00    -0.266 OA
ENDBRANCH  12  13
ENDBRANCH  11  12
ENDBRANCH   1  11
TORSDOF 3
ENDMDL
