MODEL 1
REMARK VINA RESULT:      -2.8      0.000      0.000
REMARK  4 active torsions:
REMARK  status: ('A' for Active; 'I' for Inactive)
REMARK    1  A    between atoms: C_6  and  C_1 
REMARK    2  A    between atoms: S_7  and  C_3 
REMARK    3  A    between atoms: C_17  and  S_7 
REMARK    4  A    between atoms: C_18  and  C_17 
ROOT
ATOM      1  C   UNL d   1      57.538  -0.085  31.090  0.00  0.00     0.087 A 
ATOM      2  N   UNL d   1      57.400  -0.401  30.337  0.00  0.00    -0.245 NA
ATOM      3  C   UNL d   1      58.285   0.272  31.088  0.00  0.00     0.049 A 
ATOM      4  C   UNL d   1      58.615   0.182  30.339  0.00  0.00     0.025 A 
ATOM      5  C   UNL d   1      58.065  -0.236  29.873  0.00  0.00     0.082 A 
ATOM      6  C   UNL d   1      59.329   0.417  30.017  0.00  0.00     0.002 A 
ATOM      7  C   UNL d   1      58.242  -0.411  29.087  0.00  0.00     0.019 A 
ATOM      8  C   UNL d   1      59.505   0.241  29.230  0.00  0.00     0.000 A 
ATOM      9  C   UNL d   1      58.963  -0.172  28.769  0.00  0.00     0.002 A 
ENDROOT
BRANCH   1  10
ATOM     10  C   UNL d   1      56.999  -0.142  31.696  0.00  0.00     0.018 A 
ATOM     11  C   UNL d   1      56.782  -0.894  31.985  0.00  0.00     0.004 A 
ATOM     12  C   UNL d   1      56.236  -0.951  32.600  0.00  0.00     0.030 A 
ATOM     13  C   UNL d   1      55.903  -0.269  32.929  0.00  0.00     0.140 A 
ATOM     14  C   UNL d   1      56.116   0.480  32.643  0.00  0.00     0.030 A 
ATOM     15  F   UNL d   1      55.350  -0.320  33.550  0.00  0.00    -0.204 F 
ATOM     16  C   UNL d   1      56.663   0.537  32.029  0.00  0.00     0.004 A 
ENDBRANCH   1  10
BRANCH   3  17
ATOM     17  S   UNL d   1      58.640   0.653  31.727  0.00  0.00    -0.083 SA
BRANCH  17  18
ATOM     18  C   UNL d   1      59.464   0.561  31.848  0.00  0.00     0.058 C 
BRANCH  18  19
ATOM     19  C   UNL d   1      59.770   0.681  32.614  0.00  0.00     0.129 C 
ATOM     20  N   UNL d   1      60.579   0.680  32.716  0.00  0.00    -0.146 N 
ENDBRANCH  18  19
ENDBRANCH  17  18
ENDBRANCH   3  17
TORSDOF 4
ENDMDL
MODEL 2
REMARK VINA RESULT:      -2.8      1.433      1.827
REMARK  4 active torsions:
REMARK  status: ('A' for Active; 'I' for Inactive)
REMARK    1  A    between atoms: C_6  and  C_1 
REMARK    2  A    between atoms: S_7  and  C_3 
REMARK    3  A    between atoms: C_17  and  S_7 
REMARK    4  A    between atoms: C_18  and  C_17 
ROOT
ATOM      1  C   UNL d   1      58.068  -0.960  30.227  0.00  0.00     0.087 A 
ATOM      2  N   UNL d   1      57.870  -1.711  29.940  0.00  0.00    -0.245 NA
ATOM      3  C   UNL d   1      58.785  -0.732  29.882  0.00  0.00     0.049 A 
ATOM      4  C   UNL d   1      59.038  -1.336  29.382  0.00  0.00     0.025 A 
ATOM      5  C   UNL d   1      58.469  -1.943  29.419  0.00  0.00     0.082 A 
ATOM      6  C   UNL d   1      59.696  -1.419  28.904  0.00  0.00     0.002 A 
ATOM      7  C   UNL d   1      58.571  -2.629  28.973  0.00  0.00     0.019 A 
ATOM      8  C   UNL d   1      59.797  -2.106  28.457  0.00  0.00     0.000 A 
ATOM      9  C   UNL d   1      59.236  -2.707  28.492  0.00  0.00     0.002 A 
ENDROOT
BRANCH   1  10
ATOM     10  C   UNL d   1      57.603  -0.555  30.756  0.00  0.00     0.018 A 
ATOM     11  C   UNL d   1      57.290  -0.953  31.419  0.00  0.00     0.004 A 
ATOM     12  C   UNL d   1      56.819  -0.541  31.955  0.00  0.00     0.030 A 
ATOM     13  C   UNL d   1      56.654   0.261  31.840  0.00  0.00     0.140 A 
ATOM     14  C   UNL d   1      56.963   0.660  31.181  0.00  0.00     0.030 A 
ATOM     15  F   UNL d   1      56.179   0.682  32.378  0.00  0.00    -0.204 F 
ATOM     16  C   UNL d   1      57.435   0.248  30.645  0.00  0.00     0.004 A 
ENDBRANCH   1  10
BRANCH   3  17
ATOM     17  S   UNL d   1      59.181  -0.021  30.015  0.00  0.00    -0.083 SA
BRANCH  17  18
ATOM     18  C   UNL d   1      60.014  -0.031  30.103  0.00  0.00     0.058 C 
BRANCH  18  19
ATOM     19  C   UNL d   1      60.405   0.682  30.285  0.00  0.00     0.129 C 
ATOM     20  N   UNL d   1      61.086   0.651  30.733  0.00  0.00    -0.146 N 
ENDBRANCH  18  19
ENDBRANCH  17  18
ENDBRANCH   3  17
TORSDOF 4
ENDMDL
MODEL 3
REMARK VINA RESULT:      -1.6      2.627      3.826
REMARK  4 active torsions:
REMARK  status: ('A' for Active; 'I' for Inactive)
REMARK    1  A    between atoms: C_6  and  C_1 
REMARK    2  A    between atoms: S_7  and  C_3 
REMARK    3  A    between atoms: C_17  and  S_7 
REMARK    4  A    between atoms: C_18  and  C_17 
ROOT
ATOM      1  C   UNL d   1      58.525  -1.573  29.926  0.00  0.00     0.087 A 
ATOM      2  N   UNL d   1      57.862  -1.670  30.413  0.00  0.00    -0.245 NA
ATOM      3  C   UNL d   1      58.708  -0.767  29.895  0.00  0.00     0.049 A 
ATOM      4  C   UNL d   1      58.164  -0.357  30.358  0.00  0.00     0.025 A 
ATOM      5  C   UNL d   1      57.639  -0.919  30.679  0.00  0.00     0.082 A 
ATOM      6  C   UNL d   1      58.071   0.436  30.532  0.00  0.00     0.002 A 
ATOM      7  C   UNL d   1      57.026  -0.673  31.172  0.00  0.00     0.019 A 
ATOM      8  C   UNL d   1      57.457   0.681  31.026  0.00  0.00     0.000 A 
ATOM      9  C   UNL d   1      56.937   0.128  31.344  0.00  0.00     0.002 A 
ENDROOT
BRANCH   1  10
ATOM     10  C   UNL d   1      58.899  -2.198  29.564  0.00  0.00     0.018 A 
ATOM     11  C   UNL d   1      59.594  -2.513  29.898  0.00  0.00     0.004 A 
ATOM     12  C   UNL d   1      59.972  -3.146  29.529  0.00  0.00     0.030 A 
ATOM     13  C   UNL d   1      59.666  -3.469  28.832  0.00  0.00     0.140 A 
ATOM     14  C   UNL d   1      58.974  -3.157  28.497  0.00  0.00     0.030 A 
ATOM     15  F   UNL d   1      60.042  -4.108  28.455  0.00  0.00    -0.204 F 
ATOM     16  C   UNL d   1      58.596  -2.524  28.866  0.00  0.00     0.004 A 
ENDBRANCH   1  10
BRANCH   3  17
ATOM     17  S   UNL d   1      59.329  -0.428  29.472  0.00  0.00    -0.083 SA
BRANCH  17  18
ATOM     18  C   UNL d   1      59.805   0.152  29.845  0.00  0.00     0.058 C 
BRANCH  18  19
ATOM     19  C   UNL d   1      60.607   0.212  29.625  0.00  0.00     0.129 C 
ATOM     20  N   UNL d   1      60.798   0.632  28.953  0.00  0.00    -0.146 N 
ENDBRANCH  18  19
ENDBRANCH  17  18
ENDBRANCH   3  17
TORSDOF 4
ENDMDL
MODEL 4
REMARK VINA RESULT:      -0.6      1.047      2.215
REMARK  4 active torsions:
REMARK  status: ('A' for Active; 'I' for Inactive)
REMARK    1  A    between atoms: C_6  and  C_1 
REMARK    2  A    between atoms: S_7  and  C_3 
REMARK    3  A    between atoms: C_17  and  S_7 
REMARK    4  A    between atoms: C_18  and  C_17 
ROOT
ATOM      1  C   UNL d   1      57.906   0.214  32.035  0.00  0.00     0.087 A 
ATOM      2  N   UNL d   1      58.560   0.297  32.537  0.00  0.00    -0.245 NA
ATOM      3  C   UNL d   1      58.167   0.300  31.254  0.00  0.00     0.049 A 
ATOM      4  C   UNL d   1      58.979   0.435  31.263  0.00  0.00     0.025 A 
ATOM      5  C   UNL d   1      59.222   0.433  32.060  0.00  0.00     0.082 A 
ATOM      6  C   UNL d   1      59.526   0.559  30.668  0.00  0.00     0.002 A 
ATOM      7  C   UNL d   1      60.016   0.556  32.248  0.00  0.00     0.019 A 
ATOM      8  C   UNL d   1      60.321   0.682  30.857  0.00  0.00     0.000 A 
ATOM      9  C   UNL d   1      60.563   0.680  31.644  0.00  0.00     0.002 A 
ENDROOT
BRANCH   1  10
ATOM     10  C   UNL d   1      57.155   0.074  32.312  0.00  0.00     0.018 A 
ATOM     11  C   UNL d   1      56.829  -0.691  32.250  0.00  0.00     0.004 A 
ATOM     12  C   UNL d   1      56.067  -0.832  32.531  0.00  0.00     0.030 A 
ATOM     13  C   UNL d   1      55.626  -0.222  32.873  0.00  0.00     0.140 A 
ATOM     14  C   UNL d   1      55.948   0.540  32.937  0.00  0.00     0.030 A 
ATOM     15  F   UNL d   1      54.857  -0.359  33.159  0.00  0.00    -0.204 F 
ATOM     16  C   UNL d   1      56.710   0.681  32.656  0.00  0.00     0.004 A 
ENDBRANCH   1  10
BRANCH   3  17
ATOM     17  S   UNL d   1      57.695   0.257  30.580  0.00  0.00    -0.083 SA
BRANCH  17  18
ATOM     18  C   UNL d   1      57.983   0.577  29.861  0.00  0.00     0.058 C 
BRANCH  18  19
ATOM     19  C   UNL d   1      57.470   0.612  29.206  0.00  0.00     0.129 C 
ATOM     20  N   UNL d   1      57.760   0.407  28.471  0.00  0.00    -0.146 N 
ENDBRANCH  18  19
ENDBRANCH  17  18
ENDBRANCH   3  17
TORSDOF 4
ENDMDL
