MODEL 1
REMARK VINA RESULT:      -2.3      0.000      0.000
REMARK  5 active torsions:
REMARK  status: ('A' for Active; 'I' for Inactive)
REMARK    1  A    between atoms: C_10  and  C_4 
REMARK    2  A    between atoms: N_11  and  C_7 
REMARK    3  A    between atoms: C_13  and  N_11 
REMARK    4  A    between atoms: C_15  and  C_13 
REMARK    5  A    between atoms: O_25  and  C_17 
ROOT
ATOM      1  C   UNL d   1      33.189  22.371 -22.106  0.00  0.00     0.186 A 
ATOM      2  N   UNL d   1      33.174  22.960 -22.702  0.00  0.00    -0.193 N 
ATOM      3  N   UNL d   1      33.212  21.572 -22.326  0.00  0.00    -0.206 NA
ATOM      4  C   UNL d   1      33.178  22.759 -21.373  0.00  0.00     0.140 A 
ATOM      5  N   UNL d   1      33.153  23.702 -22.330  0.00  0.00    -0.058 NA
ATOM      6  N   UNL d   1      33.155  23.573 -21.511  0.00  0.00    -0.127 NA
ATOM      7  C   UNL d   1      33.219  21.350 -23.118  0.00  0.00     0.166 A 
ATOM      8  C   UNL d   1      33.203  21.941 -23.702  0.00  0.00     0.054 A 
ATOM      9  C   UNL d   1      33.181  22.738 -23.496  0.00  0.00     0.089 A 
ATOM     10  C   UNL d   1      33.210  21.719 -24.495  0.00  0.00     0.005 A 
ATOM     11  C   UNL d   1      33.165  23.316 -24.082  0.00  0.00     0.019 A 
ATOM     12  C   UNL d   1      33.195  22.297 -25.082  0.00  0.00     0.000 A 
ATOM     13  C   UNL d   1      33.172  23.095 -24.876  0.00  0.00     0.002 A 
ENDROOT
BRANCH   7  14
ATOM     14  N   UNL d   1      33.241  20.556 -23.337  0.00  0.00    -0.225 NA
BRANCH  14  15
ATOM     15  C   UNL d   1      32.852  19.992 -22.872  0.00  0.00     0.101 C 
BRANCH  15  16
ATOM     16  C   UNL d   1      32.830  19.200 -23.103  0.00  0.00     0.019 A 
ATOM     17  C   UNL d   1      32.485  18.989 -23.820  0.00  0.00     0.004 A 
ATOM     18  C   UNL d   1      32.463  18.197 -24.051  0.00  0.00     0.024 A 
ATOM     19  C   UNL d   1      32.793  17.614 -23.555  0.00  0.00     0.094 A 
ATOM     20  C   UNL d   1      33.139  17.837 -22.836  0.00  0.00     0.024 A 
ATOM     21  C   UNL d   1      33.155  18.631 -22.614  0.00  0.00     0.004 A 
BRANCH  19  22
ATOM     22  O   UNL d   1      32.772  16.821 -23.784  0.00  0.00    -0.328 OA
ATOM     23  C   UNL d   1      32.899  16.230 -23.219  0.00  0.00     0.181 C 
ENDBRANCH  19  22
ENDBRANCH  15  16
ENDBRANCH  14  15
ENDBRANCH   7  14
BRANCH   4  24
ATOM     24  C   UNL d   1      33.187  22.388 -20.643  0.00  0.00     0.025 A 
ATOM     25  C   UNL d   1      33.165  22.844 -19.957  0.00  0.00     0.031 A 
ATOM     26  C   UNL d   1      33.175  22.475 -19.213  0.00  0.00     0.140 A 
ATOM     27  F   UNL d   1      33.153  22.930 -18.527  0.00  0.00    -0.204 F 
ATOM     28  C   UNL d   1      33.206  21.651 -19.167  0.00  0.00     0.030 A 
ATOM     29  C   UNL d   1      33.227  21.199 -19.866  0.00  0.00     0.002 A 
ATOM     30  C   UNL d   1      33.218  21.568 -20.597  0.00  0.00     0.002 A 
ENDBRANCH   4  24
TORSDOF 5
ENDMDL
