MODEL 1
REMARK VINA RESULT:       4.8      0.000      0.000
REMARK  1 active torsions:
REMARK  status: ('A' for Active; 'I' for Inactive)
REMARK    1  A    between atoms: C_2  and  CA_3 
ROOT
ATOM      1  N   UNL d   1     -52.112  25.470  33.333  0.00  0.00    -0.237 NA
ATOM      2  CA  UNL d   1     -51.712  24.759  33.321  0.00  0.00     0.145 A 
ATOM      3  C   UNL d   1     -50.879  24.750  33.307  0.00  0.00     0.026 A 
ATOM      4  C   UNL d   1     -51.696  26.176  33.332  0.00  0.00     0.106 A 
ATOM      5  C   UNL d   1     -50.863  26.167  33.317  0.00  0.00     0.054 A 
ATOM      6  C   UNL d   1     -50.469  25.452  33.306  0.00  0.00     0.010 A 
ATOM      7 BR   UNL d   1     -50.453  26.879  33.316  0.00  0.00    -0.048 Br
ENDROOT
BRANCH   2   8
ATOM      8  C   UNL d   1     -52.127  24.047  33.323  0.00  0.00     0.229 C 
ATOM      9  O   UNL d   1     -52.952  24.040  33.315  0.00  0.00    -0.643 OA
ATOM     10  OXT UNL d   1     -51.725  23.330  33.333  0.00  0.00    -0.643 OA
ENDBRANCH   2   8
TORSDOF 1
ENDMDL
MODEL 2
REMARK VINA RESULT:       4.9      1.989      2.402
REMARK  1 active torsions:
REMARK  status: ('A' for Active; 'I' for Inactive)
REMARK    1  A    between atoms: C_2  and  CA_3 
ROOT
ATOM      1  N   UNL d   1     -52.091  25.253  33.363  0.00  0.00    -0.237 NA
ATOM      2  CA  UNL d   1     -51.283  25.146  33.333  0.00  0.00     0.145 A 
ATOM      3  C   UNL d   1     -50.966  24.376  33.305  0.00  0.00     0.026 A 
ATOM      4  C   UNL d   1     -52.592  24.605  33.365  0.00  0.00     0.106 A 
ATOM      5  C   UNL d   1     -52.275  23.835  33.337  0.00  0.00     0.054 A 
ATOM      6  C   UNL d   1     -51.465  23.735  33.308  0.00  0.00     0.010 A 
ATOM      7 BR   UNL d   1     -52.784  23.190  33.340  0.00  0.00    -0.048 Br
ENDROOT
BRANCH   2   8
ATOM      8  C   UNL d   1     -50.776  25.796  33.331  0.00  0.00     0.229 C 
ATOM      9  O   UNL d   1     -51.076  26.565  33.342  0.00  0.00    -0.643 OA
ATOM     10  OXT UNL d   1     -49.961  25.689  33.318  0.00  0.00    -0.643 OA
ENDBRANCH   2   8
TORSDOF 1
ENDMDL
