MODEL 1
REMARK VINA RESULT:       4.6      0.000      0.000
REMARK  6 active torsions:
REMARK  status: ('A' for Active; 'I' for Inactive)
REMARK    1  A    between atoms: C_10  and  C_2 
REMARK    2  A    between atoms: C_14  and  N_3 
REMARK    3  A    between atoms: C_15  and  C_4 
REMARK    4  A    between atoms: N_5  and  C_9 
REMARK       I    between atoms: C_7  and  N_8 
REMARK    5  A    between atoms: C_13  and  C_7 
REMARK    6  A    between atoms: N_8  and  C_10 
ROOT
ATOM      1  N   UNL d   1      57.591   0.178  33.601  0.00  0.00    -0.165 NA
ATOM      2  C   UNL d   1      57.354   0.197  32.186  0.00  0.00     0.071 A 
ATOM      3  N   UNL d   1      58.676   0.357  32.738  0.00  0.00    -0.228 N 
ATOM      4  C   UNL d   1      57.078   0.132  32.945  0.00  0.00     0.105 A 
ATOM      5  C   UNL d   1      58.162   0.311  32.083  0.00  0.00     0.105 A 
ENDROOT
BRANCH   2   6
ATOM      6  C   UNL d   1      56.833   0.151  31.521  0.00  0.00     0.168 C 
BRANCH   6   7
ATOM      7  N   UNL d   1      57.124   0.093  30.750  0.00  0.00    -0.362 NA
ATOM      8  C   UNL d   1      57.411   0.040  29.983  0.00  0.00     0.328 C 
ATOM      9  O   UNL d   1      57.176   0.581  29.406  0.00  0.00    -0.251 OA
BRANCH   8  10
ATOM     10  C   UNL d   1      57.940  -0.562  29.788  0.00  0.00     0.070 A 
ATOM     11  C   UNL d   1      58.576  -0.403  29.285  0.00  0.00     0.008 A 
ATOM     12  C   UNL d   1      59.112  -1.007  29.086  0.00  0.00     0.024 A 
ATOM     13  C   UNL d   1      59.007  -1.760  29.392  0.00  0.00     0.127 A 
ATOM     14  C   UNL d   1      58.374  -1.926  29.896  0.00  0.00     0.024 A 
ATOM     15  C   UNL d   1      57.835  -1.314  30.095  0.00  0.00     0.008 A 
BRANCH  13  16
ATOM     16  N   UNL d   1      59.538  -2.363  29.197  0.00  0.00    -0.114 N 
ATOM     17  O   UNL d   1      60.096  -2.602  29.755  0.00  0.00    -0.532 OA
ATOM     18  O   UNL d   1      59.510  -2.720  28.456  0.00  0.00    -0.532 OA
ENDBRANCH  13  16
ENDBRANCH   8  10
ENDBRANCH   6   7
ENDBRANCH   2   6
BRANCH   4  19
ATOM     19  C   UNL d   1      56.261   0.017  33.055  0.00  0.00     0.019 A 
ATOM     20  C   UNL d   1      56.004  -0.741  33.240  0.00  0.00     0.002 A 
ATOM     21  C   UNL d   1      55.196  -0.863  33.350  0.00  0.00     0.000 A 
ATOM     22  C   UNL d   1      54.655  -0.214  33.272  0.00  0.00     0.000 A 
ATOM     23  C   UNL d   1      54.926   0.534  33.088  0.00  0.00     0.000 A 
ATOM     24  C   UNL d   1      55.721   0.664  32.977  0.00  0.00     0.002 A 
ENDBRANCH   4  19
BRANCH   3  25
ATOM     25  C   UNL d   1      59.495   0.464  32.843  0.00  0.00     0.083 A 
ATOM     26  C   UNL d   1      60.010   0.508  32.175  0.00  0.00     0.019 A 
ATOM     27  C   UNL d   1      60.823   0.614  32.273  0.00  0.00     0.002 A 
ATOM     28  C   UNL d   1      61.122   0.677  33.034  0.00  0.00     0.000 A 
ATOM     29  C   UNL d   1      60.599   0.632  33.693  0.00  0.00     0.002 A 
ATOM     30  C   UNL d   1      59.788   0.526  33.597  0.00  0.00     0.019 A 
ENDBRANCH   3  25
TORSDOF 6
ENDMDL
MODEL 2
REMARK VINA RESULT:       5.4      1.603      3.908
REMARK  6 active torsions:
REMARK  status: ('A' for Active; 'I' for Inactive)
REMARK    1  A    between atoms: C_10  and  C_2 
REMARK    2  A    between atoms: C_14  and  N_3 
REMARK    3  A    between atoms: C_15  and  C_4 
REMARK    4  A    between atoms: N_5  and  C_9 
REMARK       I    between atoms: C_7  and  N_8 
REMARK    5  A    between atoms: C_13  and  C_7 
REMARK    6  A    between atoms: N_8  and  C_10 
ROOT
ATOM      1  N   UNL d   1      56.536   0.641  35.117  0.00  0.00    -0.165 NA
ATOM      2  C   UNL d   1      56.748   0.639  33.698  0.00  0.00     0.071 A 
ATOM      3  N   UNL d   1      55.425   0.645  34.270  0.00  0.00    -0.228 N 
ATOM      4  C   UNL d   1      57.041   0.638  34.453  0.00  0.00     0.105 A 
ATOM      5  C   UNL d   1      55.930   0.642  33.607  0.00  0.00     0.105 A 
ENDROOT
BRANCH   2   6
ATOM      6  C   UNL d   1      57.261   0.636  33.025  0.00  0.00     0.168 C 
BRANCH   6   7
ATOM      7  N   UNL d   1      57.047   0.254  32.324  0.00  0.00    -0.362 NA
ATOM      8  C   UNL d   1      56.832  -0.126  31.629  0.00  0.00     0.328 C 
ATOM      9  O   UNL d   1      56.081  -0.459  31.547  0.00  0.00    -0.251 OA
BRANCH   8  10
ATOM     10  C   UNL d   1      57.372  -0.176  31.009  0.00  0.00     0.070 A 
ATOM     11  C   UNL d   1      57.835  -0.855  30.920  0.00  0.00     0.008 A 
ATOM     12  C   UNL d   1      58.381  -0.908  30.296  0.00  0.00     0.024 A 
ATOM     13  C   UNL d   1      58.458  -0.286  29.769  0.00  0.00     0.127 A 
ATOM     14  C   UNL d   1      57.999   0.396  29.851  0.00  0.00     0.024 A 
ATOM     15  C   UNL d   1      57.449   0.447  30.483  0.00  0.00     0.008 A 
BRANCH  13  16
ATOM     16  N   UNL d   1      59.001  -0.335  29.146  0.00  0.00    -0.114 N 
ATOM     17  O   UNL d   1      59.127  -1.064  28.782  0.00  0.00    -0.532 OA
ATOM     18  O   UNL d   1      59.408   0.333  28.894  0.00  0.00    -0.532 OA
ENDBRANCH  13  16
ENDBRANCH   8  10
ENDBRANCH   6   7
ENDBRANCH   2   6
BRANCH   4  19
ATOM     19  C   UNL d   1      57.868   0.634  34.551  0.00  0.00     0.019 A 
ATOM     20  C   UNL d   1      58.161   0.675  35.318  0.00  0.00     0.002 A 
ATOM     21  C   UNL d   1      58.979   0.672  35.423  0.00  0.00     0.000 A 
ATOM     22  C   UNL d   1      59.493   0.627  34.748  0.00  0.00     0.000 A 
ATOM     23  C   UNL d   1      59.185   0.587  33.993  0.00  0.00     0.000 A 
ATOM     24  C   UNL d   1      58.380   0.590  33.880  0.00  0.00     0.002 A 
ENDBRANCH   4  19
BRANCH   3  25
ATOM     25  C   UNL d   1      54.600   0.649  34.386  0.00  0.00     0.083 A 
ATOM     26  C   UNL d   1      54.277   0.639  35.167  0.00  0.00     0.019 A 
ATOM     27  C   UNL d   1      53.460   0.643  35.288  0.00  0.00     0.002 A 
ATOM     28  C   UNL d   1      52.967   0.657  34.633  0.00  0.00     0.000 A 
ATOM     29  C   UNL d   1      53.300   0.667  33.859  0.00  0.00     0.002 A 
ATOM     30  C   UNL d   1      54.114   0.663  33.737  0.00  0.00     0.019 A 
ENDBRANCH   3  25
TORSDOF 6
ENDMDL
