MODEL 1
REMARK VINA RESULT:      -2.8      0.000      0.000
REMARK  4 active torsions:
REMARK  status: ('A' for Active; 'I' for Inactive)
REMARK    1  A    between atoms: C_5  and  C_1 
REMARK    2  A    between atoms: C_9  and  C_6 
REMARK    3  A    between atoms: C_10  and  C_9 
REMARK    4  A    between atoms: C_11  and  C_10 
ROOT
ATOM      1  C   UNL d   1      32.565  21.779 -21.279  0.00  0.00     0.169 A 
ATOM      2  N   UNL d   1      32.955  21.912 -21.990  0.00  0.00    -0.142 NA
ATOM      3  C   UNL d   1      32.597  20.968 -21.120  0.00  0.00     0.048 A 
ATOM      4  N   UNL d   1      33.231  21.191 -22.278  0.00  0.00    -0.148 NA
ATOM      5  C   UNL d   1      33.008  20.605 -21.737  0.00  0.00     0.105 A 
ENDROOT
BRANCH   5   6
ATOM      6  C   UNL d   1      33.174  19.791 -21.810  0.00  0.00     0.021 C 
BRANCH   6   7
ATOM      7  C   UNL d   1      32.980  19.388 -22.500  0.00  0.00     0.002 C 
BRANCH   7   8
ATOM      8  C   UNL d   1      33.127  18.581 -22.563  0.00  0.00     0.000 C 
ATOM      9  C   UNL d   1      32.832  18.161 -23.210  0.00  0.00     0.000 C 
ENDBRANCH   7   8
ENDBRANCH   6   7
ENDBRANCH   5   6
BRANCH   1  10
ATOM     10  C   UNL d   1      32.205  22.350 -20.807  0.00  0.00     0.231 C 
ATOM     11  O   UNL d   1      31.629  22.844 -21.130  0.00  0.00    -0.643 OA
ATOM     12  O   UNL d   1      32.420  22.429 -20.013  0.00  0.00    -0.643 OA
ENDBRANCH   1  10
TORSDOF 4
ENDMDL
MODEL 2
REMARK VINA RESULT:      -2.5      0.779      1.250
REMARK  4 active torsions:
REMARK  status: ('A' for Active; 'I' for Inactive)
REMARK    1  A    between atoms: C_5  and  C_1 
REMARK    2  A    between atoms: C_9  and  C_6 
REMARK    3  A    between atoms: C_10  and  C_9 
REMARK    4  A    between atoms: C_11  and  C_10 
ROOT
ATOM      1  C   UNL d   1      32.849  20.745 -21.551  0.00  0.00     0.169 A 
ATOM      2  N   UNL d   1      33.081  20.953 -22.311  0.00  0.00    -0.142 NA
ATOM      3  C   UNL d   1      32.862  19.920 -21.498  0.00  0.00     0.048 A 
ATOM      4  N   UNL d   1      33.240  20.264 -22.735  0.00  0.00    -0.148 NA
ATOM      5  C   UNL d   1      33.103  19.623 -22.229  0.00  0.00     0.105 A 
ENDROOT
BRANCH   5   6
ATOM      6  C   UNL d   1      33.196  18.819 -22.433  0.00  0.00     0.021 C 
BRANCH   6   7
ATOM      7  C   UNL d   1      32.714  18.477 -23.004  0.00  0.00     0.002 C 
BRANCH   7   8
ATOM      8  C   UNL d   1      32.856  17.708 -23.257  0.00  0.00     0.000 C 
ATOM      9  C   UNL d   1      32.415  17.395 -23.882  0.00  0.00     0.000 C 
ENDBRANCH   7   8
ENDBRANCH   6   7
ENDBRANCH   5   6
BRANCH   1  10
ATOM     10  C   UNL d   1      32.640  21.264 -20.947  0.00  0.00     0.231 C 
ATOM     11  O   UNL d   1      33.226  21.587 -20.464  0.00  0.00    -0.643 OA
ATOM     12  O   UNL d   1      31.847  21.462 -20.823  0.00  0.00    -0.643 OA
ENDBRANCH   1  10
TORSDOF 4
ENDMDL
MODEL 3
REMARK VINA RESULT:      -2.4      2.549      3.161
REMARK  4 active torsions:
REMARK  status: ('A' for Active; 'I' for Inactive)
REMARK    1  A    between atoms: C_5  and  C_1 
REMARK    2  A    between atoms: C_9  and  C_6 
REMARK    3  A    between atoms: C_10  and  C_9 
REMARK    4  A    between atoms: C_11  and  C_10 
ROOT
ATOM      1  C   UNL d   1      32.261  22.645 -21.209  0.00  0.00     0.169 A 
ATOM      2  N   UNL d   1      31.780  23.302 -21.321  0.00  0.00    -0.142 NA
ATOM      3  C   UNL d   1      32.820  22.634 -21.818  0.00  0.00     0.048 A 
ATOM      4  N   UNL d   1      32.034  23.702 -21.995  0.00  0.00    -0.148 NA
ATOM      5  C   UNL d   1      32.680  23.286 -22.303  0.00  0.00     0.105 A 
ENDROOT
BRANCH   5   6
ATOM      6  C   UNL d   1      33.110  23.497 -22.987  0.00  0.00     0.021 C 
BRANCH   6   7
ATOM      7  C   UNL d   1      32.782  23.388 -23.732  0.00  0.00     0.002 C 
BRANCH   7   8
ATOM      8  C   UNL d   1      33.164  23.683 -24.399  0.00  0.00     0.000 C 
ATOM      9  C   UNL d   1      33.169  23.241 -25.097  0.00  0.00     0.000 C 
ENDBRANCH   7   8
ENDBRANCH   6   7
ENDBRANCH   5   6
BRANCH   1  10
ATOM     10  C   UNL d   1      32.198  22.095 -20.600  0.00  0.00     0.231 C 
ATOM     11  O   UNL d   1      32.636  22.199 -19.908  0.00  0.00    -0.643 OA
ATOM     12  O   UNL d   1      31.700  21.440 -20.679  0.00  0.00    -0.643 OA
ENDBRANCH   1  10
TORSDOF 4
ENDMDL
MODEL 4
REMARK VINA RESULT:      -2.3      4.934      6.077
REMARK  4 active torsions:
REMARK  status: ('A' for Active; 'I' for Inactive)
REMARK    1  A    between atoms: C_5  and  C_1 
REMARK    2  A    between atoms: C_9  and  C_6 
REMARK    3  A    between atoms: C_10  and  C_9 
REMARK    4  A    between atoms: C_11  and  C_10 
ROOT
ATOM      1  C   UNL d   1      29.222  15.991 -23.551  0.00  0.00     0.169 A 
ATOM      2  N   UNL d   1      29.657  15.485 -23.073  0.00  0.00    -0.142 NA
ATOM      3  C   UNL d   1      29.755  16.449 -23.987  0.00  0.00     0.048 A 
ATOM      4  N   UNL d   1      30.459  15.622 -23.205  0.00  0.00    -0.148 NA
ATOM      5  C   UNL d   1      30.518  16.222 -23.773  0.00  0.00     0.105 A 
ENDROOT
BRANCH   5   6
ATOM      6  C   UNL d   1      31.231  16.535 -24.072  0.00  0.00     0.021 C 
BRANCH   6   7
ATOM      7  C   UNL d   1      31.719  16.989 -23.591  0.00  0.00     0.002 C 
BRANCH   7   8
ATOM      8  C   UNL d   1      32.377  17.367 -23.908  0.00  0.00     0.000 C 
ATOM      9  C   UNL d   1      32.846  17.846 -23.425  0.00  0.00     0.000 C 
ENDBRANCH   7   8
ENDBRANCH   6   7
ENDBRANCH   5   6
BRANCH   1  10
ATOM     10  C   UNL d   1      28.400  16.035 -23.592  0.00  0.00     0.231 C 
ATOM     11  O   UNL d   1      28.007  16.665 -23.233  0.00  0.00    -0.643 OA
ATOM     12  O   UNL d   1      27.971  15.453 -23.991  0.00  0.00    -0.643 OA
ENDBRANCH   1  10
TORSDOF 4
ENDMDL
MODEL 5
REMARK VINA RESULT:      -2.1      3.600      4.782
REMARK  4 active torsions:
REMARK  status: ('A' for Active; 'I' for Inactive)
REMARK    1  A    between atoms: C_5  and  C_1 
REMARK    2  A    between atoms: C_9  and  C_6 
REMARK    3  A    between atoms: C_10  and  C_9 
REMARK    4  A    between atoms: C_11  and  C_10 
ROOT
ATOM      1  C   UNL d   1      32.477  17.650 -23.513  0.00  0.00     0.169 A 
ATOM      2  N   UNL d   1      32.861  16.974 -23.249  0.00  0.00    -0.142 NA
ATOM      3  C   UNL d   1      31.730  17.427 -23.789  0.00  0.00     0.048 A 
ATOM      4  N   UNL d   1      32.361  16.328 -23.357  0.00  0.00    -0.148 NA
ATOM      5  C   UNL d   1      31.659  16.611 -23.692  0.00  0.00     0.105 A 
ENDROOT
BRANCH   5   6
ATOM      6  C   UNL d   1      30.997  16.144 -23.895  0.00  0.00     0.021 C 
BRANCH   6   7
ATOM      7  C   UNL d   1      30.429  15.963 -23.330  0.00  0.00     0.002 C 
BRANCH   7   8
ATOM      8  C   UNL d   1      29.767  15.521 -23.537  0.00  0.00     0.000 C 
ATOM      9  C   UNL d   1      29.138  15.453 -23.005  0.00  0.00     0.000 C 
ENDBRANCH   7   8
ENDBRANCH   6   7
ENDBRANCH   5   6
BRANCH   1  10
ATOM     10  C   UNL d   1      32.781  18.416 -23.505  0.00  0.00     0.231 C 
ATOM     11  O   UNL d   1      32.860  18.817 -22.789  0.00  0.00    -0.643 OA
ATOM     12  O   UNL d   1      33.005  18.782 -24.212  0.00  0.00    -0.643 OA
ENDBRANCH   1  10
TORSDOF 4
ENDMDL
MODEL 6
REMARK VINA RESULT:      -1.9      3.547      4.056
REMARK  4 active torsions:
REMARK  status: ('A' for Active; 'I' for Inactive)
REMARK    1  A    between atoms: C_5  and  C_1 
REMARK    2  A    between atoms: C_9  and  C_6 
REMARK    3  A    between atoms: C_10  and  C_9 
REMARK    4  A    between atoms: C_11  and  C_10 
ROOT
ATOM      1  C   UNL d   1      32.870  22.908 -18.076  0.00  0.00     0.169 A 
ATOM      2  N   UNL d   1      33.200  22.277 -18.486  0.00  0.00    -0.142 NA
ATOM      3  C   UNL d   1      32.663  23.488 -18.628  0.00  0.00     0.048 A 
ATOM      4  N   UNL d   1      33.201  22.456 -19.291  0.00  0.00    -0.148 NA
ATOM      5  C   UNL d   1      32.867  23.209 -19.378  0.00  0.00     0.105 A 
ENDROOT
BRANCH   5   6
ATOM      6  C   UNL d   1      32.760  23.610 -20.102  0.00  0.00     0.021 C 
BRANCH   6   7
ATOM      7  C   UNL d   1      32.364  23.245 -20.723  0.00  0.00     0.002 C 
BRANCH   7   8
ATOM      8  C   UNL d   1      32.049  23.696 -21.334  0.00  0.00     0.000 C 
ATOM      9  C   UNL d   1      32.248  23.519 -22.117  0.00  0.00     0.000 C 
ENDBRANCH   7   8
ENDBRANCH   6   7
ENDBRANCH   5   6
BRANCH   1  10
ATOM     10  C   UNL d   1      32.764  22.957 -17.261  0.00  0.00     0.231 C 
ATOM     11  O   UNL d   1      32.180  23.451 -16.954  0.00  0.00    -0.643 OA
ATOM     12  O   UNL d   1      33.241  22.513 -16.752  0.00  0.00    -0.643 OA
ENDBRANCH   1  10
TORSDOF 4
ENDMDL
MODEL 7
REMARK VINA RESULT:      -1.7      5.639      6.234
REMARK  4 active torsions:
REMARK  status: ('A' for Active; 'I' for Inactive)
REMARK    1  A    between atoms: C_5  and  C_1 
REMARK    2  A    between atoms: C_9  and  C_6 
REMARK    3  A    between atoms: C_10  and  C_9 
REMARK    4  A    between atoms: C_11  and  C_10 
ROOT
ATOM      1  C   UNL d   1      31.963  15.911 -23.957  0.00  0.00     0.169 A 
ATOM      2  N   UNL d   1      31.586  15.718 -24.662  0.00  0.00    -0.142 NA
ATOM      3  C   UNL d   1      31.387  15.953 -23.365  0.00  0.00     0.048 A 
ATOM      4  N   UNL d   1      30.778  15.640 -24.516  0.00  0.00    -0.148 NA
ATOM      5  C   UNL d   1      30.656  15.786 -23.710  0.00  0.00     0.105 A 
ENDROOT
BRANCH   5   6
ATOM      6  C   UNL d   1      29.917  15.766 -23.322  0.00  0.00     0.021 C 
BRANCH   6   7
ATOM      7  C   UNL d   1      29.267  16.149 -23.648  0.00  0.00     0.002 C 
BRANCH   7   8
ATOM      8  C   UNL d   1      28.520  16.046 -23.320  0.00  0.00     0.000 C 
ATOM      9  C   UNL d   1      27.967  16.659 -23.363  0.00  0.00     0.000 C 
ENDBRANCH   7   8
ENDBRANCH   6   7
ENDBRANCH   5   6
BRANCH   1  10
ATOM     10  C   UNL d   1      32.770  16.039 -23.856  0.00  0.00     0.231 C 
ATOM     11  O   UNL d   1      33.112  15.926 -23.114  0.00  0.00    -0.643 OA
ATOM     12  O   UNL d   1      33.236  16.279 -24.495  0.00  0.00    -0.643 OA
ENDBRANCH   1  10
TORSDOF 4
ENDMDL
MODEL 8
REMARK VINA RESULT:      -1.2      3.002      4.110
REMARK  4 active torsions:
REMARK  status: ('A' for Active; 'I' for Inactive)
REMARK    1  A    between atoms: C_5  and  C_1 
REMARK    2  A    between atoms: C_9  and  C_6 
REMARK    3  A    between atoms: C_10  and  C_9 
REMARK    4  A    between atoms: C_11  and  C_10 
ROOT
ATOM      1  C   UNL d   1      32.314  18.132 -23.805  0.00  0.00     0.169 A 
ATOM      2  N   UNL d   1      32.518  17.595 -23.217  0.00  0.00    -0.142 NA
ATOM      3  C   UNL d   1      32.558  18.882 -23.558  0.00  0.00     0.048 A 
ATOM      4  N   UNL d   1      32.887  18.003 -22.604  0.00  0.00    -0.148 NA
ATOM      5  C   UNL d   1      32.912  18.803 -22.817  0.00  0.00     0.105 A 
ENDROOT
BRANCH   5   6
ATOM      6  C   UNL d   1      33.239  19.416 -22.356  0.00  0.00     0.021 C 
BRANCH   6   7
ATOM      7  C   UNL d   1      32.750  19.938 -21.951  0.00  0.00     0.002 C 
BRANCH   7   8
ATOM      8  C   UNL d   1      32.935  20.739 -21.919  0.00  0.00     0.000 C 
ATOM      9  C   UNL d   1      33.225  21.064 -21.217  0.00  0.00     0.000 C 
ENDBRANCH   7   8
ENDBRANCH   6   7
ENDBRANCH   5   6
BRANCH   1  10
ATOM     10  C   UNL d   1      31.935  17.955 -24.515  0.00  0.00     0.231 C 
ATOM     11  O   UNL d   1      32.206  17.329 -24.978  0.00  0.00    -0.643 OA
ATOM     12  O   UNL d   1      31.287  18.404 -24.763  0.00  0.00    -0.643 OA
ENDBRANCH   1  10
TORSDOF 4
ENDMDL
MODEL 9
REMARK VINA RESULT:      -1.0      1.598      2.255
REMARK  4 active torsions:
REMARK  status: ('A' for Active; 'I' for Inactive)
REMARK    1  A    between atoms: C_5  and  C_1 
REMARK    2  A    between atoms: C_9  and  C_6 
REMARK    3  A    between atoms: C_10  and  C_9 
REMARK    4  A    between atoms: C_11  and  C_10 
ROOT
ATOM      1  C   UNL d   1      32.799  22.841 -19.316  0.00  0.00     0.169 A 
ATOM      2  N   UNL d   1      32.727  23.255 -20.022  0.00  0.00    -0.142 NA
ATOM      3  C   UNL d   1      32.994  22.059 -19.499  0.00  0.00     0.048 A 
ATOM      4  N   UNL d   1      32.875  22.738 -20.647  0.00  0.00    -0.148 NA
ATOM      5  C   UNL d   1      33.041  21.995 -20.321  0.00  0.00     0.105 A 
ENDROOT
BRANCH   5   6
ATOM      6  C   UNL d   1      33.223  21.307 -20.755  0.00  0.00     0.021 C 
BRANCH   6   7
ATOM      7  C   UNL d   1      32.716  21.042 -21.345  0.00  0.00     0.002 C 
BRANCH   7   8
ATOM      8  C   UNL d   1      33.018  20.663 -22.010  0.00  0.00     0.000 C 
ATOM      9  C   UNL d   1      33.088  19.840 -22.015  0.00  0.00     0.000 C 
ENDBRANCH   7   8
ENDBRANCH   6   7
ENDBRANCH   5   6
BRANCH   1  10
ATOM     10  C   UNL d   1      32.696  23.149 -18.559  0.00  0.00     0.231 C 
ATOM     11  O   UNL d   1      32.056  22.902 -18.101  0.00  0.00    -0.643 OA
ATOM     12  O   UNL d   1      33.231  23.702 -18.258  0.00  0.00    -0.643 OA
ENDBRANCH   1  10
TORSDOF 4
ENDMDL
