MODEL 1
REMARK VINA RESULT:      -5.8      0.000      0.000
REMARK  4 active torsions:
REMARK  status: ('A' for Active; 'I' for Inactive)
REMARK    1  A    between atoms: N_3  and  S_1 
REMARK    2  A    between atoms: C_4  and  S_1 
REMARK    3  A    between atoms: C_2  and  N_3 
REMARK    4  A    between atoms: O_18  and  C_13 
ROOT
ATOM      1  S   UNL d   1      57.765  -0.697  30.288  0.00  0.00     0.285 S 
ATOM      2  O   UNL d   1      57.993  -1.413  30.707  0.00  0.00    -0.198 OA
ATOM      3  O   UNL d   1      57.535   0.013  29.882  0.00  0.00    -0.198 OA
ENDROOT
BRANCH   1   4
ATOM      4  N   UNL d   1      58.164  -0.960  29.611  0.00  0.00    -0.157 NA
BRANCH   4   5
ATOM      5  C   UNL d   1      59.003  -0.842  29.546  0.00  0.00     0.113 A 
ATOM      6  C   UNL d   1      59.463  -1.431  29.200  0.00  0.00     0.100 A 
ATOM      7  C   UNL d   1      60.278  -1.317  29.138  0.00  0.00     0.021 A 
ATOM      8  N   UNL d   1      59.135  -2.123  28.918  0.00  0.00    -0.242 NA
ATOM      9  C   UNL d   1      60.747  -1.897  28.795  0.00  0.00     0.003 A 
ATOM     10  C   UNL d   1      60.615  -0.615  29.423  0.00  0.00     0.026 A 
ATOM     11  C   UNL d   1      60.409  -2.593  28.512  0.00  0.00     0.021 A 
ATOM     12  C   UNL d   1      59.595  -2.707  28.575  0.00  0.00     0.099 A 
ATOM     13  C   UNL d   1      60.145  -0.031  29.768  0.00  0.00     0.096 A 
ATOM     14  C   UNL d   1      59.330  -0.146  29.830  0.00  0.00     0.046 A 
BRANCH  13  15
ATOM     15  O   UNL d   1      60.459   0.681  30.061  0.00  0.00    -0.328 OA
ATOM     16  C   UNL d   1      61.073   0.666  30.623  0.00  0.00     0.181 C 
ENDBRANCH  13  15
ENDBRANCH   4   5
ENDBRANCH   1   4
BRANCH   1  17
ATOM     17  C   UNL d   1      57.352  -0.418  30.979  0.00  0.00     0.105 A 
ATOM     18  C   UNL d   1      56.947  -0.945  31.461  0.00  0.00     0.013 A 
ATOM     19  C   UNL d   1      56.549  -0.669  32.128  0.00  0.00     0.001 A 
ATOM     20  C   UNL d   1      56.147  -1.193  32.607  0.00  0.00     0.000 A 
ATOM     21  C   UNL d   1      56.554   0.138  32.315  0.00  0.00     0.000 A 
ATOM     22  C   UNL d   1      55.750  -0.910  33.273  0.00  0.00     0.000 A 
ATOM     23  C   UNL d   1      55.754  -0.111  33.461  0.00  0.00     0.000 A 
ATOM     24  C   UNL d   1      56.157   0.413  32.982  0.00  0.00     0.000 A 
ATOM     25  C   UNL d   1      56.971   0.681  31.819  0.00  0.00     0.001 A 
ATOM     26  C   UNL d   1      57.368   0.398  31.153  0.00  0.00     0.013 A 
ENDBRANCH   1  17
TORSDOF 4
ENDMDL
MODEL 2
REMARK VINA RESULT:      -4.0      1.312      2.014
REMARK  4 active torsions:
REMARK  status: ('A' for Active; 'I' for Inactive)
REMARK    1  A    between atoms: N_3  and  S_1 
REMARK    2  A    between atoms: C_4  and  S_1 
REMARK    3  A    between atoms: C_2  and  N_3 
REMARK    4  A    between atoms: O_18  and  C_13 
ROOT
ATOM      1  S   UNL d   1      57.917   0.520  31.063  0.00  0.00     0.285 S 
ATOM      2  O   UNL d   1      58.659   0.662  31.475  0.00  0.00    -0.198 OA
ATOM      3  O   UNL d   1      57.180   0.380  30.665  0.00  0.00    -0.198 OA
ENDROOT
BRANCH   1   4
ATOM      4  N   UNL d   1      58.307   0.572  30.333  0.00  0.00    -0.157 NA
BRANCH   4   5
ATOM      5  C   UNL d   1      58.560  -0.138  29.942  0.00  0.00     0.113 A 
ATOM      6  C   UNL d   1      59.219  -0.108  29.448  0.00  0.00     0.100 A 
ATOM      7  C   UNL d   1      59.465  -0.798  29.068  0.00  0.00     0.021 A 
ATOM      8  N   UNL d   1      59.634   0.584  29.326  0.00  0.00    -0.242 NA
ATOM      9  C   UNL d   1      60.120  -0.781  28.574  0.00  0.00     0.003 A 
ATOM     10  C   UNL d   1      59.046  -1.503  29.190  0.00  0.00     0.026 A 
ATOM     11  C   UNL d   1      60.534  -0.079  28.455  0.00  0.00     0.021 A 
ATOM     12  C   UNL d   1      60.289   0.611  28.836  0.00  0.00     0.099 A 
ATOM     13  C   UNL d   1      58.387  -1.522  29.686  0.00  0.00     0.096 A 
ATOM     14  C   UNL d   1      58.141  -0.832  30.066  0.00  0.00     0.046 A 
BRANCH  13  15
ATOM     15  O   UNL d   1      57.950  -2.217  29.824  0.00  0.00    -0.328 OA
ATOM     16  C   UNL d   1      58.273  -2.959  29.629  0.00  0.00     0.181 C 
ENDBRANCH  13  15
ENDBRANCH   4   5
ENDBRANCH   1   4
BRANCH   1  17
ATOM     17  C   UNL d   1      57.507   0.465  31.808  0.00  0.00     0.105 A 
ATOM     18  C   UNL d   1      56.691   0.384  31.827  0.00  0.00     0.013 A 
ATOM     19  C   UNL d   1      56.300   0.331  32.551  0.00  0.00     0.001 A 
ATOM     20  C   UNL d   1      55.488   0.250  32.569  0.00  0.00     0.000 A 
ATOM     21  C   UNL d   1      56.725   0.360  33.260  0.00  0.00     0.000 A 
ATOM     22  C   UNL d   1      55.103   0.198  33.297  0.00  0.00     0.000 A 
ATOM     23  C   UNL d   1      55.523   0.226  34.001  0.00  0.00     0.000 A 
ATOM     24  C   UNL d   1      56.335   0.307  33.983  0.00  0.00     0.000 A 
ATOM     25  C   UNL d   1      57.567   0.444  33.241  0.00  0.00     0.001 A 
ATOM     26  C   UNL d   1      57.952   0.496  32.513  0.00  0.00     0.013 A 
ENDBRANCH   1  17
TORSDOF 4
ENDMDL
