MODEL 1
REMARK VINA RESULT:      -7.8      0.000      0.000
REMARK  5 active torsions:
REMARK  status: ('A' for Active; 'I' for Inactive)
REMARK    1  A    between atoms: C_2  and  S_1 
REMARK    2  A    between atoms: N_3  and  S_1 
REMARK    3  A    between atoms: C_5  and  C_6 
REMARK       I    between atoms: N_10  and  C_5 
REMARK    4  A    between atoms: C_22  and  N_10 
REMARK    5  A    between atoms: C_21  and  C_22 
ROOT
ATOM      1  C   UNL d   1     -49.295  13.015  22.469  0.00  0.00     0.104 A 
ATOM      2  C   UNL d   1     -48.798  12.576  22.959  0.00  0.00     0.018 A 
ATOM      3  C   UNL d   1     -48.493  11.854  22.696  0.00  0.00     0.059 A 
ATOM      4  C   UNL d   1     -49.487  12.734  21.716  0.00  0.00     0.012 A 
ATOM      5  C   UNL d   1     -48.684  11.575  21.946  0.00  0.00     0.005 A 
ATOM      6  C   UNL d   1     -49.186  12.019  21.451  0.00  0.00     0.001 A 
ATOM      7  C   UNL d   1     -49.983  13.168  21.219  0.00  0.00     0.001 C 
ENDROOT
BRANCH   3   8
ATOM      8  C   UNL d   1     -47.993  11.413  23.189  0.00  0.00     0.279 C 
ATOM      9  N   UNL d   1     -47.184  11.564  23.199  0.00  0.00    -0.206 NA
ATOM     10  O   UNL d   1     -48.312  10.816  23.672  0.00  0.00    -0.265 OA
BRANCH   9  11
ATOM     11  C   UNL d   1     -46.689  11.116  23.697  0.00  0.00     0.102 C 
BRANCH  11  12
ATOM     12  C   UNL d   1     -45.873  11.062  23.523  0.00  0.00     0.021 A 
ATOM     13  C   UNL d   1     -45.456  10.363  23.697  0.00  0.00     0.028 A 
ATOM     14  C   UNL d   1     -44.652  10.307  23.527  0.00  0.00     0.119 A 
ATOM     15  O   UNL d   1     -44.103   9.704  23.632  0.00  0.00    -0.300 OA
ATOM     16  C   UNL d   1     -44.262  10.946  23.183  0.00  0.00     0.119 A 
ATOM     17  C   UNL d   1     -43.374   9.970  23.353  0.00  0.00     0.304 A 
ATOM     18  O   UNL d   1     -43.465  10.734  23.075  0.00  0.00    -0.300 OA
ATOM     19  C   UNL d   1     -44.679  11.646  23.008  0.00  0.00     0.026 A 
ATOM     20  C   UNL d   1     -45.482  11.700  23.179  0.00  0.00     0.004 A 
ENDBRANCH  11  12
ENDBRANCH   9  11
ENDBRANCH   3   8
BRANCH   1  21
ATOM     21  S   UNL d   1     -49.609  13.747  22.728  0.00  0.00     0.271 S 
ATOM     22  O   UNL d   1     -49.008  14.145  22.302  0.00  0.00    -0.200 OA
ATOM     23  O   UNL d   1     -50.199  13.345  23.147  0.00  0.00    -0.200 OA
BRANCH  21  24
ATOM     24  N   UNL d   1     -49.919  14.474  22.985  0.00  0.00    -0.229 N 
ATOM     25  C   UNL d   1     -50.710  14.520  23.248  0.00  0.00     0.092 A 
ATOM     26  C   UNL d   1     -51.019  15.241  23.503  0.00  0.00     0.020 A 
ATOM     27  C   UNL d   1     -50.547  15.918  23.498  0.00  0.00     0.003 A 
ATOM     28  C   UNL d   1     -49.762  15.871  23.236  0.00  0.00     0.020 A 
ATOM     29  C   UNL d   1     -49.450  15.153  22.981  0.00  0.00     0.092 A 
ENDBRANCH  21  24
ENDBRANCH   1  21
TORSDOF 5
ENDMDL
MODEL 2
REMARK VINA RESULT:      -6.8      1.125      1.594
REMARK  5 active torsions:
REMARK  status: ('A' for Active; 'I' for Inactive)
REMARK    1  A    between atoms: C_2  and  S_1 
REMARK    2  A    between atoms: N_3  and  S_1 
REMARK    3  A    between atoms: C_5  and  C_6 
REMARK       I    between atoms: N_10  and  C_5 
REMARK    4  A    between atoms: C_22  and  N_10 
REMARK    5  A    between atoms: C_21  and  C_22 
ROOT
ATOM      1  C   UNL d   1     -49.222  13.037  22.804  0.00  0.00     0.104 A 
ATOM      2  C   UNL d   1     -48.458  12.851  23.054  0.00  0.00     0.018 A 
ATOM      3  C   UNL d   1     -48.115  12.132  22.832  0.00  0.00     0.059 A 
ATOM      4  C   UNL d   1     -49.643  12.505  22.333  0.00  0.00     0.012 A 
ATOM      5  C   UNL d   1     -48.536  11.603  22.362  0.00  0.00     0.005 A 
ATOM      6  C   UNL d   1     -49.307  11.791  22.110  0.00  0.00     0.001 A 
ATOM      7  C   UNL d   1     -50.408  12.683  22.078  0.00  0.00     0.001 C 
ENDROOT
BRANCH   3   8
ATOM      8  C   UNL d   1     -47.348  11.945  23.083  0.00  0.00     0.279 C 
ATOM      9  N   UNL d   1     -46.721  12.449  22.907  0.00  0.00    -0.206 NA
ATOM     10  O   UNL d   1     -47.213  11.247  23.513  0.00  0.00    -0.265 OA
BRANCH   9  11
ATOM     11  C   UNL d   1     -45.953  12.254  23.162  0.00  0.00     0.102 C 
BRANCH  11  12
ATOM     12  C   UNL d   1     -45.297  12.469  22.690  0.00  0.00     0.021 A 
ATOM     13  C   UNL d   1     -44.600  12.012  22.714  0.00  0.00     0.028 A 
ATOM     14  C   UNL d   1     -43.953  12.221  22.250  0.00  0.00     0.119 A 
ATOM     15  O   UNL d   1     -43.207  11.887  22.157  0.00  0.00    -0.300 OA
ATOM     16  C   UNL d   1     -43.997  12.882  21.761  0.00  0.00     0.119 A 
ATOM     17  C   UNL d   1     -42.790  12.343  21.610  0.00  0.00     0.304 A 
ATOM     18  O   UNL d   1     -43.271  12.957  21.362  0.00  0.00    -0.300 OA
ATOM     19  C   UNL d   1     -44.693  13.339  21.736  0.00  0.00     0.026 A 
ATOM     20  C   UNL d   1     -45.340  13.129  22.201  0.00  0.00     0.004 A 
ENDBRANCH  11  12
ENDBRANCH   9  11
ENDBRANCH   3   8
BRANCH   1  21
ATOM     21  S   UNL d   1     -49.576  13.762  23.025  0.00  0.00     0.271 S 
ATOM     22  O   UNL d   1     -50.051  13.352  23.577  0.00  0.00    -0.200 OA
ATOM     23  O   UNL d   1     -49.101  14.160  22.476  0.00  0.00    -0.200 OA
BRANCH  21  24
ATOM     24  N   UNL d   1     -49.929  14.482  23.245  0.00  0.00    -0.229 N 
ATOM     25  C   UNL d   1     -49.482  15.187  23.227  0.00  0.00     0.092 A 
ATOM     26  C   UNL d   1     -49.831  15.902  23.445  0.00  0.00     0.020 A 
ATOM     27  C   UNL d   1     -50.622  15.921  23.681  0.00  0.00     0.003 A 
ATOM     28  C   UNL d   1     -51.064  15.221  23.698  0.00  0.00     0.020 A 
ATOM     29  C   UNL d   1     -50.719  14.506  23.481  0.00  0.00     0.092 A 
ENDBRANCH  21  24
ENDBRANCH   1  21
TORSDOF 5
ENDMDL
MODEL 3
REMARK VINA RESULT:      -6.1      8.496     10.103
REMARK  5 active torsions:
REMARK  status: ('A' for Active; 'I' for Inactive)
REMARK    1  A    between atoms: C_2  and  S_1 
REMARK    2  A    between atoms: N_3  and  S_1 
REMARK    3  A    between atoms: C_5  and  C_6 
REMARK       I    between atoms: N_10  and  C_5 
REMARK    4  A    between atoms: C_22  and  N_10 
REMARK    5  A    between atoms: C_21  and  C_22 
ROOT
ATOM      1  C   UNL d   1     -39.964  14.741  17.999  0.00  0.00     0.104 A 
ATOM      2  C   UNL d   1     -40.148  14.651  18.798  0.00  0.00     0.018 A 
ATOM      3  C   UNL d   1     -40.652  15.191  19.168  0.00  0.00     0.059 A 
ATOM      4  C   UNL d   1     -40.284  15.371  17.570  0.00  0.00     0.012 A 
ATOM      5  C   UNL d   1     -40.970  15.818  18.740  0.00  0.00     0.005 A 
ATOM      6  C   UNL d   1     -40.784  15.909  17.933  0.00  0.00     0.001 A 
ATOM      7  C   UNL d   1     -40.105  15.468  16.770  0.00  0.00     0.001 C 
ENDROOT
BRANCH   3   8
ATOM      8  C   UNL d   1     -40.837  15.101  19.971  0.00  0.00     0.279 C 
ATOM      9  N   UNL d   1     -40.251  15.188  20.542  0.00  0.00    -0.206 NA
ATOM     10  O   UNL d   1     -41.616  14.922  20.198  0.00  0.00    -0.265 OA
BRANCH   9  11
ATOM     11  C   UNL d   1     -40.444  15.096  21.347  0.00  0.00     0.102 C 
BRANCH  11  12
ATOM     12  C   UNL d   1     -39.838  15.140  21.922  0.00  0.00     0.021 A 
ATOM     13  C   UNL d   1     -39.503  14.440  22.227  0.00  0.00     0.028 A 
ATOM     14  C   UNL d   1     -38.907  14.481  22.792  0.00  0.00     0.119 A 
ATOM     15  O   UNL d   1     -38.478  13.901  23.188  0.00  0.00    -0.300 OA
ATOM     16  C   UNL d   1     -38.642  15.215  23.057  0.00  0.00     0.119 A 
ATOM     17  C   UNL d   1     -37.948  14.278  23.697  0.00  0.00     0.304 A 
ATOM     18  O   UNL d   1     -38.045  15.087  23.621  0.00  0.00    -0.300 OA
ATOM     19  C   UNL d   1     -38.977  15.914  22.752  0.00  0.00     0.026 A 
ATOM     20  C   UNL d   1     -39.574  15.872  22.186  0.00  0.00     0.004 A 
ENDBRANCH  11  12
ENDBRANCH   9  11
ENDBRANCH   3   8
BRANCH   1  21
ATOM     21  S   UNL d   1     -39.454  14.198  17.616  0.00  0.00     0.271 S 
ATOM     22  O   UNL d   1     -40.052  13.615  17.666  0.00  0.00    -0.200 OA
ATOM     23  O   UNL d   1     -38.868  14.781  17.571  0.00  0.00    -0.200 OA
BRANCH  21  24
ATOM     24  N   UNL d   1     -38.949  13.658  17.237  0.00  0.00    -0.229 N 
ATOM     25  C   UNL d   1     -38.520  13.894  16.561  0.00  0.00     0.092 A 
ATOM     26  C   UNL d   1     -38.018  13.358  16.183  0.00  0.00     0.020 A 
ATOM     27  C   UNL d   1     -37.940  12.590  16.473  0.00  0.00     0.003 A 
ATOM     28  C   UNL d   1     -38.366  12.357  17.145  0.00  0.00     0.020 A 
ATOM     29  C   UNL d   1     -38.868  12.889  17.524  0.00  0.00     0.092 A 
ENDBRANCH  21  24
ENDBRANCH   1  21
TORSDOF 5
ENDMDL
MODEL 4
REMARK VINA RESULT:      -5.9      1.477      2.336
REMARK  5 active torsions:
REMARK  status: ('A' for Active; 'I' for Inactive)
REMARK    1  A    between atoms: C_2  and  S_1 
REMARK    2  A    between atoms: N_3  and  S_1 
REMARK    3  A    between atoms: C_5  and  C_6 
REMARK       I    between atoms: N_10  and  C_5 
REMARK    4  A    between atoms: C_22  and  N_10 
REMARK    5  A    between atoms: C_21  and  C_22 
ROOT
ATOM      1  C   UNL d   1     -48.379  13.992  22.648  0.00  0.00     0.104 A 
ATOM      2  C   UNL d   1     -47.621  13.674  22.716  0.00  0.00     0.018 A 
ATOM      3  C   UNL d   1     -46.960  14.160  22.618  0.00  0.00     0.059 A 
ATOM      4  C   UNL d   1     -48.477  14.796  22.482  0.00  0.00     0.012 A 
ATOM      5  C   UNL d   1     -47.058  14.961  22.452  0.00  0.00     0.005 A 
ATOM      6  C   UNL d   1     -47.823  15.282  22.384  0.00  0.00     0.001 A 
ATOM      7  C   UNL d   1     -49.231  15.122  22.413  0.00  0.00     0.001 C 
ENDROOT
BRANCH   3   8
ATOM      8  C   UNL d   1     -46.198  13.841  22.686  0.00  0.00     0.279 C 
ATOM      9  N   UNL d   1     -46.095  13.076  22.972  0.00  0.00    -0.206 NA
ATOM     10  O   UNL d   1     -45.539  14.295  22.465  0.00  0.00    -0.265 OA
BRANCH   9  11
ATOM     11  C   UNL d   1     -45.327  12.762  23.037  0.00  0.00     0.102 C 
BRANCH  11  12
ATOM     12  C   UNL d   1     -45.229  11.944  23.186  0.00  0.00     0.021 A 
ATOM     13  C   UNL d   1     -44.501  11.576  23.019  0.00  0.00     0.028 A 
ATOM     14  C   UNL d   1     -44.402  10.772  23.164  0.00  0.00     0.119 A 
ATOM     15  O   UNL d   1     -43.764  10.263  23.059  0.00  0.00    -0.300 OA
ATOM     16  C   UNL d   1     -45.026  10.332  23.474  0.00  0.00     0.119 A 
ATOM     17  C   UNL d   1     -43.993   9.510  23.305  0.00  0.00     0.304 A 
ATOM     18  O   UNL d   1     -44.770   9.546  23.562  0.00  0.00    -0.300 OA
ATOM     19  C   UNL d   1     -45.754  10.700  23.641  0.00  0.00     0.026 A 
ATOM     20  C   UNL d   1     -45.852  11.505  23.496  0.00  0.00     0.004 A 
ENDBRANCH  11  12
ENDBRANCH   9  11
ENDBRANCH   3   8
BRANCH   1  21
ATOM     21  S   UNL d   1     -49.054  13.507  22.746  0.00  0.00     0.271 S 
ATOM     22  O   UNL d   1     -48.957  13.230  21.963  0.00  0.00    -0.200 OA
ATOM     23  O   UNL d   1     -49.142  13.787  23.521  0.00  0.00    -0.200 OA
BRANCH  21  24
ATOM     24  N   UNL d   1     -49.724  13.024  22.842  0.00  0.00    -0.229 N 
ATOM     25  C   UNL d   1     -49.893  12.691  23.588  0.00  0.00     0.092 A 
ATOM     26  C   UNL d   1     -50.558  12.212  23.685  0.00  0.00     0.020 A 
ATOM     27  C   UNL d   1     -51.056  12.062  23.044  0.00  0.00     0.003 A 
ATOM     28  C   UNL d   1     -50.887  12.394  22.304  0.00  0.00     0.020 A 
ATOM     29  C   UNL d   1     -50.224  12.872  22.204  0.00  0.00     0.092 A 
ENDBRANCH  21  24
ENDBRANCH   1  21
TORSDOF 5
ENDMDL
MODEL 5
REMARK VINA RESULT:      -5.5      2.851      3.884
REMARK  5 active torsions:
REMARK  status: ('A' for Active; 'I' for Inactive)
REMARK    1  A    between atoms: C_2  and  S_1 
REMARK    2  A    between atoms: N_3  and  S_1 
REMARK    3  A    between atoms: C_5  and  C_6 
REMARK       I    between atoms: N_10  and  C_5 
REMARK    4  A    between atoms: C_22  and  N_10 
REMARK    5  A    between atoms: C_21  and  C_22 
ROOT
ATOM      1  C   UNL d   1     -46.903  13.302  22.539  0.00  0.00     0.104 A 
ATOM      2  C   UNL d   1     -46.215  12.871  22.395  0.00  0.00     0.018 A 
ATOM      3  C   UNL d   1     -45.481  13.251  22.400  0.00  0.00     0.059 A 
ATOM      4  C   UNL d   1     -46.858  14.114  22.688  0.00  0.00     0.012 A 
ATOM      5  C   UNL d   1     -45.437  14.060  22.549  0.00  0.00     0.005 A 
ATOM      6  C   UNL d   1     -46.132  14.496  22.694  0.00  0.00     0.001 A 
ATOM      7  C   UNL d   1     -47.542  14.553  22.832  0.00  0.00     0.001 C 
ENDROOT
BRANCH   3   8
ATOM      8  C   UNL d   1     -44.790  12.818  22.256  0.00  0.00     0.279 C 
ATOM      9  N   UNL d   1     -44.193  13.137  21.787  0.00  0.00    -0.206 NA
ATOM     10  O   UNL d   1     -44.701  12.060  22.585  0.00  0.00    -0.265 OA
BRANCH   9  11
ATOM     11  C   UNL d   1     -43.501  12.695  21.647  0.00  0.00     0.102 C 
BRANCH  11  12
ATOM     12  C   UNL d   1     -42.837  13.071  21.303  0.00  0.00     0.021 A 
ATOM     13  C   UNL d   1     -42.161  13.223  21.765  0.00  0.00     0.028 A 
ATOM     14  C   UNL d   1     -41.506  13.593  21.429  0.00  0.00     0.119 A 
ATOM     15  O   UNL d   1     -40.775  13.813  21.736  0.00  0.00    -0.300 OA
ATOM     16  C   UNL d   1     -41.522  13.812  20.635  0.00  0.00     0.119 A 
ATOM     17  C   UNL d   1     -40.340  14.167  21.131  0.00  0.00     0.304 A 
ATOM     18  O   UNL d   1     -40.795  14.170  20.451  0.00  0.00    -0.300 OA
ATOM     19  C   UNL d   1     -42.198  13.659  20.173  0.00  0.00     0.026 A 
ATOM     20  C   UNL d   1     -42.852  13.289  20.510  0.00  0.00     0.004 A 
ENDBRANCH  11  12
ENDBRANCH   9  11
ENDBRANCH   3   8
BRANCH   1  21
ATOM     21  S   UNL d   1     -47.650  12.925  22.535  0.00  0.00     0.271 S 
ATOM     22  O   UNL d   1     -47.693  13.037  21.707  0.00  0.00    -0.200 OA
ATOM     23  O   UNL d   1     -47.599  12.818  23.354  0.00  0.00    -0.200 OA
BRANCH  21  24
ATOM     24  N   UNL d   1     -48.392  12.550  22.530  0.00  0.00    -0.229 N 
ATOM     25  C   UNL d   1     -48.659  12.147  23.210  0.00  0.00     0.092 A 
ATOM     26  C   UNL d   1     -49.395  11.774  23.206  0.00  0.00     0.020 A 
ATOM     27  C   UNL d   1     -49.868  11.800  22.530  0.00  0.00     0.003 A 
ATOM     28  C   UNL d   1     -49.601  12.201  21.855  0.00  0.00     0.020 A 
ATOM     29  C   UNL d   1     -48.867  12.573  21.856  0.00  0.00     0.092 A 
ENDBRANCH  21  24
ENDBRANCH   1  21
TORSDOF 5
ENDMDL
