MODEL 1
REMARK VINA RESULT:      55.4      0.000      0.000
REMARK  7 active torsions:
REMARK  status: ('A' for Active; 'I' for Inactive)
REMARK    1  A    between atoms: N_6  and  C_1 
REMARK    2  A    between atoms: C_10  and  C_2 
REMARK       I    between atoms: C_8  and  N_6 
REMARK       I    between atoms: C_9  and  N_7 
REMARK    3  A    between atoms: C_12  and  C_8 
REMARK    4  A    between atoms: O_22  and  C_9 
REMARK    5  A    between atoms: O_23  and  C_10 
REMARK    6  A    between atoms: C_24  and  O_22 
REMARK    7  A    between atoms: C_25  and  O_23 
ROOT
ATOM      1  C   UNL d   1     -54.739-101.818 -39.280  0.00  0.00     0.119 A 
ATOM      2  C   UNL d   1     -54.729-101.035 -39.542  0.00  0.00     0.088 A 
ATOM      3  C   UNL d   1     -54.735-101.827 -40.611  0.00  0.00     0.049 A 
ATOM      4  C   UNL d   1     -54.727-101.050 -40.373  0.00  0.00     0.016 A 
ATOM      5  S   UNL d   1     -54.742-102.312 -39.949  0.00  0.00    -0.066 SA
ATOM      6  N   UNL d   1     -54.726-101.405 -41.981  0.00  0.00    -0.251 N 
ATOM      7  C   UNL d   1     -54.725-101.580 -42.788  0.00  0.00     0.378 C 
ATOM      8  C   UNL d   1     -54.734-102.012 -41.431  0.00  0.00     0.091 A 
ATOM      9  C   UNL d   1     -54.718-100.428 -40.927  0.00  0.00     0.020 A 
ATOM     10  C   UNL d   1     -54.718-100.619 -41.731  0.00  0.00     0.085 A 
ATOM     11  O   UNL d   1     -54.733-102.365 -43.038  0.00  0.00    -0.237 OA
ENDROOT
BRANCH   1  12
ATOM     12  N   UNL d   1     -54.744-102.070 -38.486  0.00  0.00    -0.201 NA
ATOM     13  C   UNL d   1     -55.459-102.172 -38.100  0.00  0.00     0.286 C 
ATOM     14  O   UNL d   1     -56.176-102.029 -38.483  0.00  0.00    -0.265 OA
BRANCH  13  15
ATOM     15  C   UNL d   1     -55.464-102.422 -37.314  0.00  0.00     0.087 A 
ATOM     16  S   UNL d   1     -54.814-102.471 -36.805  0.00  0.00    -0.082 SA
ATOM     17  C   UNL d   1     -55.077-102.750 -36.070  0.00  0.00     0.036 A 
ATOM     18  C   UNL d   1     -55.878-102.868 -36.134  0.00  0.00     0.008 A 
ATOM     19  C   UNL d   1     -56.125-102.671 -36.890  0.00  0.00     0.012 A 
ENDBRANCH  13  15
ENDBRANCH   1  12
BRANCH   2  20
ATOM     20  C   UNL d   1     -54.723-100.367 -39.059  0.00  0.00     0.302 C 
ATOM     21  O   UNL d   1     -54.722 -99.623 -39.420  0.00  0.00    -0.259 OA
BRANCH  20  22
ATOM     22  O   UNL d   1     -54.719-100.448 -38.228  0.00  0.00    -0.271 OA
BRANCH  22  23
ATOM     23  C   UNL d   1     -54.772 -99.781 -37.750  0.00  0.00     0.126 C 
ATOM     24  C   UNL d   1     -55.175 -99.815 -37.027  0.00  0.00     0.029 C 
ENDBRANCH  22  23
ENDBRANCH  20  22
ENDBRANCH   2  20
BRANCH   7  25
ATOM     25  O   UNL d   1     -54.716-100.972 -43.342  0.00  0.00    -0.257 OA
BRANCH  25  26
ATOM     26  C   UNL d   1     -54.980-101.101 -44.113  0.00  0.00     0.128 C 
ATOM     27  C   UNL d   1     -55.692-101.494 -44.257  0.00  0.00     0.029 C 
ENDBRANCH  25  26
ENDBRANCH   7  25
TORSDOF 7
ENDMDL
