MODEL 1
REMARK VINA RESULT:      -8.5      0.000      0.000
REMARK  1 active torsions:
REMARK  status: ('A' for Active; 'I' for Inactive)
REMARK    1  A    between atoms: C_8  and  C_4 
ROOT
ATOM      1  N   UNL d   1     -47.806  14.162  22.821  0.00  0.00    -0.211 NA
ATOM      2  C   UNL d   1     -47.128  13.708  22.946  0.00  0.00     0.140 A 
ATOM      3  C   UNL d   1     -47.186  12.919  23.196  0.00  0.00     0.051 A 
ATOM      4  C   UNL d   1     -48.555  13.826  22.947  0.00  0.00     0.183 A 
ATOM      5  C   UNL d   1     -47.947  12.578  23.324  0.00  0.00     0.104 A 
ATOM      6  O   UNL d   1     -48.623  13.038  23.198  0.00  0.00    -0.289 OA
ATOM      7  S   UNL d   1     -46.380  14.044  22.820  0.00  0.00    -0.057 SA
ATOM      8  C   UNL d   1     -46.514  12.458  23.324  0.00  0.00     0.004 A 
ATOM      9  C   UNL d   1     -48.011  11.801  23.571  0.00  0.00     0.025 A 
ATOM     10  C   UNL d   1     -46.579  11.675  23.572  0.00  0.00     0.000 A 
ATOM     11  C   UNL d   1     -47.329  11.339  23.698  0.00  0.00     0.002 A 
ENDROOT
BRANCH   4  12
ATOM     12  C   UNL d   1     -49.243  14.281  22.823  0.00  0.00     0.041 A 
ATOM     13  C   UNL d   1     -49.428  14.897  23.334  0.00  0.00     0.004 A 
ATOM     14  C   UNL d   1     -50.102  15.342  23.210  0.00  0.00     0.000 A 
ATOM     15  C   UNL d   1     -50.597  15.171  22.574  0.00  0.00     0.000 A 
ATOM     16  C   UNL d   1     -50.410  14.557  22.068  0.00  0.00     0.000 A 
ATOM     17  C   UNL d   1     -49.722  14.103  22.192  0.00  0.00     0.004 A 
ENDBRANCH   4  12
TORSDOF 1
ENDMDL
MODEL 2
REMARK VINA RESULT:      -8.3      1.730      3.082
REMARK  1 active torsions:
REMARK  status: ('A' for Active; 'I' for Inactive)
REMARK    1  A    between atoms: C_8  and  C_4 
ROOT
ATOM      1  N   UNL d   1     -48.636  13.567  22.015  0.00  0.00    -0.211 NA
ATOM      2  C   UNL d   1     -49.434  13.354  22.018  0.00  0.00     0.140 A 
ATOM      3  C   UNL d   1     -49.726  12.811  22.573  0.00  0.00     0.051 A 
ATOM      4  C   UNL d   1     -48.120  13.235  22.573  0.00  0.00     0.183 A 
ATOM      5  C   UNL d   1     -49.201  12.474  23.141  0.00  0.00     0.104 A 
ATOM      6  O   UNL d   1     -48.402  12.691  23.133  0.00  0.00    -0.289 OA
ATOM      7  S   UNL d   1     -49.950  13.687  21.460  0.00  0.00    -0.057 SA
ATOM      8  C   UNL d   1     -50.521  12.593  22.584  0.00  0.00     0.004 A 
ATOM      9  C   UNL d   1     -49.482  11.938  23.691  0.00  0.00     0.025 A 
ATOM     10  C   UNL d   1     -50.804  12.053  23.139  0.00  0.00     0.000 A 
ATOM     11  C   UNL d   1     -50.286  11.720  23.698  0.00  0.00     0.002 A 
ENDROOT
BRANCH   4  12
ATOM     12  C   UNL d   1     -47.313  13.447  22.574  0.00  0.00     0.041 A 
ATOM     13  C   UNL d   1     -47.069  14.138  22.946  0.00  0.00     0.004 A 
ATOM     14  C   UNL d   1     -46.278  14.344  22.946  0.00  0.00     0.000 A 
ATOM     15  C   UNL d   1     -45.726  13.859  22.573  0.00  0.00     0.000 A 
ATOM     16  C   UNL d   1     -45.972  13.173  22.204  0.00  0.00     0.000 A 
ATOM     17  C   UNL d   1     -46.779  12.961  22.203  0.00  0.00     0.004 A 
ENDBRANCH   4  12
TORSDOF 1
ENDMDL
MODEL 3
REMARK VINA RESULT:      -8.2      1.232      3.645
REMARK  1 active torsions:
REMARK  status: ('A' for Active; 'I' for Inactive)
REMARK    1  A    between atoms: C_8  and  C_4 
ROOT
ATOM      1  N   UNL d   1     -48.758  13.427  22.161  0.00  0.00    -0.211 NA
ATOM      2  C   UNL d   1     -49.528  13.706  22.059  0.00  0.00     0.140 A 
ATOM      3  C   UNL d   1     -49.808  14.350  22.501  0.00  0.00     0.051 A 
ATOM      4  C   UNL d   1     -48.257  13.793  22.713  0.00  0.00     0.183 A 
ATOM      5  C   UNL d   1     -49.299  14.723  23.062  0.00  0.00     0.104 A 
ATOM      6  O   UNL d   1     -48.528  14.438  23.159  0.00  0.00    -0.289 OA
ATOM      7  S   UNL d   1     -50.029  13.340  21.508  0.00  0.00    -0.057 SA
ATOM      8  C   UNL d   1     -50.575  14.637  22.406  0.00  0.00     0.004 A 
ATOM      9  C   UNL d   1     -49.568  15.358  23.500  0.00  0.00     0.025 A 
ATOM     10  C   UNL d   1     -50.846  15.277  22.849  0.00  0.00     0.000 A 
ATOM     11  C   UNL d   1     -50.345  15.644  23.400  0.00  0.00     0.002 A 
ENDROOT
BRANCH   4  12
ATOM     12  C   UNL d   1     -47.478  13.514  22.820  0.00  0.00     0.041 A 
ATOM     13  C   UNL d   1     -47.343  12.827  23.250  0.00  0.00     0.004 A 
ATOM     14  C   UNL d   1     -46.579  12.555  23.354  0.00  0.00     0.000 A 
ATOM     15  C   UNL d   1     -45.946  12.970  23.027  0.00  0.00     0.000 A 
ATOM     16  C   UNL d   1     -46.085  13.652  22.600  0.00  0.00     0.000 A 
ATOM     17  C   UNL d   1     -46.864  13.931  22.493  0.00  0.00     0.004 A 
ENDBRANCH   4  12
TORSDOF 1
ENDMDL
MODEL 4
REMARK VINA RESULT:      -8.2      1.074      1.514
REMARK  1 active torsions:
REMARK  status: ('A' for Active; 'I' for Inactive)
REMARK    1  A    between atoms: C_8  and  C_4 
ROOT
ATOM      1  N   UNL d   1     -48.924  13.228  23.220  0.00  0.00    -0.211 NA
ATOM      2  C   UNL d   1     -48.241  12.765  23.228  0.00  0.00     0.140 A 
ATOM      3  C   UNL d   1     -47.500  13.099  23.057  0.00  0.00     0.051 A 
ATOM      4  C   UNL d   1     -48.872  14.036  23.040  0.00  0.00     0.183 A 
ATOM      5  C   UNL d   1     -47.447  13.921  22.874  0.00  0.00     0.104 A 
ATOM      6  O   UNL d   1     -48.136  14.379  22.868  0.00  0.00    -0.289 OA
ATOM      7  S   UNL d   1     -48.293  11.957  23.408  0.00  0.00    -0.057 SA
ATOM      8  C   UNL d   1     -46.812  12.645  23.063  0.00  0.00     0.004 A 
ATOM      9  C   UNL d   1     -46.721  14.256  22.705  0.00  0.00     0.025 A 
ATOM     10  C   UNL d   1     -46.081  12.983  22.892  0.00  0.00     0.000 A 
ATOM     11  C   UNL d   1     -46.028  13.793  22.712  0.00  0.00     0.002 A 
ENDROOT
BRANCH   4  12
ATOM     12  C   UNL d   1     -49.560  14.508  23.031  0.00  0.00     0.041 A 
ATOM     13  C   UNL d   1     -49.710  15.029  23.648  0.00  0.00     0.004 A 
ATOM     14  C   UNL d   1     -50.384  15.491  23.638  0.00  0.00     0.000 A 
ATOM     15  C   UNL d   1     -50.913  15.433  23.009  0.00  0.00     0.000 A 
ATOM     16  C   UNL d   1     -50.760  14.914  22.397  0.00  0.00     0.000 A 
ATOM     17  C   UNL d   1     -50.072  14.442  22.406  0.00  0.00     0.004 A 
ENDBRANCH   4  12
TORSDOF 1
ENDMDL
MODEL 5
REMARK VINA RESULT:      -6.3      8.629      9.766
REMARK  1 active torsions:
REMARK  status: ('A' for Active; 'I' for Inactive)
REMARK    1  A    between atoms: C_8  and  C_4 
ROOT
ATOM      1  N   UNL d   1     -40.565  15.272  18.165  0.00  0.00    -0.211 NA
ATOM      2  C   UNL d   1     -40.252  15.121  17.416  0.00  0.00     0.140 A 
ATOM      3  C   UNL d   1     -39.630  14.582  17.316  0.00  0.00     0.051 A 
ATOM      4  C   UNL d   1     -40.253  14.880  18.827  0.00  0.00     0.183 A 
ATOM      5  C   UNL d   1     -39.314  14.183  17.989  0.00  0.00     0.104 A 
ATOM      6  O   UNL d   1     -39.631  14.338  18.737  0.00  0.00    -0.289 OA
ATOM      7  S   UNL d   1     -40.564  15.514  16.754  0.00  0.00    -0.057 SA
ATOM      8  C   UNL d   1     -39.312  14.425  16.572  0.00  0.00     0.004 A 
ATOM      9  C   UNL d   1     -38.700  13.650  17.898  0.00  0.00     0.025 A 
ATOM     10  C   UNL d   1     -38.694  13.887  16.481  0.00  0.00     0.000 A 
ATOM     11  C   UNL d   1     -38.382  13.494  17.143  0.00  0.00     0.002 A 
ENDROOT
BRANCH   4  12
ATOM     12  C   UNL d   1     -40.565  15.029  19.586  0.00  0.00     0.041 A 
ATOM     13  C   UNL d   1     -40.942  14.428  20.002  0.00  0.00     0.004 A 
ATOM     14  C   UNL d   1     -41.247  14.575  20.745  0.00  0.00     0.000 A 
ATOM     15  C   UNL d   1     -41.177  15.326  21.077  0.00  0.00     0.000 A 
ATOM     16  C   UNL d   1     -40.802  15.921  20.661  0.00  0.00     0.000 A 
ATOM     17  C   UNL d   1     -40.490  15.772  19.902  0.00  0.00     0.004 A 
ENDBRANCH   4  12
TORSDOF 1
ENDMDL
MODEL 6
REMARK VINA RESULT:      -6.0      8.833      9.771
REMARK  1 active torsions:
REMARK  status: ('A' for Active; 'I' for Inactive)
REMARK    1  A    between atoms: C_8  and  C_4 
ROOT
ATOM      1  N   UNL d   1     -39.524  14.312  18.935  0.00  0.00    -0.211 NA
ATOM      2  C   UNL d   1     -39.645  14.287  18.119  0.00  0.00     0.140 A 
ATOM      3  C   UNL d   1     -40.162  14.820  17.749  0.00  0.00     0.051 A 
ATOM      4  C   UNL d   1     -39.925  14.877  19.393  0.00  0.00     0.183 A 
ATOM      5  C   UNL d   1     -40.570  15.394  18.215  0.00  0.00     0.104 A 
ATOM      6  O   UNL d   1     -40.445  15.414  19.032  0.00  0.00    -0.289 OA
ATOM      7  S   UNL d   1     -39.244  13.723  17.661  0.00  0.00    -0.057 SA
ATOM      8  C   UNL d   1     -40.289  14.802  16.935  0.00  0.00     0.004 A 
ATOM      9  C   UNL d   1     -41.082  15.922  17.857  0.00  0.00     0.025 A 
ATOM     10  C   UNL d   1     -40.805  15.335  16.575  0.00  0.00     0.000 A 
ATOM     11  C   UNL d   1     -41.206  15.900  17.033  0.00  0.00     0.002 A 
ENDROOT
BRANCH   4  12
ATOM     12  C   UNL d   1     -39.807  14.907  20.218  0.00  0.00     0.041 A 
ATOM     13  C   UNL d   1     -39.252  15.422  20.536  0.00  0.00     0.004 A 
ATOM     14  C   UNL d   1     -39.137  15.450  21.345  0.00  0.00     0.000 A 
ATOM     15  C   UNL d   1     -39.578  14.961  21.840  0.00  0.00     0.000 A 
ATOM     16  C   UNL d   1     -40.130  14.450  21.520  0.00  0.00     0.000 A 
ATOM     17  C   UNL d   1     -40.248  14.421  20.695  0.00  0.00     0.004 A 
ENDBRANCH   4  12
TORSDOF 1
ENDMDL
MODEL 7
REMARK VINA RESULT:      -5.8      8.703      9.444
REMARK  1 active torsions:
REMARK  status: ('A' for Active; 'I' for Inactive)
REMARK    1  A    between atoms: C_8  and  C_4 
ROOT
ATOM      1  N   UNL d   1     -40.564  15.584  19.687  0.00  0.00    -0.211 NA
ATOM      2  C   UNL d   1     -40.499  15.484  20.504  0.00  0.00     0.140 A 
ATOM      3  C   UNL d   1     -39.947  14.953  20.824  0.00  0.00     0.051 A 
ATOM      4  C   UNL d   1     -40.072  15.150  19.179  0.00  0.00     0.183 A 
ATOM      5  C   UNL d   1     -39.447  14.512  20.307  0.00  0.00     0.104 A 
ATOM      6  O   UNL d   1     -39.517  14.617  19.490  0.00  0.00    -0.289 OA
ATOM      7  S   UNL d   1     -40.992  15.918  21.012  0.00  0.00    -0.057 SA
ATOM      8  C   UNL d   1     -39.876  14.846  21.638  0.00  0.00     0.004 A 
ATOM      9  C   UNL d   1     -38.901  13.988  20.616  0.00  0.00     0.025 A 
ATOM     10  C   UNL d   1     -39.325  14.318  21.949  0.00  0.00     0.000 A 
ATOM     11  C   UNL d   1     -38.832  13.883  21.440  0.00  0.00     0.002 A 
ENDROOT
BRANCH   4  12
ATOM     12  C   UNL d   1     -40.133  15.248  18.353  0.00  0.00     0.041 A 
ATOM     13  C   UNL d   1     -39.688  15.825  17.972  0.00  0.00     0.004 A 
ATOM     14  C   UNL d   1     -39.750  15.920  17.163  0.00  0.00     0.000 A 
ATOM     15  C   UNL d   1     -40.258  15.437  16.729  0.00  0.00     0.000 A 
ATOM     16  C   UNL d   1     -40.698  14.865  17.111  0.00  0.00     0.000 A 
ATOM     17  C   UNL d   1     -40.637  14.767  17.937  0.00  0.00     0.004 A 
ENDBRANCH   4  12
TORSDOF 1
ENDMDL
MODEL 8
REMARK VINA RESULT:      -5.7      8.920     10.390
REMARK  1 active torsions:
REMARK  status: ('A' for Active; 'I' for Inactive)
REMARK    1  A    between atoms: C_8  and  C_4 
ROOT
ATOM      1  N   UNL d   1     -39.958  14.880  17.759  0.00  0.00    -0.211 NA
ATOM      2  C   UNL d   1     -40.448  15.399  18.174  0.00  0.00     0.140 A 
ATOM      3  C   UNL d   1     -40.454  15.405  19.004  0.00  0.00     0.051 A 
ATOM      4  C   UNL d   1     -39.467  14.357  18.176  0.00  0.00     0.183 A 
ATOM      5  C   UNL d   1     -39.954  14.873  19.427  0.00  0.00     0.104 A 
ATOM      6  O   UNL d   1     -39.466  14.355  19.006  0.00  0.00    -0.289 OA
ATOM      7  S   UNL d   1     -40.939  15.922  17.757  0.00  0.00    -0.057 SA
ATOM      8  C   UNL d   1     -40.939  15.920  19.427  0.00  0.00     0.004 A 
ATOM      9  C   UNL d   1     -39.956  14.874  20.245  0.00  0.00     0.025 A 
ATOM     10  C   UNL d   1     -40.940  15.920  20.251  0.00  0.00     0.000 A 
ATOM     11  C   UNL d   1     -40.448  15.396  20.668  0.00  0.00     0.002 A 
ENDROOT
BRANCH   4  12
ATOM     12  C   UNL d   1     -38.970  13.830  17.761  0.00  0.00     0.041 A 
ATOM     13  C   UNL d   1     -38.915  13.044  17.997  0.00  0.00     0.004 A 
ATOM     14  C   UNL d   1     -38.428  12.529  17.589  0.00  0.00     0.000 A 
ATOM     15  C   UNL d   1     -37.994  12.798  16.943  0.00  0.00     0.000 A 
ATOM     16  C   UNL d   1     -38.051  13.580  16.712  0.00  0.00     0.000 A 
ATOM     17  C   UNL d   1     -38.547  14.106  17.127  0.00  0.00     0.004 A 
ENDBRANCH   4  12
TORSDOF 1
ENDMDL
