MODEL 1
REMARK VINA RESULT:      87.4      0.000      0.000
REMARK  2 active torsions:
REMARK  status: ('A' for Active; 'I' for Inactive)
REMARK    1  A    between atoms: N_9  and  C_2 
REMARK    2  A    between atoms: C_4  and  N_10 
ROOT
ATOM      1  C   UNL d   1      13.965  14.275  -3.542  0.00  0.00     0.152 A 
ATOM      2  C   UNL d   1      14.319  14.944  -3.214  0.00  0.00     0.174 A 
ATOM      3  C   UNL d   1      13.920  13.576  -3.104  0.00  0.00     0.111 A 
ATOM      4  O   UNL d   1      13.614  14.139  -4.275  0.00  0.00    -0.302 OA
ATOM      5  N   UNL d   1      14.629  14.916  -2.451  0.00  0.00    -0.207 NA
ATOM      6  C   UNL d   1      13.543  13.009  -3.566  0.00  0.00     0.043 A 
ATOM      7  N   UNL d   1      14.230  13.548  -2.341  0.00  0.00    -0.225 NA
ATOM      8  C   UNL d   1      13.352  13.356  -4.292  0.00  0.00     0.102 A 
ATOM      9  C   UNL d   1      14.585  14.218  -2.015  0.00  0.00     0.164 A 
ATOM     10  C   UNL d   1      13.346  12.221  -3.423  0.00  0.00     0.004 A 
ATOM     11  C   UNL d   1      12.966  12.914  -4.872  0.00  0.00     0.025 A 
ATOM     12  C   UNL d   1      14.895  14.190  -1.251  0.00  0.00     0.042 C 
ATOM     13  C   UNL d   1      12.960  11.779  -4.004  0.00  0.00     0.000 A 
ATOM     14  C   UNL d   1      12.770  12.127  -4.729  0.00  0.00     0.002 A 
ENDROOT
BRANCH   2  15
ATOM     15  N   UNL d   1      14.363  15.642  -3.653  0.00  0.00    -0.285 N 
ATOM     16  C   UNL d   1      14.514  16.358  -3.271  0.00  0.00     0.101 A 
ATOM     17  C   UNL d   1      14.558  17.057  -3.709  0.00  0.00     0.117 A 
ATOM     18  N   UNL d   1      14.451  17.038  -4.528  0.00  0.00    -0.135 N 
ATOM     19  C   UNL d   1      14.300  16.322  -4.907  0.00  0.00     0.117 A 
ATOM     20  C   UNL d   1      14.256  15.624  -4.470  0.00  0.00     0.101 A 
BRANCH  18  21
ATOM     21  C   UNL d   1      14.495  17.737  -4.965  0.00  0.00     0.735 A 
ATOM     22  N   UNL d   1      13.871  17.955  -5.458  0.00  0.00    -0.060 NA
ATOM     23  C   UNL d   1      13.914  18.652  -5.895  0.00  0.00     0.101 A 
ATOM     24  C   UNL d   1      13.289  18.870  -6.389  0.00  0.00     0.021 C 
ATOM     25  C   UNL d   1      14.582  19.134  -5.839  0.00  0.00     0.040 A 
ATOM     26  C   UNL d   1      15.206  18.916  -5.346  0.00  0.00     0.101 A 
ATOM     27  N   UNL d   1      15.163  18.217  -4.908  0.00  0.00    -0.060 NA
ATOM     28  C   UNL d   1      15.874  19.397  -5.289  0.00  0.00     0.021 C 
ENDBRANCH  18  21
ENDBRANCH   2  15
TORSDOF 2
ENDMDL
MODEL 2
REMARK VINA RESULT:      89.1      1.404      5.212
REMARK  2 active torsions:
REMARK  status: ('A' for Active; 'I' for Inactive)
REMARK    1  A    between atoms: N_9  and  C_2 
REMARK    2  A    between atoms: C_4  and  N_10 
ROOT
ATOM      1  C   UNL d   1      14.393  17.174  -5.319  0.00  0.00     0.152 A 
ATOM      2  C   UNL d   1      14.847  16.564  -4.999  0.00  0.00     0.174 A 
ATOM      3  C   UNL d   1      14.722  17.924  -5.421  0.00  0.00     0.111 A 
ATOM      4  O   UNL d   1      13.612  17.202  -5.584  0.00  0.00    -0.302 OA
ATOM      5  N   UNL d   1      15.629  16.703  -4.780  0.00  0.00    -0.207 NA
ATOM      6  C   UNL d   1      14.148  18.415  -5.747  0.00  0.00     0.043 A 
ATOM      7  N   UNL d   1      15.505  18.062  -5.202  0.00  0.00    -0.225 NA
ATOM      8  C   UNL d   1      13.460  17.968  -5.849  0.00  0.00     0.102 A 
ATOM      9  C   UNL d   1      15.958  17.451  -4.881  0.00  0.00     0.164 A 
ATOM     10  C   UNL d   1      14.159  19.209  -5.966  0.00  0.00     0.004 A 
ATOM     11  C   UNL d   1      12.784  18.318  -6.170  0.00  0.00     0.025 A 
ATOM     12  C   UNL d   1      16.741  17.589  -4.662  0.00  0.00     0.042 C 
ATOM     13  C   UNL d   1      13.483  19.559  -6.287  0.00  0.00     0.000 A 
ATOM     14  C   UNL d   1      12.795  19.113  -6.388  0.00  0.00     0.002 A 
ENDROOT
BRANCH   2  15
ATOM     15  N   UNL d   1      14.515  15.815  -4.898  0.00  0.00    -0.285 N 
ATOM     16  C   UNL d   1      14.424  15.315  -5.549  0.00  0.00     0.101 A 
ATOM     17  C   UNL d   1      14.093  14.565  -5.449  0.00  0.00     0.117 A 
ATOM     18  N   UNL d   1      13.853  14.317  -4.699  0.00  0.00    -0.135 N 
ATOM     19  C   UNL d   1      13.944  14.817  -4.051  0.00  0.00     0.117 A 
ATOM     20  C   UNL d   1      14.275  15.566  -4.149  0.00  0.00     0.101 A 
BRANCH  18  21
ATOM     21  C   UNL d   1      13.521  13.568  -4.600  0.00  0.00     0.735 A 
ATOM     22  N   UNL d   1      13.311  13.120  -5.260  0.00  0.00    -0.060 NA
ATOM     23  C   UNL d   1      12.980  12.371  -5.163  0.00  0.00     0.101 A 
ATOM     24  C   UNL d   1      12.770  11.923  -5.823  0.00  0.00     0.021 C 
ATOM     25  C   UNL d   1      12.859  12.069  -4.404  0.00  0.00     0.040 A 
ATOM     26  C   UNL d   1      13.069  12.517  -3.744  0.00  0.00     0.101 A 
ATOM     27  N   UNL d   1      13.401  13.267  -3.842  0.00  0.00    -0.060 NA
ATOM     28  C   UNL d   1      12.948  12.216  -2.986  0.00  0.00     0.021 C 
ENDBRANCH  18  21
ENDBRANCH   2  15
TORSDOF 2
ENDMDL
