MODEL 1
REMARK VINA RESULT:      58.3      0.000      0.000
REMARK  9 active torsions:
REMARK  status: ('A' for Active; 'I' for Inactive)
REMARK    1  A    between atoms: N_2  and  S_1 
REMARK    2  A    between atoms: C_5  and  S_1 
REMARK    3  A    between atoms: C_15  and  C_3 
REMARK       I    between atoms: C_4  and  N_11 
REMARK    4  A    between atoms: C_7  and  C_4 
REMARK       I    between atoms: N_22  and  C_7 
REMARK    5  A    between atoms: N_8  and  C_28 
REMARK    6  A    between atoms: N_11  and  C_15 
REMARK    7  A    between atoms: C_30  and  N_22 
REMARK    8  A    between atoms: C_28  and  C_29 
REMARK    9  A    between atoms: C_29  and  C_30 
ROOT
ATOM      1  N   UNL d   1     -58.267 -99.127 -44.264  0.00  0.00    -0.207 N 
ATOM      2  C   UNL d   1     -57.483 -99.225 -44.049  0.00  0.00     0.197 A 
ATOM      3  O   UNL d   1     -57.426 -99.276 -43.229  0.00  0.00    -0.285 OA
ATOM      4  C   UNL d   1     -58.714 -99.115 -43.566  0.00  0.00     0.120 A 
ATOM      5  C   UNL d   1     -58.200 -99.206 -42.920  0.00  0.00     0.144 A 
ENDROOT
BRANCH   2   6
ATOM      6  C   UNL d   1     -56.843 -99.269 -44.568  0.00  0.00     0.146 C 
BRANCH   6   7
ATOM      7  N   UNL d   1     -56.163 -98.826 -44.430  0.00  0.00    -0.199 NA
ATOM      8  C   UNL d   1     -55.444 -99.206 -44.324  0.00  0.00     0.337 C 
ATOM      9  O   UNL d   1     -54.764 -98.763 -44.186  0.00  0.00    -0.260 OA
BRANCH   8  10
ATOM     10  C   UNL d   1     -55.396-100.029 -44.353  0.00  0.00     0.337 C 
ATOM     11  O   UNL d   1     -55.635-100.427 -45.033  0.00  0.00    -0.260 OA
ATOM     12  N   UNL d   1     -55.116-100.448 -43.718  0.00  0.00    -0.202 NA
BRANCH  12  13
ATOM     13  C   UNL d   1     -55.065-101.275 -43.742  0.00  0.00     0.104 C 
BRANCH  13  14
ATOM     14  C   UNL d   1     -55.654-101.743 -43.417  0.00  0.00     0.040 C 
BRANCH  14  15
ATOM     15  C   UNL d   1     -55.472-102.379 -42.945  0.00  0.00     0.083 C 
BRANCH  15  16
ATOM     16  N   UNL d   1     -55.244-102.276 -42.165  0.00  0.00    -0.285 N 
ATOM     17  C   UNL d   1     -55.635-102.766 -41.624  0.00  0.00     0.183 A 
ATOM     18  N   UNL d   1     -55.352-102.602 -40.868  0.00  0.00    -0.222 NA
ATOM     19  C   UNL d   1     -54.782-102.006 -40.937  0.00  0.00     0.120 A 
ATOM     20  C   UNL d   1     -54.716-101.806 -41.736  0.00  0.00     0.102 A 
ENDBRANCH  15  16
ENDBRANCH  14  15
ENDBRANCH  13  14
ENDBRANCH  12  13
ENDBRANCH   8  10
ENDBRANCH   6   7
ENDBRANCH   2   6
BRANCH   1  21
ATOM     21  S   UNL d   1     -58.561 -99.054 -45.026  0.00  0.00     0.273 S 
ATOM     22  O   UNL d   1     -57.806 -99.171 -45.328  0.00  0.00    -0.200 OA
ATOM     23  O   UNL d   1     -59.315 -98.938 -44.724  0.00  0.00    -0.200 OA
BRANCH  21  24
ATOM     24  C   UNL d   1     -58.856 -98.981 -45.789  0.00  0.00     0.104 A 
ATOM     25  C   UNL d   1     -58.335 -98.828 -46.425  0.00  0.00     0.013 A 
ATOM     26  C   UNL d   1     -58.629 -98.755 -47.188  0.00  0.00     0.007 A 
ATOM     27  C   UNL d   1     -59.447 -98.832 -47.329  0.00  0.00     0.035 A 
ATOM     28  C   UNL d   1     -59.959 -98.984 -46.696  0.00  0.00     0.007 A 
ATOM     29 BR   UNL d   1     -59.747 -98.760 -48.094  0.00  0.00    -0.049 Br
ATOM     30  C   UNL d   1     -59.664 -99.057 -45.934  0.00  0.00     0.013 A 
ENDBRANCH  21  24
ENDBRANCH   1  21
TORSDOF 9
ENDMDL
