MODEL 1
REMARK VINA RESULT:      59.4      0.000      0.000
REMARK  8 active torsions:
REMARK  status: ('A' for Active; 'I' for Inactive)
REMARK    1  A    between atoms: C_3  and  N_1 
REMARK    2  A    between atoms: C_8  and  N_2 
REMARK    3  A    between atoms: C_6  and  C_3 
REMARK    4  A    between atoms: C_9  and  C_3 
REMARK       I    between atoms: C_4  and  N_7 
REMARK    5  A    between atoms: C_5  and  C_4 
REMARK       I    between atoms: N_10  and  C_5 
REMARK    6  A    between atoms: N_7  and  C_9 
REMARK    7  A    between atoms: C_22  and  N_10 
REMARK    8  A    between atoms: C_24  and  C_22 
ROOT
ATOM      1  C   UNL d   1      13.568  15.291  -4.383  0.00  0.00     0.106 C 
ENDROOT
BRANCH   1   2
ATOM      2  N   UNL d   1      13.927  15.460  -3.651  0.00  0.00    -0.298 N 
ATOM      3  C   UNL d   1      14.658  15.843  -3.641  0.00  0.00     0.100 A 
ATOM      4  C   UNL d   1      15.024  16.017  -2.921  0.00  0.00     0.100 A 
ATOM      5  N   UNL d   1      14.658  15.807  -2.212  0.00  0.00    -0.299 N 
ATOM      6  C   UNL d   1      13.929  15.425  -2.227  0.00  0.00     0.100 A 
ATOM      7  C   UNL d   1      13.562  15.250  -2.942  0.00  0.00     0.100 A 
BRANCH   5   8
ATOM      8  C   UNL d   1      15.022  15.979  -1.499  0.00  0.00     0.092 A 
ATOM      9  C   UNL d   1      15.353  16.721  -1.369  0.00  0.00     0.156 A 
ATOM     10  F   UNL d   1      15.317  17.295  -1.961  0.00  0.00    -0.203 F 
ATOM     11  C   UNL d   1      15.719  16.897  -0.653  0.00  0.00     0.031 A 
ATOM     12  C   UNL d   1      15.755  16.324  -0.060  0.00  0.00     0.002 A 
ATOM     13  C   UNL d   1      15.422  15.575  -0.190  0.00  0.00     0.002 A 
ATOM     14  C   UNL d   1      15.058  15.406  -0.907  0.00  0.00     0.020 A 
ENDBRANCH   5   8
ENDBRANCH   1   2
BRANCH   1  15
ATOM     15  C   UNL d   1      13.656  15.804  -5.022  0.00  0.00     0.118 A 
ATOM     16  O   UNL d   1      14.162  16.450  -5.159  0.00  0.00    -0.304 OA
ATOM     17  C   UNL d   1      13.999  16.753  -5.900  0.00  0.00     0.123 A 
ATOM     18  C   UNL d   1      13.393  16.304  -6.233  0.00  0.00     0.029 A 
ATOM     19  C   UNL d   1      13.186  15.719  -5.685  0.00  0.00     0.028 A 
ENDBRANCH   1  15
BRANCH   1  20
ATOM     20  C   UNL d   1      13.115  14.596  -4.467  0.00  0.00     0.122 C 
BRANCH  20  21
ATOM     21  N   UNL d   1      13.345  13.905  -4.081  0.00  0.00    -0.201 NA
ATOM     22  C   UNL d   1      13.174  13.162  -4.405  0.00  0.00     0.337 C 
ATOM     23  O   UNL d   1      12.769  13.121  -5.122  0.00  0.00    -0.260 OA
BRANCH  22  24
ATOM     24  C   UNL d   1      13.403  12.482  -4.020  0.00  0.00     0.337 C 
ATOM     25  N   UNL d   1      13.542  12.495  -3.206  0.00  0.00    -0.202 NA
ATOM     26  O   UNL d   1      13.496  11.779  -4.443  0.00  0.00    -0.260 OA
BRANCH  25  27
ATOM     27  C   UNL d   1      13.774  11.806  -2.816  0.00  0.00     0.102 C 
BRANCH  27  28
ATOM     28  C   UNL d   1      13.910  11.817  -2.006  0.00  0.00     0.019 A 
ATOM     29  C   UNL d   1      13.277  11.779  -1.480  0.00  0.00     0.002 A 
ATOM     30  C   UNL d   1      13.409  11.790  -0.672  0.00  0.00     0.000 A 
ATOM     31  C   UNL d   1      14.188  11.839  -0.379  0.00  0.00     0.000 A 
ATOM     32  C   UNL d   1      14.822  11.877  -0.906  0.00  0.00     0.000 A 
ATOM     33  C   UNL d   1      14.682  11.866  -1.719  0.00  0.00     0.002 A 
ENDBRANCH  27  28
ENDBRANCH  25  27
ENDBRANCH  22  24
ENDBRANCH  20  21
ENDBRANCH   1  20
TORSDOF 8
ENDMDL
