MODEL 1
REMARK VINA RESULT:      77.9      0.000      0.000
REMARK  6 active torsions:
REMARK  status: ('A' for Active; 'I' for Inactive)
REMARK    1  A    between atoms: N_3  and  S_1 
REMARK    2  A    between atoms: C_7  and  S_1 
REMARK    3  A    between atoms: C_2  and  N_3 
REMARK    4  A    between atoms: N_8  and  C_5 
REMARK    5  A    between atoms: C_20  and  N_8 
REMARK    6  A    between atoms: C_13  and  C_20 
ROOT
ATOM      1  C   UNL d   1     -55.072-100.782 -43.685  0.00  0.00     0.211 A 
ATOM      2  N   UNL d   1     -54.981-100.491 -42.909  0.00  0.00    -0.222 NA
ATOM      3  C   UNL d   1     -55.073-101.606 -43.817  0.00  0.00     0.200 A 
ATOM      4  N   UNL d   1     -54.985-102.111 -43.183  0.00  0.00    -0.223 NA
ATOM      5  C   UNL d   1     -54.892-101.009 -42.271  0.00  0.00     0.101 A 
ATOM      6  C   UNL d   1     -54.895-101.830 -42.419  0.00  0.00     0.101 A 
ATOM      7  C   UNL d   1     -54.804-102.369 -41.765  0.00  0.00     0.021 A 
ATOM      8  C   UNL d   1     -54.800-100.720 -41.481  0.00  0.00     0.021 A 
ATOM      9  C   UNL d   1     -54.713-102.059 -40.990  0.00  0.00     0.002 A 
ATOM     10  C   UNL d   1     -54.713-101.235 -40.859  0.00  0.00     0.002 A 
ENDROOT
BRANCH   1  11
ATOM     11  N   UNL d   1     -55.157-100.331 -44.302  0.00  0.00    -0.136 NA
BRANCH  11  12
ATOM     12  S   UNL d   1     -55.499 -99.600 -44.307  0.00  0.00     0.287 S 
ATOM     13  O   UNL d   1     -55.674 -98.755 -44.276  0.00  0.00    -0.198 OA
ATOM     14  O   UNL d   1     -54.716 -99.478 -44.168  0.00  0.00    -0.198 OA
BRANCH  12  15
ATOM     15  C   UNL d   1     -56.274 -99.393 -44.421  0.00  0.00     0.105 A 
ATOM     16  C   UNL d   1     -56.501 -99.000 -45.101  0.00  0.00     0.013 A 
ATOM     17  C   UNL d   1     -57.301 -98.774 -45.243  0.00  0.00     0.001 A 
ATOM     18  C   UNL d   1     -57.881 -98.964 -44.659  0.00  0.00     0.000 A 
ATOM     19  C   UNL d   1     -57.664 -99.358 -43.975  0.00  0.00     0.001 A 
ATOM     20  C   UNL d   1     -58.669 -98.768 -44.746  0.00  0.00     0.000 C 
ATOM     21  C   UNL d   1     -56.854 -99.576 -43.850  0.00  0.00     0.013 A 
ENDBRANCH  12  15
ENDBRANCH  11  12
ENDBRANCH   1  11
BRANCH   3  22
ATOM     22  N   UNL d   1     -55.161-101.843 -44.565  0.00  0.00    -0.221 NA
BRANCH  22  23
ATOM     23  C   UNL d   1     -55.744-102.238 -44.919  0.00  0.00     0.125 C 
BRANCH  23  24
ATOM     24  C   UNL d   1     -55.665-102.449 -45.675  0.00  0.00     0.119 A 
ATOM     25  O   UNL d   1     -56.216-102.403 -46.235  0.00  0.00    -0.304 OA
ATOM     26  C   UNL d   1     -55.914-102.665 -46.896  0.00  0.00     0.123 A 
ATOM     27  C   UNL d   1     -55.168-102.880 -46.759  0.00  0.00     0.029 A 
ATOM     28  C   UNL d   1     -55.013-102.746 -46.002  0.00  0.00     0.028 A 
ENDBRANCH  23  24
ENDBRANCH  22  23
ENDBRANCH   3  22
TORSDOF 6
ENDMDL
