MODEL 1
REMARK VINA RESULT:      27.3      0.000      0.000
REMARK  2 active torsions:
REMARK  status: ('A' for Active; 'I' for Inactive)
REMARK    1  A    between atoms: C_8  and  C_6 
REMARK    2  A    between atoms: C_9  and  C_8 
ROOT
ATOM      1  N   UNL d   1     -57.367 -98.833 -43.218  0.00  0.00    -0.207 NA
ATOM      2  N   UNL d   1     -57.331 -98.822 -44.890  0.00  0.00    -0.240 NA
ATOM      3  C   UNL d   1     -56.749 -98.844 -43.761  0.00  0.00     0.297 A 
ATOM      4  C   UNL d   1     -58.178 -98.814 -43.357  0.00  0.00     0.086 A 
ATOM      5  C   UNL d   1     -58.147 -98.805 -44.789  0.00  0.00     0.083 A 
ATOM      6  C   UNL d   1     -56.747 -98.840 -44.315  0.00  0.00     0.144 A 
ATOM      7  C   UNL d   1     -58.577 -98.800 -44.082  0.00  0.00     0.035 A 
ATOM      8  O   UNL d   1     -56.050 -98.862 -43.423  0.00  0.00    -0.264 OA
ATOM      9  C   UNL d   1     -59.399 -98.781 -44.100  0.00  0.00     0.003 A 
ATOM     10  C   UNL d   1     -58.540 -98.791 -45.510  0.00  0.00     0.019 A 
ATOM     11  C   UNL d   1     -58.610 -98.809 -42.647  0.00  0.00     0.019 A 
ATOM     12  C   UNL d   1     -59.438 -98.790 -42.669  0.00  0.00     0.002 A 
ATOM     13  C   UNL d   1     -59.361 -98.772 -45.528  0.00  0.00     0.002 A 
ATOM     14  C   UNL d   1     -59.791 -98.767 -44.822  0.00  0.00     0.000 A 
ATOM     15  C   UNL d   1     -59.827 -98.776 -43.398  0.00  0.00     0.000 A 
ENDROOT
BRANCH   6  16
ATOM     16  C   UNL d   1     -55.923 -98.859 -44.295  0.00  0.00     0.088 C 
BRANCH  16  17
ATOM     17  C   UNL d   1     -55.487 -99.215 -44.912  0.00  0.00     0.299 C 
ATOM     18  O   UNL d   1     -55.390-100.031 -44.915  0.00  0.00    -0.264 OA
ATOM     19  N   UNL d   1     -55.156 -98.755 -45.517  0.00  0.00    -0.102 N 
ENDBRANCH  16  17
ENDBRANCH   6  16
TORSDOF 2
ENDMDL
