MODEL 1
REMARK VINA RESULT:      -5.0      0.000      0.000
REMARK  6 active torsions:
REMARK  status: ('A' for Active; 'I' for Inactive)
REMARK    1  A    between atoms: N_2  and  S_1 
REMARK    2  A    between atoms: C_6  and  S_1 
REMARK    3  A    between atoms: C_3  and  N_10 
REMARK    4  A    between atoms: C_7  and  C_5 
REMARK       I    between atoms: N_10  and  C_7 
REMARK    5  A    between atoms: C_15  and  C_8 
REMARK    6  A    between atoms: O_27  and  C_24 
ROOT
ATOM      1  C   UNL d   1      59.104   0.066  29.572  0.00  0.00     0.299 C 
ATOM      2  N   UNL d   1      58.949   0.171  30.376  0.00  0.00    -0.164 NA
ATOM      3  O   UNL d   1      58.475  -0.009  29.043  0.00  0.00    -0.263 OA
ENDROOT
BRANCH   1   4
ATOM      4  C   UNL d   1      59.873   0.038  29.301  0.00  0.00     0.133 A 
ATOM      5  N   UNL d   1      60.287  -0.650  29.083  0.00  0.00    -0.226 N 
ATOM      6  C   UNL d   1      61.051  -0.417  28.842  0.00  0.00     0.092 A 
ATOM      7  C   UNL d   1      61.099   0.399  28.913  0.00  0.00     0.021 A 
ATOM      8  C   UNL d   1      60.376   0.682  29.195  0.00  0.00     0.025 A 
BRANCH   5   9
ATOM      9  S   UNL d   1      59.996  -1.422  29.101  0.00  0.00     0.277 S 
ATOM     10  O   UNL d   1      60.472  -1.609  29.753  0.00  0.00    -0.199 OA
ATOM     11  O   UNL d   1      59.526  -1.232  28.455  0.00  0.00    -0.199 OA
BRANCH   9  12
ATOM     12  C   UNL d   1      59.683  -2.181  29.087  0.00  0.00     0.133 A 
ATOM     13  S   UNL d   1      59.968  -2.833  29.500  0.00  0.00    -0.074 SA
ATOM     14  C   UNL d   1      59.487  -3.481  29.324  0.00  0.00     0.036 A 
ATOM     15  C   UNL d   1      58.902  -3.224  28.799  0.00  0.00     0.008 A 
ATOM     16  C   UNL d   1      59.023  -2.422  28.652  0.00  0.00     0.020 A 
ENDBRANCH   9  12
ENDBRANCH   5   9
ENDBRANCH   1   4
BRANCH   2  17
ATOM     17  C   UNL d   1      58.172   0.200  30.651  0.00  0.00     0.297 A 
ATOM     18  O   UNL d   1      57.933   0.061  31.427  0.00  0.00    -0.253 OA
ATOM     19  C   UNL d   1      57.111   0.147  31.463  0.00  0.00     0.206 A 
ATOM     20  N   UNL d   1      56.845   0.339  30.707  0.00  0.00    -0.119 NA
ATOM     21  N   UNL d   1      57.505   0.372  30.204  0.00  0.00    -0.101 NA
BRANCH  19  22
ATOM     22  C   UNL d   1      56.651   0.056  32.127  0.00  0.00     0.043 A 
ATOM     23  C   UNL d   1      56.561   0.677  32.664  0.00  0.00     0.006 A 
ATOM     24  C   UNL d   1      56.088   0.574  33.340  0.00  0.00     0.024 A 
ATOM     25  C   UNL d   1      55.711  -0.142  33.475  0.00  0.00     0.094 A 
ATOM     26  C   UNL d   1      55.803  -0.759  32.938  0.00  0.00     0.024 A 
ATOM     27  C   UNL d   1      56.266  -0.666  32.270  0.00  0.00     0.006 A 
BRANCH  25  28
ATOM     28  O   UNL d   1      55.244  -0.244  34.144  0.00  0.00    -0.328 OA
ATOM     29  C   UNL d   1      55.046   0.409  34.616  0.00  0.00     0.181 C 
ENDBRANCH  25  28
ENDBRANCH  19  22
ENDBRANCH   2  17
TORSDOF 6
ENDMDL
