MODEL 1
REMARK VINA RESULT:      65.3      0.000      0.000
REMARK  4 active torsions:
REMARK  status: ('A' for Active; 'I' for Inactive)
REMARK    1  A    between atoms: C_6  and  C_1 
REMARK    2  A    between atoms: C_8  and  N_3 
REMARK    3  A    between atoms: C_7  and  C_4 
REMARK    4  A    between atoms: O_16  and  C_13 
ROOT
ATOM      1  C   UNL d   1     -50.048  26.030  33.857  0.00  0.00     0.103 A 
ATOM      2  N   UNL d   1     -50.980  27.002  34.333  0.00  0.00    -0.165 NA
ATOM      3  N   UNL d   1     -49.588  27.288  34.357  0.00  0.00    -0.228 N 
ATOM      4  C   UNL d   1     -50.823  26.265  34.011  0.00  0.00     0.109 A 
ATOM      5  C   UNL d   1     -49.432  26.550  34.034  0.00  0.00     0.108 A 
ENDROOT
BRANCH   4   6
ATOM      6  C   UNL d   1     -51.442  25.753  33.838  0.00  0.00     0.020 A 
ATOM      7  C   UNL d   1     -52.219  25.969  34.017  0.00  0.00     0.004 A 
ATOM      8  C   UNL d   1     -52.844  25.450  33.841  0.00  0.00     0.024 A 
ATOM      9  C   UNL d   1     -52.688  24.723  33.490  0.00  0.00     0.094 A 
ATOM     10  C   UNL d   1     -51.910  24.507  33.310  0.00  0.00     0.024 A 
ATOM     11  C   UNL d   1     -51.285  25.026  33.486  0.00  0.00     0.004 A 
BRANCH   9  12
ATOM     12  O   UNL d   1     -53.329  24.188  33.308  0.00  0.00    -0.328 OA
ATOM     13  C   UNL d   1     -53.298  23.388  33.581  0.00  0.00     0.181 C 
ENDBRANCH   9  12
ENDBRANCH   4   6
BRANCH   1  14
ATOM     14  C   UNL d   1     -49.891  25.291  33.535  0.00  0.00     0.214 C 
ATOM     15  O   UNL d   1     -50.498  24.744  33.423  0.00  0.00    -0.644 OA
ATOM     16  O   UNL d   1     -49.089  25.081  33.310  0.00  0.00    -0.644 OA
ENDBRANCH   1  14
BRANCH   3  17
ATOM     17  C   UNL d   1     -49.129  27.930  34.596  0.00  0.00     0.083 A 
ATOM     18  C   UNL d   1     -48.791  28.427  34.035  0.00  0.00     0.019 A 
ATOM     19  C   UNL d   1     -48.331  29.070  34.275  0.00  0.00     0.002 A 
ATOM     20  C   UNL d   1     -48.211  29.214  35.076  0.00  0.00     0.000 A 
ATOM     21  C   UNL d   1     -48.549  28.716  35.638  0.00  0.00     0.002 A 
ATOM     22  C   UNL d   1     -49.008  28.074  35.398  0.00  0.00     0.019 A 
ENDBRANCH   3  17
TORSDOF 4
ENDMDL
MODEL 2
REMARK VINA RESULT:      66.2      1.237      1.865
REMARK  4 active torsions:
REMARK  status: ('A' for Active; 'I' for Inactive)
REMARK    1  A    between atoms: C_6  and  C_1 
REMARK    2  A    between atoms: C_8  and  N_3 
REMARK    3  A    between atoms: C_7  and  C_4 
REMARK    4  A    between atoms: O_16  and  C_13 
ROOT
ATOM      1  C   UNL d   1     -50.182  27.563  34.001  0.00  0.00     0.103 A 
ATOM      2  N   UNL d   1     -49.202  26.742  34.639  0.00  0.00    -0.165 NA
ATOM      3  N   UNL d   1     -49.029  28.153  34.607  0.00  0.00    -0.228 N 
ATOM      4  C   UNL d   1     -49.907  26.819  34.227  0.00  0.00     0.109 A 
ATOM      5  C   UNL d   1     -49.734  28.229  34.196  0.00  0.00     0.108 A 
ENDROOT
BRANCH   4   6
ATOM      6  C   UNL d   1     -50.345  26.152  34.037  0.00  0.00     0.020 A 
ATOM      7  C   UNL d   1     -50.039  25.593  33.511  0.00  0.00     0.004 A 
ATOM      8  C   UNL d   1     -50.484  24.917  33.319  0.00  0.00     0.024 A 
ATOM      9  C   UNL d   1     -51.228  24.808  33.654  0.00  0.00     0.094 A 
ATOM     10  C   UNL d   1     -51.534  25.367  34.180  0.00  0.00     0.024 A 
ATOM     11  C   UNL d   1     -51.089  26.043  34.372  0.00  0.00     0.004 A 
BRANCH   9  12
ATOM     12  O   UNL d   1     -51.687  24.114  33.458  0.00  0.00    -0.328 OA
ATOM     13  C   UNL d   1     -52.372  23.921  33.916  0.00  0.00     0.181 C 
ENDBRANCH   9  12
ENDBRANCH   4   6
BRANCH   1  14
ATOM     14  C   UNL d   1     -50.888  27.640  33.588  0.00  0.00     0.214 C 
ATOM     15  O   UNL d   1     -51.145  28.380  33.330  0.00  0.00    -0.644 OA
ATOM     16  O   UNL d   1     -51.367  26.947  33.421  0.00  0.00    -0.644 OA
ENDBRANCH   1  14
BRANCH   3  17
ATOM     17  C   UNL d   1     -48.457  28.676  34.888  0.00  0.00     0.083 A 
ATOM     18  C   UNL d   1     -48.036  28.501  35.573  0.00  0.00     0.019 A 
ATOM     19  C   UNL d   1     -47.463  29.026  35.853  0.00  0.00     0.002 A 
ATOM     20  C   UNL d   1     -47.312  29.725  35.446  0.00  0.00     0.000 A 
ATOM     21  C   UNL d   1     -47.732  29.901  34.761  0.00  0.00     0.002 A 
ATOM     22  C   UNL d   1     -48.304  29.377  34.482  0.00  0.00     0.019 A 
ENDBRANCH   3  17
TORSDOF 4
ENDMDL
MODEL 3
REMARK VINA RESULT:      66.2      2.685      5.753
REMARK  4 active torsions:
REMARK  status: ('A' for Active; 'I' for Inactive)
REMARK    1  A    between atoms: C_6  and  C_1 
REMARK    2  A    between atoms: C_8  and  N_3 
REMARK    3  A    between atoms: C_7  and  C_4 
REMARK    4  A    between atoms: O_16  and  C_13 
ROOT
ATOM      1  C   UNL d   1     -48.482  28.849  34.909  0.00  0.00     0.103 A 
ATOM      2  N   UNL d   1     -49.229  29.376  33.811  0.00  0.00    -0.165 NA
ATOM      3  N   UNL d   1     -49.367  28.007  34.167  0.00  0.00    -0.228 N 
ATOM      4  C   UNL d   1     -48.689  29.480  34.419  0.00  0.00     0.109 A 
ATOM      5  C   UNL d   1     -48.827  28.111  34.775  0.00  0.00     0.108 A 
ENDROOT
BRANCH   4   6
ATOM      6  C   UNL d   1     -48.350  30.216  34.545  0.00  0.00     0.020 A 
ATOM      7  C   UNL d   1     -47.693  30.289  35.043  0.00  0.00     0.004 A 
ATOM      8  C   UNL d   1     -47.351  31.036  35.169  0.00  0.00     0.024 A 
ATOM      9  C   UNL d   1     -47.666  31.700  34.800  0.00  0.00     0.094 A 
ATOM     10  C   UNL d   1     -48.323  31.627  34.303  0.00  0.00     0.024 A 
ATOM     11  C   UNL d   1     -48.665  30.880  34.176  0.00  0.00     0.004 A 
BRANCH   9  12
ATOM     12  O   UNL d   1     -47.316  32.469  34.929  0.00  0.00    -0.328 OA
ATOM     13  C   UNL d   1     -47.246  33.012  34.284  0.00  0.00     0.181 C 
ENDBRANCH   9  12
ENDBRANCH   4   6
BRANCH   1  14
ATOM     14  C   UNL d   1     -47.941  28.953  35.518  0.00  0.00     0.214 C 
ATOM     15  O   UNL d   1     -47.130  28.929  35.368  0.00  0.00    -0.644 OA
ATOM     16  O   UNL d   1     -48.216  29.088  36.320  0.00  0.00    -0.644 OA
ENDBRANCH   1  14
BRANCH   3  17
ATOM     17  C   UNL d   1     -49.808  27.372  33.880  0.00  0.00     0.083 A 
ATOM     18  C   UNL d   1     -49.447  26.644  33.748  0.00  0.00     0.019 A 
ATOM     19  C   UNL d   1     -49.889  26.008  33.461  0.00  0.00     0.002 A 
ATOM     20  C   UNL d   1     -50.692  26.102  33.306  0.00  0.00     0.000 A 
ATOM     21  C   UNL d   1     -51.053  26.830  33.437  0.00  0.00     0.002 A 
ATOM     22  C   UNL d   1     -50.612  27.464  33.724  0.00  0.00     0.019 A 
ENDBRANCH   3  17
TORSDOF 4
ENDMDL
MODEL 4
REMARK VINA RESULT:      66.9      1.975      4.762
REMARK  4 active torsions:
REMARK  status: ('A' for Active; 'I' for Inactive)
REMARK    1  A    between atoms: C_6  and  C_1 
REMARK    2  A    between atoms: C_8  and  N_3 
REMARK    3  A    between atoms: C_7  and  C_4 
REMARK    4  A    between atoms: O_16  and  C_13 
ROOT
ATOM      1  C   UNL d   1     -51.063  25.725  33.441  0.00  0.00     0.103 A 
ATOM      2  N   UNL d   1     -50.788  24.329  33.569  0.00  0.00    -0.165 NA
ATOM      3  N   UNL d   1     -52.130  24.774  33.424  0.00  0.00    -0.228 N 
ATOM      4  C   UNL d   1     -50.527  25.105  33.532  0.00  0.00     0.109 A 
ATOM      5  C   UNL d   1     -51.868  25.550  33.387  0.00  0.00     0.108 A 
ENDROOT
BRANCH   4   6
ATOM      6  C   UNL d   1     -49.725  25.271  33.586  0.00  0.00     0.020 A 
ATOM      7  C   UNL d   1     -49.473  26.010  33.857  0.00  0.00     0.004 A 
ATOM      8  C   UNL d   1     -48.660  26.177  33.911  0.00  0.00     0.024 A 
ATOM      9  C   UNL d   1     -48.109  25.605  33.696  0.00  0.00     0.094 A 
ATOM     10  C   UNL d   1     -48.361  24.865  33.425  0.00  0.00     0.024 A 
ATOM     11  C   UNL d   1     -49.174  24.699  33.371  0.00  0.00     0.004 A 
BRANCH   9  12
ATOM     12  O   UNL d   1     -47.273  25.774  33.751  0.00  0.00    -0.328 OA
ATOM     13  C   UNL d   1     -47.003  26.398  34.254  0.00  0.00     0.181 C 
ENDBRANCH   9  12
ENDBRANCH   4   6
BRANCH   1  14
ATOM     14  C   UNL d   1     -50.801  26.503  33.404  0.00  0.00     0.214 C 
ATOM     15  O   UNL d   1     -49.994  26.674  33.388  0.00  0.00    -0.644 OA
ATOM     16  O   UNL d   1     -51.368  27.148  33.381  0.00  0.00    -0.644 OA
ENDBRANCH   1  14
BRANCH   3  17
ATOM     17  C   UNL d   1     -52.867  24.404  33.391  0.00  0.00     0.083 A 
ATOM     18  C   UNL d   1     -52.916  23.583  33.373  0.00  0.00     0.019 A 
ATOM     19  C   UNL d   1     -53.653  23.213  33.340  0.00  0.00     0.002 A 
ATOM     20  C   UNL d   1     -54.341  23.666  33.325  0.00  0.00     0.000 A 
ATOM     21  C   UNL d   1     -54.292  24.487  33.343  0.00  0.00     0.002 A 
ATOM     22  C   UNL d   1     -53.555  24.856  33.376  0.00  0.00     0.019 A 
ENDBRANCH   3  17
TORSDOF 4
ENDMDL
