MODEL 1
REMARK VINA RESULT:      47.6      0.000      0.000
REMARK  4 active torsions:
REMARK  status: ('A' for Active; 'I' for Inactive)
REMARK    1  A    between atoms: C_2  and  N_1 
REMARK    2  A    between atoms: C_14  and  C_7 
REMARK    3  A    between atoms: O_20  and  C_14 
REMARK    4  A    between atoms: C_23  and  O_20 
ROOT
ATOM      1  C   UNL d   1     -52.491  25.824  33.399  0.00  0.00     0.105 A 
ATOM      2  C   UNL d   1     -52.210  25.051  33.521  0.00  0.00     0.086 A 
ATOM      3  S   UNL d   1     -53.305  25.801  33.312  0.00  0.00    -0.069 SA
ATOM      4  C   UNL d   1     -52.889  24.574  33.504  0.00  0.00     0.013 A 
ATOM      5  C   UNL d   1     -53.550  25.032  33.377  0.00  0.00     0.031 A 
ATOM      6  C   UNL d   1     -52.993  23.764  33.589  0.00  0.00     0.001 A 
ATOM      7  C   UNL d   1     -54.283  24.712  33.335  0.00  0.00     0.006 A 
ATOM      8  C   UNL d   1     -53.745  23.421  33.547  0.00  0.00     0.000 A 
ATOM      9  C   UNL d   1     -54.392  23.897  33.420  0.00  0.00     0.001 A 
ENDROOT
BRANCH   1  10
ATOM     10  N   UNL d   1     -51.938  26.454  33.384  0.00  0.00    -0.236 N 
ATOM     11  C   UNL d   1     -51.131  26.303  33.411  0.00  0.00     0.266 A 
ATOM     12  C   UNL d   1     -50.766  27.025  33.387  0.00  0.00     0.069 A 
ATOM     13  O   UNL d   1     -50.789  25.537  33.454  0.00  0.00    -0.267 OA
ATOM     14  C   UNL d   1     -49.970  27.230  33.398  0.00  0.00     0.165 A 
ATOM     15  C   UNL d   1     -51.347  27.626  33.346  0.00  0.00     0.069 A 
ATOM     16  C   UNL d   1     -49.736  28.021  33.368  0.00  0.00     0.006 A 
ATOM     17  O   UNL d   1     -50.750  27.671  33.359  0.00  0.00    -0.341 OA
ATOM     18  C   UNL d   1     -50.317  28.622  33.327  0.00  0.00     0.006 A 
ATOM     19  C   UNL d   1     -51.115  28.412  33.316  0.00  0.00     0.165 A 
ATOM     20  C   UNL d   1     -52.066  27.268  33.344  0.00  0.00     0.266 A 
ATOM     21  O   UNL d   1     -52.681  27.586  33.315  0.00  0.00    -0.267 OA
ENDBRANCH   1  10
BRANCH   2  22
ATOM     22  C   UNL d   1     -51.427  24.804  33.636  0.00  0.00     0.302 C 
ATOM     23  O   UNL d   1     -50.998  25.126  33.698  0.00  0.00    -0.259 OA
BRANCH  22  24
ATOM     24  O   UNL d   1     -51.264  23.976  33.663  0.00  0.00    -0.271 OA
BRANCH  24  25
ATOM     25  C   UNL d   1     -50.516  23.731  33.839  0.00  0.00     0.126 C 
ATOM     26  C   UNL d   1     -50.146  23.195  33.311  0.00  0.00     0.029 C 
ENDBRANCH  24  25
ENDBRANCH  22  24
ENDBRANCH   2  22
TORSDOF 4
ENDMDL
MODEL 2
REMARK VINA RESULT:      48.3      1.400      3.942
REMARK  4 active torsions:
REMARK  status: ('A' for Active; 'I' for Inactive)
REMARK    1  A    between atoms: C_2  and  N_1 
REMARK    2  A    between atoms: C_14  and  C_7 
REMARK    3  A    between atoms: O_20  and  C_14 
REMARK    4  A    between atoms: C_23  and  O_20 
ROOT
ATOM      1  C   UNL d   1     -51.092  25.491  33.579  0.00  0.00     0.105 A 
ATOM      2  C   UNL d   1     -51.092  26.219  33.980  0.00  0.00     0.086 A 
ATOM      3  S   UNL d   1     -50.335  25.337  33.308  0.00  0.00    -0.069 SA
ATOM      4  C   UNL d   1     -50.307  26.487  33.933  0.00  0.00     0.013 A 
ATOM      5  C   UNL d   1     -49.853  25.949  33.526  0.00  0.00     0.031 A 
ATOM      6  C   UNL d   1     -49.941  27.165  34.215  0.00  0.00     0.001 A 
ATOM      7  C   UNL d   1     -49.070  26.068  33.399  0.00  0.00     0.006 A 
ATOM      8  C   UNL d   1     -49.135  27.300  34.092  0.00  0.00     0.000 A 
ATOM      9  C   UNL d   1     -48.698  26.750  33.682  0.00  0.00     0.001 A 
ENDROOT
BRANCH   1  10
ATOM     10  N   UNL d   1     -51.812  25.064  33.522  0.00  0.00    -0.236 N 
ATOM     11  C   UNL d   1     -51.814  24.244  33.555  0.00  0.00     0.266 A 
ATOM     12  C   UNL d   1     -52.588  24.018  33.484  0.00  0.00     0.069 A 
ATOM     13  O   UNL d   1     -51.129  23.766  33.645  0.00  0.00    -0.267 OA
ATOM     14  C   UNL d   1     -52.937  23.273  33.478  0.00  0.00     0.165 A 
ATOM     15  C   UNL d   1     -53.067  24.700  33.407  0.00  0.00     0.069 A 
ATOM     16  C   UNL d   1     -53.755  23.190  33.396  0.00  0.00     0.006 A 
ATOM     17  O   UNL d   1     -53.223  24.121  33.414  0.00  0.00    -0.341 OA
ATOM     18  C   UNL d   1     -54.233  23.872  33.319  0.00  0.00     0.006 A 
ATOM     19  C   UNL d   1     -53.879  24.617  33.326  0.00  0.00     0.165 A 
ATOM     20  C   UNL d   1     -52.584  25.340  33.431  0.00  0.00     0.266 A 
ATOM     21  O   UNL d   1     -52.780  26.004  33.384  0.00  0.00    -0.267 OA
ENDBRANCH   1  10
BRANCH   2  22
ATOM     22  C   UNL d   1     -51.731  26.601  34.346  0.00  0.00     0.302 C 
ATOM     23  O   UNL d   1     -51.955  27.066  34.190  0.00  0.00    -0.259 OA
BRANCH  22  24
ATOM     24  O   UNL d   1     -52.076  26.244  35.030  0.00  0.00    -0.271 OA
BRANCH  24  25
ATOM     25  C   UNL d   1     -52.165  26.687  35.698  0.00  0.00     0.126 C 
ATOM     26  C   UNL d   1     -52.048  26.307  36.436  0.00  0.00     0.029 C 
ENDBRANCH  24  25
ENDBRANCH  22  24
ENDBRANCH   2  22
TORSDOF 4
ENDMDL
