MODEL 1
REMARK VINA RESULT:      -5.6      0.000      0.000
REMARK  6 active torsions:
REMARK  status: ('A' for Active; 'I' for Inactive)
REMARK    1  A    between atoms: C_2  and  N_1 
REMARK    2  A    between atoms: C_6  and  C_2 
REMARK    3  A    between atoms: O_5  and  C_12 
REMARK    4  A    between atoms: C_11  and  O_5 
REMARK    5  A    between atoms: C_12  and  C_9 
REMARK    6  A    between atoms: C_10  and  C_11 
ROOT
ATOM      1  N   UNL d   1     -42.215-123.271 -49.731  0.00  0.00    -0.302 N 
ATOM      2  C   UNL d   1     -41.588-123.646 -50.118  0.00  0.00     0.080 A 
ATOM      3  C   UNL d   1     -42.510-122.553 -50.021  0.00  0.00     0.080 A 
ATOM      4  C   UNL d   1     -41.257-123.312 -50.787  0.00  0.00     0.021 A 
ATOM      5  C   UNL d   1     -42.179-122.213 -50.695  0.00  0.00     0.021 A 
ATOM      6  C   UNL d   1     -41.546-122.595 -51.084  0.00  0.00     0.028 A 
ENDROOT
BRANCH   6   7
ATOM      7  C   UNL d   1     -41.215-122.255 -51.759  0.00  0.00     0.123 C 
BRANCH   7   8
ATOM      8  O   UNL d   1     -41.576-122.363 -52.499  0.00  0.00    -0.303 OA
BRANCH   8   9
ATOM      9  C   UNL d   1     -41.222-122.077 -53.178  0.00  0.00     0.123 C 
BRANCH   9  10
ATOM     10  C   UNL d   1     -41.563-122.211 -53.914  0.00  0.00     0.025 A 
ATOM     11  C   UNL d   1     -41.289-122.826 -54.383  0.00  0.00     0.002 A 
ATOM     12  C   UNL d   1     -41.631-122.960 -55.119  0.00  0.00     0.000 A 
ATOM     13  C   UNL d   1     -42.247-122.478 -55.386  0.00  0.00     0.000 A 
ATOM     14  C   UNL d   1     -42.517-121.861 -54.907  0.00  0.00     0.000 A 
ATOM     15  C   UNL d   1     -42.175-121.727 -54.170  0.00  0.00     0.002 A 
ENDBRANCH   9  10
ENDBRANCH   8   9
ENDBRANCH   7   8
ENDBRANCH   6   7
BRANCH   1  16
ATOM     16  C   UNL d   1     -42.540-123.612 -49.062  0.00  0.00     0.080 C 
BRANCH  16  17
ATOM     17  C   UNL d   1     -42.203-123.477 -48.322  0.00  0.00     0.018 A 
ATOM     18  C   UNL d   1     -41.468-123.815 -48.132  0.00  0.00     0.002 A 
ATOM     19  C   UNL d   1     -41.130-123.679 -47.387  0.00  0.00     0.000 A 
ATOM     20  C   UNL d   1     -41.524-123.209 -46.835  0.00  0.00     0.000 A 
ATOM     21  C   UNL d   1     -42.255-122.874 -47.024  0.00  0.00     0.000 A 
ATOM     22  C   UNL d   1     -42.597-123.006 -47.766  0.00  0.00     0.002 A 
ENDBRANCH  16  17
ENDBRANCH   1  16
TORSDOF 6
ENDMDL
MODEL 2
REMARK VINA RESULT:      -4.0      1.182      5.644
REMARK  6 active torsions:
REMARK  status: ('A' for Active; 'I' for Inactive)
REMARK    1  A    between atoms: C_2  and  N_1 
REMARK    2  A    between atoms: C_6  and  C_2 
REMARK    3  A    between atoms: O_5  and  C_12 
REMARK    4  A    between atoms: C_11  and  O_5 
REMARK    5  A    between atoms: C_12  and  C_9 
REMARK    6  A    between atoms: C_10  and  C_11 
ROOT
ATOM      1  N   UNL d   1     -41.130-122.423 -53.310  0.00  0.00    -0.302 N 
ATOM      2  C   UNL d   1     -41.132-122.028 -52.583  0.00  0.00     0.080 A 
ATOM      3  C   UNL d   1     -41.127-123.251 -53.330  0.00  0.00     0.080 A 
ATOM      4  C   UNL d   1     -41.133-122.451 -51.884  0.00  0.00     0.021 A 
ATOM      5  C   UNL d   1     -41.128-123.682 -52.626  0.00  0.00     0.021 A 
ATOM      6  C   UNL d   1     -41.131-123.279 -51.895  0.00  0.00     0.028 A 
ENDROOT
BRANCH   6   7
ATOM      7  C   UNL d   1     -41.131-123.710 -51.191  0.00  0.00     0.123 C 
BRANCH   7   8
ATOM      8  O   UNL d   1     -41.545-123.424 -50.529  0.00  0.00    -0.303 OA
BRANCH   8   9
ATOM      9  C   UNL d   1     -41.503-123.817 -49.813  0.00  0.00     0.123 C 
BRANCH   9  10
ATOM     10  C   UNL d   1     -41.865-123.505 -49.145  0.00  0.00     0.025 A 
ATOM     11  C   UNL d   1     -42.661-123.306 -49.171  0.00  0.00     0.002 A 
ATOM     12  C   UNL d   1     -43.023-122.993 -48.502  0.00  0.00     0.000 A 
ATOM     13  C   UNL d   1     -42.589-122.879 -47.807  0.00  0.00     0.000 A 
ATOM     14  C   UNL d   1     -41.788-123.083 -47.791  0.00  0.00     0.000 A 
ATOM     15  C   UNL d   1     -41.426-123.396 -48.460  0.00  0.00     0.002 A 
ENDBRANCH   9  10
ENDBRANCH   8   9
ENDBRANCH   7   8
ENDBRANCH   6   7
BRANCH   1  16
ATOM     16  C   UNL d   1     -41.129-121.993 -54.005  0.00  0.00     0.080 C 
BRANCH  16  17
ATOM     17  C   UNL d   1     -41.745-122.078 -54.547  0.00  0.00     0.018 A 
ATOM     18  C   UNL d   1     -41.713-122.679 -55.121  0.00  0.00     0.002 A 
ATOM     19  C   UNL d   1     -42.332-122.764 -55.665  0.00  0.00     0.000 A 
ATOM     20  C   UNL d   1     -42.979-122.252 -55.637  0.00  0.00     0.000 A 
ATOM     21  C   UNL d   1     -43.010-121.655 -55.067  0.00  0.00     0.000 A 
ATOM     22  C   UNL d   1     -42.395-121.566 -54.521  0.00  0.00     0.002 A 
ENDBRANCH  16  17
ENDBRANCH   1  16
TORSDOF 6
ENDMDL
