MODEL 1
REMARK VINA RESULT:      -3.3      0.000      0.000
REMARK  7 active torsions:
REMARK  status: ('A' for Active; 'I' for Inactive)
REMARK    1  A    between atoms: C_6  and  C_13 
REMARK       I    between atoms: N_12  and  C_6 
REMARK    2  A    between atoms: O_8  and  C_7 
REMARK    3  A    between atoms: C_13  and  O_8 
REMARK    4  A    between atoms: O_14  and  C_10 
REMARK    5  A    between atoms: C_11  and  C_20 
REMARK    6  A    between atoms: C_15  and  N_12 
REMARK    7  A    between atoms: C_20  and  C_15 
ROOT
ATOM      1  C   UNL d   1      33.126  19.723 -22.359  0.00  0.00     0.304 C 
ATOM      2  O   UNL d   1      33.198  19.392 -21.603  0.00  0.00    -0.263 OA
ATOM      3  N   UNL d   1      32.949  19.257 -23.011  0.00  0.00    -0.205 NA
ENDROOT
BRANCH   1   4
ATOM      4  C   UNL d   1      33.235  20.537 -22.456  0.00  0.00     0.185 C 
BRANCH   4   5
ATOM      5  O   UNL d   1      33.140  21.042 -21.814  0.00  0.00    -0.298 OA
BRANCH   5   6
ATOM      6  C   UNL d   1      33.153  21.852 -21.928  0.00  0.00     0.122 A 
ATOM      7  C   UNL d   1      33.128  22.362 -21.280  0.00  0.00     0.117 A 
ATOM      8  O   UNL d   1      33.088  22.212 -20.463  0.00  0.00    -0.330 OA
ATOM      9  C   UNL d   1      33.140  23.180 -21.396  0.00  0.00     0.022 A 
ATOM     10  C   UNL d   1      33.076  22.946 -20.074  0.00  0.00     0.117 A 
ATOM     11  C   UNL d   1      33.069  23.701 -19.776  0.00  0.00     0.035 C 
ATOM     12  C   UNL d   1      33.041  22.448 -19.422  0.00  0.00     0.035 C 
ATOM     13  C   UNL d   1      33.109  23.539 -20.651  0.00  0.00     0.003 A 
ATOM     14  C   UNL d   1      33.179  23.484 -22.159  0.00  0.00     0.002 A 
ATOM     15  C   UNL d   1      33.204  22.981 -22.796  0.00  0.00     0.002 A 
ATOM     16  C   UNL d   1      33.191  22.163 -22.681  0.00  0.00     0.027 A 
ENDBRANCH   5   6
ENDBRANCH   4   5
ENDBRANCH   1   4
BRANCH   3  17
ATOM     17  C   UNL d   1      32.841  18.451 -22.914  0.00  0.00     0.102 C 
BRANCH  17  18
ATOM     18  C   UNL d   1      32.387  18.018 -23.456  0.00  0.00     0.023 C 
BRANCH  18  19
ATOM     19  C   UNL d   1      32.457  17.204 -23.502  0.00  0.00     0.024 A 
ATOM     20  C   UNL d   1      31.825  16.749 -23.776  0.00  0.00     0.094 A 
ATOM     21  C   UNL d   1      31.909  15.927 -23.817  0.00  0.00     0.024 A 
ATOM     22  C   UNL d   1      32.611  15.560 -23.589  0.00  0.00     0.002 A 
ATOM     23  C   UNL d   1      33.240  16.006 -23.317  0.00  0.00     0.000 A 
ATOM     24  C   UNL d   1      33.173  16.824 -23.270  0.00  0.00     0.002 A 
BRANCH  20  25
ATOM     25  O   UNL d   1      31.132  17.109 -24.001  0.00  0.00    -0.328 OA
ATOM     26  C   UNL d   1      30.574  16.687 -24.425  0.00  0.00     0.181 C 
ENDBRANCH  20  25
ENDBRANCH  18  19
ENDBRANCH  17  18
ENDBRANCH   3  17
TORSDOF 7
ENDMDL
