MODEL 1
REMARK VINA RESULT:       9.8      0.000      0.000
REMARK  4 active torsions:
REMARK  status: ('A' for Active; 'I' for Inactive)
REMARK    1  A    between atoms: C_6  and  C_1 
REMARK    2  A    between atoms: C_4  and  C_11 
REMARK    3  A    between atoms: N_8  and  C_6 
REMARK    4  A    between atoms: C_13  and  C_6 
ROOT
ATOM      1  C   UNL d   1      56.757   0.058  33.263  0.00  0.00     0.067 C 
ENDROOT
BRANCH   1   2
ATOM      2  C   UNL d   1      56.976  -0.197  32.497  0.00  0.00     0.057 A 
ATOM      3  C   UNL d   1      56.964  -0.986  32.311  0.00  0.00     0.214 A 
ATOM      4  C   UNL d   1      57.178  -1.255  31.554  0.00  0.00     0.121 A 
ATOM      5  O   UNL d   1      56.725  -1.536  32.908  0.00  0.00    -0.285 OA
ATOM      6  N   UNL d   1      57.166  -2.044  31.367  0.00  0.00    -0.241 NA
ATOM      7  C   UNL d   1      57.408  -0.703  30.985  0.00  0.00     0.032 A 
ATOM      8  C   UNL d   1      57.377  -2.294  30.626  0.00  0.00     0.099 A 
ATOM      9  C   UNL d   1      57.607  -1.743  30.057  0.00  0.00     0.021 A 
ATOM     10  C   UNL d   1      57.624  -0.943  30.232  0.00  0.00     0.004 A 
ATOM     11  C   UNL d   1      57.422   0.115  31.175  0.00  0.00     0.059 A 
ATOM     12  C   UNL d   1      57.206   0.355  31.928  0.00  0.00     0.016 A 
ATOM     13 CL   UNL d   1      57.649   0.682  30.620  0.00  0.00    -0.082 Cl
ENDBRANCH   1   2
BRANCH   1  14
ATOM     14  N   UNL d   1      57.328   0.213  33.844  0.00  0.00    -0.301 N 
ATOM     15  C   UNL d   1      57.130   0.327  34.633  0.00  0.00     0.100 A 
ATOM     16  C   UNL d   1      57.707   0.480  35.196  0.00  0.00     0.100 A 
ATOM     17  N   UNL d   1      58.485   0.520  34.974  0.00  0.00    -0.299 N 
ATOM     18  C   UNL d   1      58.698   0.406  34.176  0.00  0.00     0.100 A 
ATOM     19  C   UNL d   1      59.051   0.675  35.555  0.00  0.00     0.100 C 
ATOM     20  C   UNL d   1      58.133   0.256  33.625  0.00  0.00     0.100 A 
ENDBRANCH   1  14
BRANCH   1  21
ATOM     21  C   UNL d   1      55.951   0.159  33.451  0.00  0.00     0.016 A 
ATOM     22  C   UNL d   1      55.456   0.578  32.941  0.00  0.00     0.001 A 
ATOM     23  C   UNL d   1      54.664   0.682  33.118  0.00  0.00     0.004 A 
ATOM     24  C   UNL d   1      54.348   0.366  33.817  0.00  0.00     0.071 A 
ATOM     25  C   UNL d   1      54.841  -0.050  34.324  0.00  0.00     0.004 A 
ATOM     26  C   UNL d   1      55.636  -0.156  34.149  0.00  0.00     0.001 A 
BRANCH  24  27
ATOM     27  C   UNL d   1      53.565   0.461  34.005  0.00  0.00     0.419 C 
ATOM     28  F   UNL d   1      52.798   0.558  34.259  0.00  0.00    -0.166 F 
ATOM     29  F   UNL d   1      52.940   0.507  33.404  0.00  0.00    -0.166 F 
ATOM     30  F   UNL d   1      53.388   0.512  34.759  0.00  0.00    -0.166 F 
ENDBRANCH  24  27
ENDBRANCH   1  21
TORSDOF 4
ENDMDL
