MODEL 1
REMARK VINA RESULT:      37.7      0.000      0.000
REMARK  3 active torsions:
REMARK  status: ('A' for Active; 'I' for Inactive)
REMARK    1  A    between atoms: C_8  and  C_1 
REMARK       I    between atoms: C_5  and  N_7 
REMARK    2  A    between atoms: C_10  and  C_5 
REMARK    3  A    between atoms: N_7  and  C_15 
ROOT
ATOM      1  C   UNL d   1     -55.374-102.507 -39.832  0.00  0.00     0.024 A 
ATOM      2  C   UNL d   1     -54.774-102.052 -40.146  0.00  0.00     0.004 A 
ATOM      3  C   UNL d   1     -55.919-102.880 -40.323  0.00  0.00     0.004 A 
ATOM      4  C   UNL d   1     -55.255-102.335 -41.463  0.00  0.00     0.085 A 
ATOM      5  C   UNL d   1     -55.862-102.796 -41.142  0.00  0.00     0.019 A 
ATOM      6  C   UNL d   1     -54.711-101.963 -40.964  0.00  0.00     0.019 A 
ENDROOT
BRANCH   1   7
ATOM      7  C   UNL d   1     -55.434-102.593 -39.008  0.00  0.00     0.112 A 
ATOM      8  S   UNL d   1     -56.148-102.643 -38.575  0.00  0.00    -0.047 SA
ATOM      9  C   UNL d   1     -55.950-102.726 -37.771  0.00  0.00     0.130 A 
ATOM     10  N   UNL d   1     -56.415-102.800 -37.092  0.00  0.00    -0.236 NA
ATOM     11  C   UNL d   1     -55.119-102.727 -37.706  0.00  0.00     0.106 A 
ATOM     12  C   UNL d   1     -56.056-102.875 -36.350  0.00  0.00     0.100 A 
ATOM     13  C   UNL d   1     -55.221-102.876 -36.290  0.00  0.00     0.022 A 
ATOM     14  C   UNL d   1     -54.761-102.802 -36.968  0.00  0.00     0.023 A 
ATOM     15  N   UNL d   1     -54.807-102.644 -38.484  0.00  0.00    -0.237 NA
ENDBRANCH   1   7
BRANCH   4  16
ATOM     16  N   UNL d   1     -55.192-102.247 -42.285  0.00  0.00    -0.206 NA
ATOM     17  C   UNL d   1     -54.970-101.519 -42.600  0.00  0.00     0.302 C 
ATOM     18  O   UNL d   1     -54.810-100.878 -42.108  0.00  0.00    -0.263 OA
BRANCH  17  19
ATOM     19  C   UNL d   1     -54.907-101.431 -43.414  0.00  0.00     0.158 A 
ATOM     20  O   UNL d   1     -54.851-102.041 -43.970  0.00  0.00    -0.300 OA
ATOM     21  C   UNL d   1     -54.799-101.695 -44.713  0.00  0.00     0.123 A 
ATOM     22  C   UNL d   1     -54.823-100.871 -44.626  0.00  0.00     0.029 A 
ATOM     23  C   UNL d   1     -54.889-100.705 -43.824  0.00  0.00     0.032 A 
ENDBRANCH  17  19
ENDBRANCH   4  16
TORSDOF 3
ENDMDL
