MODEL 1
REMARK VINA RESULT:      94.1      0.000      0.000
REMARK  7 active torsions:
REMARK  status: ('A' for Active; 'I' for Inactive)
REMARK    1  A    between atoms: N_10  and  C_4 
REMARK    2  A    between atoms: C_16  and  N_5 
REMARK    3  A    between atoms: C_18  and  N_11 
REMARK    4  A    between atoms: C_22  and  C_16 
REMARK    5  A    between atoms: C_21  and  C_18 
REMARK    6  A    between atoms: C_24  and  C_22 
REMARK    7  A    between atoms: C_23  and  C_24 
ROOT
ATOM      1  C   UNL d   1      60.157  49.338  51.470  0.00  0.00     0.191 A 
ATOM      2  C   UNL d   1      59.580  49.328  50.883  0.00  0.00     0.174 A 
ATOM      3  N   UNL d   1      59.783  49.389  52.205  0.00  0.00    -0.042 NA
ATOM      4  C   UNL d   1      58.970  49.409  52.053  0.00  0.00     0.722 A 
ATOM      5  N   UNL d   1      58.837  49.373  51.243  0.00  0.00    -0.132 N 
ATOM      6  N   UNL d   1      60.962  49.300  51.270  0.00  0.00    -0.239 N 
ATOM      7  C   UNL d   1      61.189  49.251  50.457  0.00  0.00     0.358 A 
ATOM      8  N   UNL d   1      60.612  49.241  49.870  0.00  0.00    -0.152 NA
ATOM      9  C   UNL d   1      59.797  49.280  50.085  0.00  0.00     0.303 A 
ATOM     10  O   UNL d   1      62.009  49.212  50.242  0.00  0.00    -0.244 OA
ATOM     11  O   UNL d   1      59.214  49.270  49.492  0.00  0.00    -0.263 OA
ATOM     12  C   UNL d   1      61.540  49.310  51.857  0.00  0.00     0.105 C 
ENDROOT
BRANCH   4  13
ATOM     13  N   UNL d   1      58.380  49.459  52.632  0.00  0.00    -0.136 N 
ATOM     14  C   UNL d   1      57.591  49.312  52.433  0.00  0.00     0.117 A 
ATOM     15  C   UNL d   1      57.004  49.362  53.009  0.00  0.00     0.100 A 
ATOM     16  N   UNL d   1      57.202  49.558  53.783  0.00  0.00    -0.300 N 
ATOM     17  C   UNL d   1      57.991  49.708  53.995  0.00  0.00     0.100 A 
ATOM     18  C   UNL d   1      58.583  49.658  53.413  0.00  0.00     0.117 A 
BRANCH  16  19
ATOM     19  C   UNL d   1      56.980  49.700  54.562  0.00  0.00     0.080 C 
BRANCH  19  20
ATOM     20  C   UNL d   1      56.805  49.073  55.061  0.00  0.00     0.018 A 
ATOM     21  C   UNL d   1      56.309  49.188  55.699  0.00  0.00     0.002 A 
ATOM     22  C   UNL d   1      56.132  48.561  56.202  0.00  0.00     0.000 A 
ATOM     23  C   UNL d   1      56.455  47.818  56.060  0.00  0.00     0.000 A 
ATOM     24  C   UNL d   1      56.956  47.705  55.414  0.00  0.00     0.000 A 
ATOM     25  C   UNL d   1      57.128  48.333  54.918  0.00  0.00     0.002 A 
ENDBRANCH  19  20
ENDBRANCH  16  19
ENDBRANCH   4  13
BRANCH   5  26
ATOM     26  C   UNL d   1      58.126  49.376  50.821  0.00  0.00     0.098 C 
BRANCH  26  27
ATOM     27  C   UNL d   1      57.429  49.621  51.194  0.00  0.00     0.020 C 
BRANCH  27  28
ATOM     28  C   UNL d   1      56.697  49.371  50.901  0.00  0.00     0.002 C 
BRANCH  28  29
ATOM     29  C   UNL d   1      56.668  48.872  50.242  0.00  0.00     0.000 A 
ATOM     30  C   UNL d   1      56.399  49.168  49.528  0.00  0.00     0.000 A 
ATOM     31  C   UNL d   1      56.367  48.674  48.863  0.00  0.00     0.000 A 
ATOM     32  C   UNL d   1      56.610  47.883  48.928  0.00  0.00     0.000 A 
ATOM     33  C   UNL d   1      56.881  47.589  49.652  0.00  0.00     0.000 A 
ATOM     34  C   UNL d   1      56.910  48.087  50.311  0.00  0.00     0.000 A 
ENDBRANCH  28  29
ENDBRANCH  27  28
ENDBRANCH  26  27
ENDBRANCH   5  26
TORSDOF 7
ENDMDL
