MODEL 1
REMARK VINA RESULT:      11.4      0.000      0.000
REMARK  2 active torsions:
REMARK  status: ('A' for Active; 'I' for Inactive)
REMARK    1  A    between atoms: C_6  and  C_1 
REMARK    2  A    between atoms: C_11  and  C_6 
ROOT
ATOM      1  C   UNL d   1      14.285  12.203  -1.334  0.00  0.00     0.059 A 
ATOM      2  C   UNL d   1      13.665  11.973  -0.845  0.00  0.00     0.085 A 
ATOM      3  N   UNL d   1      12.995  11.780  -1.296  0.00  0.00    -0.245 NA
ATOM      4  C   UNL d   1      14.002  12.155  -2.121  0.00  0.00     0.022 A 
ATOM      5  C   UNL d   1      13.212  11.896  -2.103  0.00  0.00     0.082 A 
ATOM      6  C   UNL d   1      13.752  11.955  -0.030  0.00  0.00     0.021 C 
ATOM      7  C   UNL d   1      14.366  12.314  -2.842  0.00  0.00     0.002 A 
ATOM      8  C   UNL d   1      12.786  11.797  -2.806  0.00  0.00     0.019 A 
ATOM      9  C   UNL d   1      13.924  12.210  -3.546  0.00  0.00     0.000 A 
ATOM     10  C   UNL d   1      13.164  11.961  -3.521  0.00  0.00     0.002 A 
ENDROOT
BRANCH   1  11
ATOM     11  C   UNL d   1      15.042  12.435  -1.087  0.00  0.00     0.208 C 
ATOM     12  O   UNL d   1      15.696  11.961  -1.223  0.00  0.00    -0.286 OA
BRANCH  11  13
ATOM     13  C   UNL d   1      15.136  13.145  -0.703  0.00  0.00     0.110 C 
ATOM     14 CL   UNL d   1      15.862  13.339  -0.408  0.00  0.00    -0.078 Cl
ENDBRANCH  11  13
ENDBRANCH   1  11
TORSDOF 2
ENDMDL
MODEL 2
REMARK VINA RESULT:      13.6      8.985     10.029
REMARK  2 active torsions:
REMARK  status: ('A' for Active; 'I' for Inactive)
REMARK    1  A    between atoms: C_6  and  C_1 
REMARK    2  A    between atoms: C_11  and  C_6 
ROOT
ATOM      1  C   UNL d   1      23.594  12.534  -2.337  0.00  0.00     0.059 A 
ATOM      2  C   UNL d   1      23.001  13.087  -2.195  0.00  0.00     0.085 A 
ATOM      3  N   UNL d   1      22.957  13.264  -1.385  0.00  0.00    -0.245 NA
ATOM      4  C   UNL d   1      23.938  12.354  -1.595  0.00  0.00     0.022 A 
ATOM      5  C   UNL d   1      23.551  12.799  -1.009  0.00  0.00     0.082 A 
ATOM      6  C   UNL d   1      22.546  13.387  -2.807  0.00  0.00     0.021 C 
ATOM      7  C   UNL d   1      24.550  11.844  -1.387  0.00  0.00     0.002 A 
ATOM      8  C   UNL d   1      23.777  12.734  -0.215  0.00  0.00     0.019 A 
ATOM      9  C   UNL d   1      24.768  11.787  -0.580  0.00  0.00     0.000 A 
ATOM     10  C   UNL d   1      24.391  12.219  -0.021  0.00  0.00     0.002 A 
ENDROOT
BRANCH   1  11
ATOM     11  C   UNL d   1      23.803  12.221  -3.076  0.00  0.00     0.208 C 
ATOM     12  O   UNL d   1      23.236  11.914  -3.581  0.00  0.00    -0.286 OA
BRANCH  11  13
ATOM     13  C   UNL d   1      24.583  12.219  -3.302  0.00  0.00     0.110 C 
ATOM     14 CL   UNL d   1      24.765  12.138  -4.084  0.00  0.00    -0.078 Cl
ENDBRANCH  11  13
ENDBRANCH   1  11
TORSDOF 2
ENDMDL
