MODEL 1
REMARK VINA RESULT:      -2.7      0.000      0.000
REMARK  0 active torsions:
REMARK  status: ('A' for Active; 'I' for Inactive)
ROOT
ATOM      1  C   UNL d   1      31.962  23.256 -20.844  0.00  0.00     0.286 A 
ATOM      2  N   UNL d   1      32.301  23.702 -20.283  0.00  0.00    -0.170 NA
ATOM      3  C   UNL d   1      32.273  22.497 -20.788  0.00  0.00     0.066 A 
ATOM      4  S   UNL d   1      32.832  23.268 -19.848  0.00  0.00     0.017 SA
ATOM      5  C   UNL d   1      32.828  22.505 -20.154  0.00  0.00     0.052 A 
ATOM      6  O   UNL d   1      31.401  23.497 -21.388  0.00  0.00    -0.265 OA
ATOM      7  C   UNL d   1      32.137  21.808 -21.213  0.00  0.00     0.005 A 
ATOM      8  C   UNL d   1      33.239  21.824 -19.953  0.00  0.00     0.008 A 
ATOM      9  C   UNL d   1      32.550  21.118 -21.014  0.00  0.00     0.000 A 
ATOM     10  C   UNL d   1      33.105  21.126 -20.379  0.00  0.00     0.001 A 
ENDROOT
TORSDOF 0
ENDMDL
MODEL 2
REMARK VINA RESULT:      -2.5      7.224      7.479
REMARK  0 active torsions:
REMARK  status: ('A' for Active; 'I' for Inactive)
ROOT
ATOM      1  C   UNL d   1      29.302  17.472 -24.648  0.00  0.00     0.286 A 
ATOM      2  N   UNL d   1      30.074  17.456 -24.831  0.00  0.00    -0.170 NA
ATOM      3  C   UNL d   1      29.152  16.853 -24.129  0.00  0.00     0.066 A 
ATOM      4  S   UNL d   1      30.450  16.845 -24.451  0.00  0.00     0.017 SA
ATOM      5  C   UNL d   1      29.883  16.454 -24.003  0.00  0.00     0.052 A 
ATOM      6  O   UNL d   1      28.746  18.005 -24.922  0.00  0.00    -0.265 OA
ATOM      7  C   UNL d   1      28.468  16.595 -23.755  0.00  0.00     0.005 A 
ATOM      8  C   UNL d   1      29.920  15.802 -23.506  0.00  0.00     0.008 A 
ATOM      9  C   UNL d   1      28.501  15.938 -23.252  0.00  0.00     0.000 A 
ATOM     10  C   UNL d   1      29.232  15.538 -23.127  0.00  0.00     0.001 A 
ENDROOT
TORSDOF 0
ENDMDL
MODEL 3
REMARK VINA RESULT:      -2.5      7.397      7.594
REMARK  0 active torsions:
REMARK  status: ('A' for Active; 'I' for Inactive)
ROOT
ATOM      1  C   UNL d   1      28.582  16.575 -23.811  0.00  0.00     0.286 A 
ATOM      2  N   UNL d   1      28.670  17.137 -24.364  0.00  0.00    -0.170 NA
ATOM      3  C   UNL d   1      29.322  16.250 -23.660  0.00  0.00     0.066 A 
ATOM      4  S   UNL d   1      29.447  17.203 -24.591  0.00  0.00     0.017 SA
ATOM      5  C   UNL d   1      29.873  16.650 -24.157  0.00  0.00     0.052 A 
ATOM      6  O   UNL d   1      27.884  16.350 -23.450  0.00  0.00    -0.265 OA
ATOM      7  C   UNL d   1      29.575  15.657 -23.152  0.00  0.00     0.005 A 
ATOM      8  C   UNL d   1      30.669  16.451 -24.138  0.00  0.00     0.008 A 
ATOM      9  C   UNL d   1      30.378  15.454 -23.129  0.00  0.00     0.000 A 
ATOM     10  C   UNL d   1      30.929  15.854 -23.626  0.00  0.00     0.001 A 
ENDROOT
TORSDOF 0
ENDMDL
MODEL 4
REMARK VINA RESULT:      -2.4      1.312      1.867
REMARK  0 active torsions:
REMARK  status: ('A' for Active; 'I' for Inactive)
ROOT
ATOM      1  C   UNL d   1      32.363  21.996 -21.071  0.00  0.00     0.286 A 
ATOM      2  N   UNL d   1      31.981  22.534 -21.512  0.00  0.00    -0.170 NA
ATOM      3  C   UNL d   1      32.627  22.369 -20.388  0.00  0.00     0.066 A 
ATOM      4  S   UNL d   1      31.979  23.260 -21.148  0.00  0.00     0.017 SA
ATOM      5  C   UNL d   1      32.382  23.175 -20.437  0.00  0.00     0.052 A 
ATOM      6  O   UNL d   1      32.479  21.208 -21.253  0.00  0.00    -0.265 OA
ATOM      7  C   UNL d   1      33.047  22.103 -19.736  0.00  0.00     0.005 A 
ATOM      8  C   UNL d   1      32.562  23.701 -19.833  0.00  0.00     0.008 A 
ATOM      9  C   UNL d   1      33.231  22.630 -19.124  0.00  0.00     0.000 A 
ATOM     10  C   UNL d   1      32.987  23.435 -19.173  0.00  0.00     0.001 A 
ENDROOT
TORSDOF 0
ENDMDL
MODEL 5
REMARK VINA RESULT:      -2.4      1.708      2.265
REMARK  0 active torsions:
REMARK  status: ('A' for Active; 'I' for Inactive)
ROOT
ATOM      1  C   UNL d   1      32.855  21.341 -21.765  0.00  0.00     0.286 A 
ATOM      2  N   UNL d   1      32.582  20.998 -21.103  0.00  0.00    -0.170 NA
ATOM      3  C   UNL d   1      32.682  22.143 -21.725  0.00  0.00     0.066 A 
ATOM      4  S   UNL d   1      32.230  21.545 -20.617  0.00  0.00     0.017 SA
ATOM      5  C   UNL d   1      32.284  22.273 -20.993  0.00  0.00     0.052 A 
ATOM      6  O   UNL d   1      33.241  20.971 -22.383  0.00  0.00    -0.265 OA
ATOM      7  C   UNL d   1      32.824  22.769 -22.237  0.00  0.00     0.005 A 
ATOM      8  C   UNL d   1      32.034  23.027 -20.785  0.00  0.00     0.008 A 
ATOM      9  C   UNL d   1      32.574  23.531 -22.030  0.00  0.00     0.000 A 
ATOM     10  C   UNL d   1      32.176  23.661 -21.299  0.00  0.00     0.001 A 
ENDROOT
TORSDOF 0
ENDMDL
MODEL 6
REMARK VINA RESULT:      -2.2      7.112      7.425
REMARK  0 active torsions:
REMARK  status: ('A' for Active; 'I' for Inactive)
ROOT
ATOM      1  C   UNL d   1      30.764  16.084 -23.555  0.00  0.00     0.286 A 
ATOM      2  N   UNL d   1      31.410  16.459 -23.822  0.00  0.00    -0.170 NA
ATOM      3  C   UNL d   1      30.105  16.442 -23.891  0.00  0.00     0.066 A 
ATOM      4  S   UNL d   1      31.208  17.060 -24.330  0.00  0.00     0.017 SA
ATOM      5  C   UNL d   1      30.388  17.063 -24.385  0.00  0.00     0.052 A 
ATOM      6  O   UNL d   1      30.745  15.453 -23.036  0.00  0.00    -0.265 OA
ATOM      7  C   UNL d   1      29.300  16.298 -23.825  0.00  0.00     0.005 A 
ATOM      8  C   UNL d   1      29.861  17.532 -24.805  0.00  0.00     0.008 A 
ATOM      9  C   UNL d   1      28.764  16.769 -24.247  0.00  0.00     0.000 A 
ATOM     10  C   UNL d   1      29.047  17.391 -24.741  0.00  0.00     0.001 A 
ENDROOT
TORSDOF 0
ENDMDL
MODEL 7
REMARK VINA RESULT:      -2.2      1.211      1.586
REMARK  0 active torsions:
REMARK  status: ('A' for Active; 'I' for Inactive)
ROOT
ATOM      1  C   UNL d   1      32.830  22.991 -19.339  0.00  0.00     0.286 A 
ATOM      2  N   UNL d   1      32.411  23.646 -19.495  0.00  0.00    -0.170 NA
ATOM      3  C   UNL d   1      32.781  22.496 -19.994  0.00  0.00     0.066 A 
ATOM      4  S   UNL d   1      32.080  23.610 -20.236  0.00  0.00     0.017 SA
ATOM      5  C   UNL d   1      32.304  22.891 -20.565  0.00  0.00     0.052 A 
ATOM      6  O   UNL d   1      33.241  22.826 -18.652  0.00  0.00    -0.265 OA
ATOM      7  C   UNL d   1      33.096  21.756 -20.155  0.00  0.00     0.005 A 
ATOM      8  C   UNL d   1      32.148  22.538 -21.290  0.00  0.00     0.008 A 
ATOM      9  C   UNL d   1      32.940  21.396 -20.885  0.00  0.00     0.000 A 
ATOM     10  C   UNL d   1      32.463  21.791 -21.457  0.00  0.00     0.001 A 
ENDROOT
TORSDOF 0
ENDMDL
MODEL 8
REMARK VINA RESULT:      -2.2      6.112      6.529
REMARK  0 active torsions:
REMARK  status: ('A' for Active; 'I' for Inactive)
ROOT
ATOM      1  C   UNL d   1      30.698  17.029 -24.356  0.00  0.00     0.286 A 
ATOM      2  N   UNL d   1      30.616  16.293 -24.072  0.00  0.00    -0.170 NA
ATOM      3  C   UNL d   1      31.417  17.325 -24.090  0.00  0.00     0.066 A 
ATOM      4  S   UNL d   1      31.258  16.081 -23.621  0.00  0.00     0.017 SA
ATOM      5  C   UNL d   1      31.774  16.721 -23.622  0.00  0.00     0.052 A 
ATOM      6  O   UNL d   1      30.168  17.432 -24.831  0.00  0.00    -0.265 OA
ATOM      7  C   UNL d   1      31.798  18.043 -24.200  0.00  0.00     0.005 A 
ATOM      8  C   UNL d   1      32.505  16.845 -23.271  0.00  0.00     0.008 A 
ATOM      9  C   UNL d   1      32.537  18.173 -23.848  0.00  0.00     0.000 A 
ATOM     10  C   UNL d   1      32.893  17.569 -23.380  0.00  0.00     0.001 A 
ENDROOT
TORSDOF 0
ENDMDL
MODEL 9
REMARK VINA RESULT:      -2.0      5.002      5.669
REMARK  0 active torsions:
REMARK  status: ('A' for Active; 'I' for Inactive)
ROOT
ATOM      1  C   UNL d   1      32.911  18.638 -23.215  0.00  0.00     0.286 A 
ATOM      2  N   UNL d   1      33.227  19.183 -23.698  0.00  0.00    -0.170 NA
ATOM      3  C   UNL d   1      32.473  18.116 -23.673  0.00  0.00     0.066 A 
ATOM      4  S   UNL d   1      33.016  19.045 -24.469  0.00  0.00     0.017 SA
ATOM      5  C   UNL d   1      32.539  18.375 -24.473  0.00  0.00     0.052 A 
ATOM      6  O   UNL d   1      33.000  18.595 -22.403  0.00  0.00    -0.265 OA
ATOM      7  C   UNL d   1      32.028  17.452 -23.487  0.00  0.00     0.005 A 
ATOM      8  C   UNL d   1      32.160  17.965 -25.074  0.00  0.00     0.008 A 
ATOM      9  C   UNL d   1      31.643  17.036 -24.092  0.00  0.00     0.000 A 
ATOM     10  C   UNL d   1      31.710  17.294 -24.891  0.00  0.00     0.001 A 
ENDROOT
TORSDOF 0
ENDMDL
