MODEL 1
REMARK VINA RESULT:      29.2      0.000      0.000
REMARK  5 active torsions:
REMARK  status: ('A' for Active; 'I' for Inactive)
REMARK    1  A    between atoms: C_5  and  C_1 
REMARK    2  A    between atoms: O_8  and  C_2 
REMARK    3  A    between atoms: C_20  and  O_8 
REMARK    4  A    between atoms: C_11  and  O_14 
REMARK    5  A    between atoms: O_14  and  C_13 
ROOT
ATOM      1  C   UNL d   1      44.421 -14.967  44.689  0.00  0.00     0.197 A 
ATOM      2  C   UNL d   1      45.117 -14.523  44.735  0.00  0.00     0.165 A 
ATOM      3  O   UNL d   1      44.464 -15.761  44.543  0.00  0.00    -0.301 OA
ATOM      4  C   UNL d   1      45.851 -14.883  44.635  0.00  0.00     0.222 A 
ATOM      5  C   UNL d   1      45.192 -16.129  44.441  0.00  0.00     0.105 A 
ATOM      6  C   UNL d   1      45.888 -15.684  44.488  0.00  0.00     0.064 A 
ATOM      7  C   UNL d   1      45.236 -16.938  44.293  0.00  0.00     0.050 A 
ATOM      8  C   UNL d   1      46.623 -16.055  44.385  0.00  0.00     0.007 A 
ATOM      9  O   UNL d   1      46.540 -14.442  44.681  0.00  0.00    -0.284 OA
ATOM     10  C   UNL d   1      45.951 -17.298  44.193  0.00  0.00     0.105 A 
ATOM     11  C   UNL d   1      46.647 -16.857  44.239  0.00  0.00     0.025 A 
ENDROOT
BRANCH   2  12
ATOM     12  O   UNL d   1      45.096 -13.702  44.885  0.00  0.00    -0.302 OA
BRANCH  12  13
ATOM     13  C   UNL d   1      45.252 -13.161  44.285  0.00  0.00     0.100 A 
ATOM     14  C   UNL d   1      45.889 -12.648  44.343  0.00  0.00     0.025 A 
ATOM     15  C   UNL d   1      46.044 -12.106  43.740  0.00  0.00     0.002 A 
ATOM     16  C   UNL d   1      45.554 -12.080  43.074  0.00  0.00     0.000 A 
ATOM     17  C   UNL d   1      44.906 -12.598  43.009  0.00  0.00     0.002 A 
ATOM     18  C   UNL d   1      44.754 -13.139  43.616  0.00  0.00     0.025 A 
ENDBRANCH  12  13
ENDBRANCH   2  12
BRANCH   1  19
ATOM     19  C   UNL d   1      43.694 -14.615  44.788  0.00  0.00     0.442 C 
ATOM     20  F   UNL d   1      42.937 -14.333  44.901  0.00  0.00    -0.164 F 
ATOM     21  F   UNL d   1      43.574 -13.743  44.709  0.00  0.00    -0.164 F 
ATOM     22  F   UNL d   1      43.119 -15.095  44.955  0.00  0.00    -0.164 F 
ENDBRANCH   1  19
BRANCH  10  23
ATOM     23  O   UNL d   1      45.985 -18.141  44.038  0.00  0.00    -0.273 OA
BRANCH  23  24
ATOM     24  C   UNL d   1      46.177 -18.406  43.280  0.00  0.00     0.300 C 
ATOM     25  O   UNL d   1      46.350 -17.850  42.666  0.00  0.00    -0.259 OA
ATOM     26  C   UNL d   1      46.200 -19.206  43.126  0.00  0.00     0.074 C 
ENDBRANCH  23  24
ENDBRANCH  10  23
TORSDOF 5
ENDMDL
