MODEL 1
REMARK VINA RESULT:      -2.3      0.000      0.000
REMARK  7 active torsions:
REMARK  status: ('A' for Active; 'I' for Inactive)
REMARK    1  A    between atoms: C_2  and  S_1 
REMARK    2  A    between atoms: N_3  and  S_1 
REMARK    3  A    between atoms: C_5  and  C_7 
REMARK       I    between atoms: N_9  and  C_5 
REMARK    4  A    between atoms: C_8  and  N_6 
REMARK    5  A    between atoms: C_21  and  N_9 
REMARK    6  A    between atoms: O_28  and  C_23 
REMARK    7  A    between atoms: C_31  and  O_28 
ROOT
ATOM      1  C   UNL d   1      58.523  -0.656  29.780  0.00  0.00     0.132 A 
ATOM      2  C   UNL d   1      58.928  -1.357  29.658  0.00  0.00     0.020 A 
ATOM      3  C   UNL d   1      59.413  -1.438  28.995  0.00  0.00     0.059 A 
ATOM      4  C   UNL d   1      58.599  -0.028  29.241  0.00  0.00     0.152 A 
ATOM      5  C   UNL d   1      59.490  -0.810  28.456  0.00  0.00     0.007 A 
ATOM      6  C   UNL d   1      59.080  -0.104  28.582  0.00  0.00     0.030 A 
ATOM      7  F   UNL d   1      58.191   0.677  29.366  0.00  0.00    -0.203 F 
ENDROOT
BRANCH   1   8
ATOM      8  S   UNL d   1      58.038  -0.581  30.446  0.00  0.00     0.274 S 
ATOM      9  O   UNL d   1      58.620  -0.138  30.828  0.00  0.00    -0.200 OA
ATOM     10  O   UNL d   1      57.456  -1.023  30.065  0.00  0.00    -0.200 OA
BRANCH   8  11
ATOM     11  N   UNL d   1      57.550  -0.509  31.108  0.00  0.00    -0.226 N 
ATOM     12  C   UNL d   1      57.533   0.195  31.529  0.00  0.00     0.111 A 
ATOM     13  C   UNL d   1      57.043   0.263  32.191  0.00  0.00     0.101 A 
ATOM     14  N   UNL d   1      56.574  -0.375  32.425  0.00  0.00    -0.286 N 
ATOM     15  C   UNL d   1      56.600  -1.070  31.997  0.00  0.00     0.101 A 
ATOM     16  C   UNL d   1      57.081  -1.146  31.342  0.00  0.00     0.111 A 
BRANCH  14  17
ATOM     17  C   UNL d   1      56.089  -0.301  33.085  0.00  0.00     0.148 A 
ATOM     18  N   UNL d   1      56.108   0.383  33.538  0.00  0.00    -0.227 NA
ATOM     19  C   UNL d   1      55.619   0.455  34.200  0.00  0.00     0.101 A 
ATOM     20  C   UNL d   1      55.113  -0.166  34.401  0.00  0.00     0.021 A 
ATOM     21  C   UNL d   1      55.094  -0.855  33.945  0.00  0.00     0.005 A 
ATOM     22  C   UNL d   1      55.582  -0.919  33.289  0.00  0.00     0.037 A 
ENDBRANCH  14  17
ENDBRANCH   8  11
ENDBRANCH   1   8
BRANCH   3  23
ATOM     23  C   UNL d   1      59.828  -2.139  28.859  0.00  0.00     0.279 C 
ATOM     24  N   UNL d   1      59.488  -2.859  29.084  0.00  0.00    -0.208 NA
ATOM     25  O   UNL d   1      60.563  -2.128  28.507  0.00  0.00    -0.265 OA
BRANCH  24  26
ATOM     26  C   UNL d   1      59.897  -3.565  28.951  0.00  0.00     0.085 A 
ATOM     27  C   UNL d   1      59.520  -4.202  28.594  0.00  0.00     0.021 A 
ATOM     28  C   UNL d   1      59.928  -4.905  28.462  0.00  0.00     0.026 A 
ATOM     29  C   UNL d   1      60.731  -4.981  28.688  0.00  0.00     0.100 A 
ATOM     30  C   UNL d   1      61.106  -4.331  29.049  0.00  0.00     0.026 A 
ATOM     31  C   UNL d   1      60.700  -3.630  29.182  0.00  0.00     0.021 A 
BRANCH  29  32
ATOM     32  O   UNL d   1      61.133  -5.679  28.555  0.00  0.00    -0.305 OA
BRANCH  32  33
ATOM     33  C   UNL d   1      60.770  -6.404  28.705  0.00  0.00     0.123 C 
ATOM     34  C   UNL d   1      61.129  -7.106  28.456  0.00  0.00     0.029 C 
ENDBRANCH  32  33
ENDBRANCH  29  32
ENDBRANCH  24  26
ENDBRANCH   3  23
TORSDOF 7
ENDMDL
MODEL 2
REMARK VINA RESULT:      -1.7      1.315      6.326
REMARK  7 active torsions:
REMARK  status: ('A' for Active; 'I' for Inactive)
REMARK    1  A    between atoms: C_2  and  S_1 
REMARK    2  A    between atoms: N_3  and  S_1 
REMARK    3  A    between atoms: C_5  and  C_7 
REMARK       I    between atoms: N_9  and  C_5 
REMARK    4  A    between atoms: C_8  and  N_6 
REMARK    5  A    between atoms: C_21  and  N_9 
REMARK    6  A    between atoms: O_28  and  C_23 
REMARK    7  A    between atoms: C_31  and  O_28 
ROOT
ATOM      1  C   UNL d   1      58.676  -0.834  29.538  0.00  0.00     0.132 A 
ATOM      2  C   UNL d   1      58.151  -0.722  30.157  0.00  0.00     0.020 A 
ATOM      3  C   UNL d   1      57.870   0.037  30.319  0.00  0.00     0.059 A 
ATOM      4  C   UNL d   1      58.926  -0.189  29.077  0.00  0.00     0.152 A 
ATOM      5  C   UNL d   1      58.120   0.682  29.858  0.00  0.00     0.007 A 
ATOM      6  C   UNL d   1      58.649   0.565  29.236  0.00  0.00     0.030 A 
ATOM      7  F   UNL d   1      59.455  -0.305  28.455  0.00  0.00    -0.203 F 
ENDROOT
BRANCH   1   8
ATOM      8  S   UNL d   1      58.955  -1.597  29.379  0.00  0.00     0.274 S 
ATOM      9  O   UNL d   1      59.477  -1.296  28.815  0.00  0.00    -0.200 OA
ATOM     10  O   UNL d   1      58.434  -1.899  29.942  0.00  0.00    -0.200 OA
BRANCH   8  11
ATOM     11  N   UNL d   1      59.229  -2.360  29.224  0.00  0.00    -0.226 N 
ATOM     12  C   UNL d   1      58.825  -2.840  28.695  0.00  0.00     0.111 A 
ATOM     13  C   UNL d   1      59.103  -3.603  28.544  0.00  0.00     0.101 A 
ATOM     14  N   UNL d   1      59.783  -3.879  28.922  0.00  0.00    -0.286 N 
ATOM     15  C   UNL d   1      60.175  -3.391  29.446  0.00  0.00     0.101 A 
ATOM     16  C   UNL d   1      59.909  -2.636  29.603  0.00  0.00     0.111 A 
BRANCH  14  17
ATOM     17  C   UNL d   1      60.054  -4.639  28.767  0.00  0.00     0.148 A 
ATOM     18  N   UNL d   1      60.859  -4.783  28.689  0.00  0.00    -0.227 NA
ATOM     19  C   UNL d   1      61.129  -5.547  28.533  0.00  0.00     0.101 A 
ATOM     20  C   UNL d   1      60.585  -6.164  28.456  0.00  0.00     0.021 A 
ATOM     21  C   UNL d   1      59.774  -6.019  28.535  0.00  0.00     0.005 A 
ATOM     22  C   UNL d   1      59.513  -5.258  28.690  0.00  0.00     0.037 A 
ENDBRANCH  14  17
ENDBRANCH   8  11
ENDBRANCH   1   8
BRANCH   3  23
ATOM     23  C   UNL d   1      57.340   0.166  30.940  0.00  0.00     0.279 C 
ATOM     24  N   UNL d   1      57.463  -0.218  31.663  0.00  0.00    -0.208 NA
ATOM     25  O   UNL d   1      56.702   0.665  30.847  0.00  0.00    -0.265 OA
BRANCH  24  26
ATOM     26  C   UNL d   1      56.937  -0.093  32.287  0.00  0.00     0.085 A 
ATOM     27  C   UNL d   1      57.029   0.555  32.785  0.00  0.00     0.021 A 
ATOM     28  C   UNL d   1      56.505   0.678  33.408  0.00  0.00     0.026 A 
ATOM     29  C   UNL d   1      55.871   0.146  33.543  0.00  0.00     0.100 A 
ATOM     30  C   UNL d   1      55.785  -0.507  33.035  0.00  0.00     0.026 A 
ATOM     31  C   UNL d   1      56.307  -0.631  32.414  0.00  0.00     0.021 A 
BRANCH  29  32
ATOM     32  O   UNL d   1      55.353   0.271  34.161  0.00  0.00    -0.305 OA
BRANCH  32  33
ATOM     33  C   UNL d   1      54.590   0.549  34.016  0.00  0.00     0.123 C 
ATOM     34  C   UNL d   1      53.990   0.421  34.572  0.00  0.00     0.029 C 
ENDBRANCH  32  33
ENDBRANCH  29  32
ENDBRANCH  24  26
ENDBRANCH   3  23
TORSDOF 7
ENDMDL
