MODEL 1
REMARK VINA RESULT:      19.3      0.000      0.000
REMARK  1 active torsions:
REMARK  status: ('A' for Active; 'I' for Inactive)
REMARK    1  A    between atoms: C_2  and  N_1 
ROOT
ATOM      1  C   UNL d   1     -57.764 -98.818 -44.363  0.00  0.00     0.129 A 
ATOM      2  C   UNL d   1     -58.459 -98.810 -43.917  0.00  0.00     0.043 A 
ATOM      3  C   UNL d   1     -59.194 -98.789 -44.300  0.00  0.00     0.123 A 
ATOM      4  C   UNL d   1     -59.227 -98.777 -45.124  0.00  0.00     0.224 A 
ATOM      5  C   UNL d   1     -57.802 -98.807 -45.180  0.00  0.00     0.038 A 
ATOM      6  C   UNL d   1     -58.537 -98.786 -45.562  0.00  0.00     0.100 A 
ATOM      7  N   UNL d   1     -59.885 -98.780 -43.858  0.00  0.00    -0.241 NA
ATOM      8  O   UNL d   1     -59.955 -98.757 -45.502  0.00  0.00    -0.284 OA
ATOM      9 CL   UNL d   1     -58.573 -98.774 -46.382  0.00  0.00    -0.079 Cl
ATOM     10  C   UNL d   1     -58.422 -98.821 -43.097  0.00  0.00     0.005 A 
ATOM     11  C   UNL d   1     -59.854 -98.792 -43.030  0.00  0.00     0.099 A 
ATOM     12  C   UNL d   1     -59.119 -98.813 -42.648  0.00  0.00     0.021 A 
ENDROOT
BRANCH   1  13
ATOM     13  N   UNL d   1     -57.036 -98.839 -43.985  0.00  0.00    -0.114 N 
ATOM     14  O   UNL d   1     -56.345 -98.944 -44.420  0.00  0.00    -0.532 OA
ATOM     15  O   UNL d   1     -56.995 -98.755 -43.169  0.00  0.00    -0.532 OA
ENDBRANCH   1  13
TORSDOF 1
ENDMDL
