MODEL 1
REMARK VINA RESULT:      -4.6      0.000      0.000
REMARK  4 active torsions:
REMARK  status: ('A' for Active; 'I' for Inactive)
REMARK    1  A    between atoms: N_6  and  C_1 
REMARK    2  A    between atoms: C_8  and  N_4 
REMARK    3  A    between atoms: C_9  and  N_6 
REMARK    4  A    between atoms: C_13  and  C_9 
ROOT
ATOM      1  C   UNL d   1      57.964  -0.664  30.071  0.00  0.00     0.157 A 
ATOM      2  C   UNL d   1      58.227  -1.439  29.966  0.00  0.00     0.298 A 
ATOM      3  N   UNL d   1      58.924  -0.671  29.139  0.00  0.00    -0.238 N 
ATOM      4  N   UNL d   1      58.821  -1.438  29.388  0.00  0.00    -0.209 N 
ATOM      5  C   UNL d   1      58.388  -0.172  29.562  0.00  0.00     0.104 A 
ATOM      6  O   UNL d   1      57.937  -2.122  30.382  0.00  0.00    -0.263 OA
ATOM      7  C   UNL d   1      59.493  -0.379  28.529  0.00  0.00     0.120 C 
ATOM      8  C   UNL d   1      58.309   0.679  29.473  0.00  0.00     0.022 C 
ENDROOT
BRANCH   1   9
ATOM      9  N   UNL d   1      57.359  -0.408  30.609  0.00  0.00    -0.238 NA
BRANCH   9  10
ATOM     10  C   UNL d   1      57.512  -0.338  31.418  0.00  0.00     0.099 C 
BRANCH  10  11
ATOM     11  C   UNL d   1      56.881  -0.203  31.949  0.00  0.00     0.022 A 
ATOM     12  C   UNL d   1      56.580  -0.818  32.371  0.00  0.00     0.022 A 
ATOM     13  C   UNL d   1      55.951  -0.687  32.901  0.00  0.00     0.099 A 
ATOM     14  N   UNL d   1      55.634   0.040  33.004  0.00  0.00    -0.242 NA
ATOM     15  C   UNL d   1      55.926   0.682  32.583  0.00  0.00     0.099 A 
ATOM     16  C   UNL d   1      56.570   0.556  32.038  0.00  0.00     0.022 A 
ENDBRANCH  10  11
ENDBRANCH   9  10
ENDBRANCH   1   9
BRANCH   4  17
ATOM     17  C   UNL d   1      59.225  -2.136  29.132  0.00  0.00     0.085 A 
ATOM     18  C   UNL d   1      60.018  -2.224  29.306  0.00  0.00     0.019 A 
ATOM     19  C   UNL d   1      60.424  -2.926  29.048  0.00  0.00     0.002 A 
ATOM     20  C   UNL d   1      60.011  -3.495  28.632  0.00  0.00     0.000 A 
ATOM     21  C   UNL d   1      59.214  -3.408  28.455  0.00  0.00     0.002 A 
ATOM     22  C   UNL d   1      58.808  -2.706  28.713  0.00  0.00     0.019 A 
ENDBRANCH   4  17
TORSDOF 4
ENDMDL
MODEL 2
REMARK VINA RESULT:      -2.8      1.290      4.891
REMARK  4 active torsions:
REMARK  status: ('A' for Active; 'I' for Inactive)
REMARK    1  A    between atoms: N_6  and  C_1 
REMARK    2  A    between atoms: C_8  and  N_4 
REMARK    3  A    between atoms: C_9  and  N_6 
REMARK    4  A    between atoms: C_13  and  C_9 
ROOT
ATOM      1  C   UNL d   1      57.597   0.235  31.609  0.00  0.00     0.157 A 
ATOM      2  C   UNL d   1      56.834   0.097  31.890  0.00  0.00     0.298 A 
ATOM      3  N   UNL d   1      57.576   0.461  32.928  0.00  0.00    -0.238 N 
ATOM      4  N   UNL d   1      56.825   0.238  32.707  0.00  0.00    -0.209 N 
ATOM      5  C   UNL d   1      58.072   0.463  32.244  0.00  0.00     0.104 A 
ATOM      6  O   UNL d   1      56.170  -0.149  31.420  0.00  0.00    -0.263 OA
ATOM      7  C   UNL d   1      57.852   0.672  33.741  0.00  0.00     0.120 C 
ATOM      8  C   UNL d   1      58.908   0.665  32.224  0.00  0.00     0.022 C 
ENDROOT
BRANCH   1   9
ATOM      9  N   UNL d   1      57.858   0.158  30.805  0.00  0.00    -0.238 NA
BRANCH   9  10
ATOM     10  C   UNL d   1      57.972  -0.586  30.465  0.00  0.00     0.099 C 
BRANCH  10  11
ATOM     11  C   UNL d   1      58.459  -0.663  29.790  0.00  0.00     0.022 A 
ATOM     12  C   UNL d   1      58.859  -1.349  29.666  0.00  0.00     0.022 A 
ATOM     13  C   UNL d   1      59.345  -1.429  28.995  0.00  0.00     0.099 A 
ATOM     14  N   UNL d   1      59.427  -0.837  28.464  0.00  0.00    -0.242 NA
ATOM     15  C   UNL d   1      59.028  -0.128  28.570  0.00  0.00     0.099 A 
ATOM     16  C   UNL d   1      58.527  -0.038  29.256  0.00  0.00     0.022 A 
ENDBRANCH  10  11
ENDBRANCH   9  10
ENDBRANCH   1   9
BRANCH   4  17
ATOM     17  C   UNL d   1      56.135   0.152  33.189  0.00  0.00     0.085 A 
ATOM     18  C   UNL d   1      55.515   0.675  33.092  0.00  0.00     0.019 A 
ATOM     19  C   UNL d   1      54.821   0.589  33.577  0.00  0.00     0.002 A 
ATOM     20  C   UNL d   1      54.791  -0.014  34.127  0.00  0.00     0.000 A 
ATOM     21  C   UNL d   1      55.414  -0.540  34.227  0.00  0.00     0.002 A 
ATOM     22  C   UNL d   1      56.108  -0.454  33.742  0.00  0.00     0.019 A 
ENDBRANCH   4  17
TORSDOF 4
ENDMDL
MODEL 3
REMARK VINA RESULT:      -1.8      2.023      5.242
REMARK  4 active torsions:
REMARK  status: ('A' for Active; 'I' for Inactive)
REMARK    1  A    between atoms: N_6  and  C_1 
REMARK    2  A    between atoms: C_8  and  N_4 
REMARK    3  A    between atoms: C_9  and  N_6 
REMARK    4  A    between atoms: C_13  and  C_9 
ROOT
ATOM      1  C   UNL d   1      56.924  -0.618  32.114  0.00  0.00     0.157 A 
ATOM      2  C   UNL d   1      56.658  -0.091  32.689  0.00  0.00     0.298 A 
ATOM      3  N   UNL d   1      55.893  -1.173  32.761  0.00  0.00    -0.238 N 
ATOM      4  N   UNL d   1      56.019  -0.438  33.088  0.00  0.00    -0.209 N 
ATOM      5  C   UNL d   1      56.458  -1.298  32.145  0.00  0.00     0.104 A 
ATOM      6  O   UNL d   1      56.984   0.679  32.847  0.00  0.00    -0.263 OA
ATOM      7  C   UNL d   1      55.275  -1.761  32.993  0.00  0.00     0.120 C 
ATOM      8  C   UNL d   1      56.525  -2.000  31.654  0.00  0.00     0.022 C 
ENDROOT
BRANCH   1   9
ATOM      9  N   UNL d   1      57.569  -0.490  31.576  0.00  0.00    -0.238 NA
BRANCH   9  10
ATOM     10  C   UNL d   1      57.489   0.022  30.933  0.00  0.00     0.099 C 
BRANCH  10  11
ATOM     11  C   UNL d   1      58.144   0.163  30.432  0.00  0.00     0.022 A 
ATOM     12  C   UNL d   1      58.811   0.495  30.736  0.00  0.00     0.022 A 
ATOM     13  C   UNL d   1      59.464   0.636  30.240  0.00  0.00     0.099 A 
ATOM     14  N   UNL d   1      59.450   0.450  29.463  0.00  0.00    -0.242 NA
ATOM     15  C   UNL d   1      58.780   0.110  29.132  0.00  0.00     0.099 A 
ATOM     16  C   UNL d   1      58.105  -0.038  29.633  0.00  0.00     0.022 A 
ENDBRANCH  10  11
ENDBRANCH   9  10
ENDBRANCH   1   9
BRANCH   4  17
ATOM     17  C   UNL d   1      55.600  -0.060  33.719  0.00  0.00     0.085 A 
ATOM     18  C   UNL d   1      54.884   0.300  33.561  0.00  0.00     0.019 A 
ATOM     19  C   UNL d   1      54.462   0.680  34.195  0.00  0.00     0.002 A 
ATOM     20  C   UNL d   1      54.783   0.675  34.946  0.00  0.00     0.000 A 
ATOM     21  C   UNL d   1      55.503   0.313  35.107  0.00  0.00     0.002 A 
ATOM     22  C   UNL d   1      55.924  -0.067  34.473  0.00  0.00     0.019 A 
ENDBRANCH   4  17
TORSDOF 4
ENDMDL
