MODEL 1
REMARK VINA RESULT:      67.0      0.000      0.000
REMARK  3 active torsions:
REMARK  status: ('A' for Active; 'I' for Inactive)
REMARK    1  A    between atoms: N_6  and  S_1 
REMARK    2  A    between atoms: C_7  and  S_1 
REMARK    3  A    between atoms: C_10  and  N_6 
ROOT
ATOM      1  S   UNL d   1      59.239  48.752  50.523  0.00  0.00     0.327 S 
ATOM      2  O   UNL d   1      59.038  49.528  50.698  0.00  0.00    -0.186 OA
ATOM      3  O   UNL d   1      58.651  48.203  50.350  0.00  0.00    -0.186 OA
ENDROOT
BRANCH   1   4
ATOM      4  N   UNL d   1      58.453  48.988  50.527  0.00  0.00    -0.317 NA
BRANCH   4   5
ATOM      5  C   UNL d   1      57.649  49.231  50.532  0.00  0.00     0.145 A 
ATOM      6  C   UNL d   1      57.263  49.348  51.258  0.00  0.00     0.033 A 
ATOM      7  C   UNL d   1      56.470  49.588  51.260  0.00  0.00     0.003 A 
ATOM      8  C   UNL d   1      56.076  49.707  51.973  0.00  0.00     0.000 C 
ATOM      9  C   UNL d   1      56.072  49.707  50.543  0.00  0.00     0.000 A 
ATOM     10  C   UNL d   1      56.465  49.588  49.829  0.00  0.00     0.003 A 
ATOM     11  C   UNL d   1      57.255  49.349  49.827  0.00  0.00     0.033 A 
ATOM     12  C   UNL d   1      56.075  49.705  49.118  0.00  0.00     0.000 C 
ENDBRANCH   4   5
ENDBRANCH   1   4
BRANCH   1  13
ATOM     13  C   UNL d   1      60.027  48.524  50.520  0.00  0.00     0.118 A 
ATOM     14  C   UNL d   1      60.240  47.789  50.222  0.00  0.00     0.035 A 
ATOM     15  C   UNL d   1      61.035  47.554  50.218  0.00  0.00     0.105 A 
ATOM     16  N   UNL d   1      61.411  46.866  49.961  0.00  0.00    -0.189 NA
ATOM     17  C   UNL d   1      61.618  48.067  50.517  0.00  0.00     0.104 A 
ATOM     18  C   UNL d   1      62.228  46.948  50.099  0.00  0.00     0.369 A 
ATOM     19  O   UNL d   1      62.808  46.390  49.926  0.00  0.00    -0.242 OA
ATOM     20  N   UNL d   1      62.348  47.691  50.442  0.00  0.00    -0.189 NA
ATOM     21  C   UNL d   1      61.399  48.808  50.817  0.00  0.00     0.022 A 
ATOM     22  C   UNL d   1      60.604  49.031  50.816  0.00  0.00     0.016 A 
ENDBRANCH   1  13
TORSDOF 3
ENDMDL
