MODEL 1
REMARK VINA RESULT:      47.7      0.000      0.000
REMARK  6 active torsions:
REMARK  status: ('A' for Active; 'I' for Inactive)
REMARK    1  A    between atoms: C_2  and  C_1 
REMARK       I    between atoms: N_3  and  C_2 
REMARK    2  A    between atoms: C_24  and  N_3 
REMARK    3  A    between atoms: C_4  and  C_10 
REMARK    4  A    between atoms: C_9  and  C_4 
REMARK    5  A    between atoms: C_8  and  C_9 
REMARK    6  A    between atoms: C_10  and  C_15 
ROOT
ATOM      1  C   UNL d   1      13.797  13.318  -3.038  0.00  0.00     0.039 A 
ATOM      2  C   UNL d   1      14.611  12.416  -1.908  0.00  0.00     0.084 A 
ATOM      3  C   UNL d   1      14.618  13.501  -2.847  0.00  0.00     0.005 A 
ATOM      4  C   UNL d   1      13.429  12.701  -2.660  0.00  0.00     0.005 A 
ATOM      5  C   UNL d   1      15.001  13.054  -2.295  0.00  0.00     0.019 A 
ATOM      6  C   UNL d   1      13.817  12.257  -2.109  0.00  0.00     0.019 A 
ENDROOT
BRANCH   2   7
ATOM      7  N   UNL d   1      14.993  11.969  -1.357  0.00  0.00    -0.212 NA
ATOM      8  C   UNL d   1      15.105  12.236  -0.601  0.00  0.00     0.259 C 
ATOM      9  O   UNL d   1      15.498  11.783  -0.024  0.00  0.00    -0.270 OA
BRANCH   8  10
ATOM     10  C   UNL d   1      14.823  12.981  -0.383  0.00  0.00     0.092 A 
ATOM     11  C   UNL d   1      14.188  13.454  -0.155  0.00  0.00     0.017 A 
ATOM     12  C   UNL d   1      14.325  14.215  -0.016  0.00  0.00     0.023 A 
ATOM     13  C   UNL d   1      13.801  13.609  -0.044  0.00  0.00    -0.027 A 
ATOM     14  C   UNL d   1      15.087  14.530  -0.099  0.00  0.00     0.009 A 
ATOM     15  C   UNL d   1      14.438  13.137  -0.273  0.00  0.00    -0.012 A 
ATOM     16  C   UNL d   1      14.311  12.349  -0.419  0.00  0.00    -0.018 A 
ATOM     17  C   UNL d   1      15.188  13.476  -0.348  0.00  0.00    -0.027 A 
ATOM     18  C   UNL d   1      15.652  14.077  -0.309  0.00  0.00     0.023 A 
ATOM     19  C   UNL d   1      15.573  13.319  -0.458  0.00  0.00     0.017 A 
ENDBRANCH   8  10
ENDBRANCH   2   7
BRANCH   1  20
ATOM     20  C   UNL d   1      13.409  13.782  -3.606  0.00  0.00     0.196 C 
ATOM     21  O   UNL d   1      12.949  13.412  -4.152  0.00  0.00    -0.287 OA
BRANCH  20  22
ATOM     22  C   UNL d   1      13.498  14.600  -3.605  0.00  0.00     0.044 C 
BRANCH  22  23
ATOM     23  C   UNL d   1      13.949  14.972  -4.193  0.00  0.00     0.028 C 
BRANCH  23  24
ATOM     24  C   UNL d   1      14.258  15.726  -4.059  0.00  0.00     0.100 A 
ATOM     25  O   UNL d   1      14.751  15.963  -3.458  0.00  0.00    -0.305 OA
ATOM     26  C   UNL d   1      14.917  16.746  -3.536  0.00  0.00     0.123 A 
ATOM     27  C   UNL d   1      14.522  17.023  -4.205  0.00  0.00     0.029 A 
ATOM     28  C   UNL d   1      14.102  16.384  -4.542  0.00  0.00     0.027 A 
ENDBRANCH  23  24
ENDBRANCH  22  23
ENDBRANCH  20  22
ENDBRANCH   1  20
TORSDOF 6
ENDMDL
