MODEL 1
REMARK VINA RESULT:      -7.9      0.000      0.000
REMARK  4 active torsions:
REMARK  status: ('A' for Active; 'I' for Inactive)
REMARK    1  A    between atoms: N_10  and  C_3 
REMARK    2  A    between atoms: C_14  and  C_5 
REMARK    3  A    between atoms: C_15  and  C_9 
REMARK       I    between atoms: C_11  and  N_12 
REMARK    4  A    between atoms: C_13  and  C_11 
ROOT
ATOM      1  N   UNL d   1      51.696  34.455  53.518  0.00  0.00    -0.196 N 
ATOM      2  C   UNL d   1      52.438  34.142  53.801  0.00  0.00     0.167 A 
ATOM      3  C   UNL d   1      51.193  33.956  53.109  0.00  0.00     0.152 A 
ATOM      4  N   UNL d   1      52.034  35.729  54.079  0.00  0.00    -0.163 NA
ATOM      5  C   UNL d   1      52.962  34.623  54.215  0.00  0.00     0.055 A 
ATOM      6  N   UNL d   1      52.637  33.347  53.659  0.00  0.00    -0.231 NA
ATOM      7  C   UNL d   1      51.380  33.171  52.965  0.00  0.00     0.052 A 
ATOM      8  C   UNL d   1      52.761  35.422  54.357  0.00  0.00     0.104 A 
ATOM      9  C   UNL d   1      52.111  32.863  53.243  0.00  0.00     0.063 A 
ATOM     10  C   UNL d   1      53.280  35.901  54.768  0.00  0.00     0.023 C 
ENDROOT
BRANCH   3  11
ATOM     11  N   UNL d   1      50.437  34.270  52.819  0.00  0.00    -0.286 N 
ATOM     12  C   UNL d   1      49.811  34.661  53.174  0.00  0.00     0.101 A 
ATOM     13  C   UNL d   1      49.155  34.893  52.733  0.00  0.00     0.102 A 
ATOM     14  N   UNL d   1      49.133  34.728  51.928  0.00  0.00    -0.267 N 
ATOM     15  C   UNL d   1      48.487  34.952  51.477  0.00  0.00     0.288 C 
ATOM     16  C   UNL d   1      49.755  34.338  51.572  0.00  0.00     0.102 A 
ATOM     17  O   UNL d   1      48.461  34.788  50.672  0.00  0.00    -0.264 OA
ATOM     18  C   UNL d   1      50.408  34.110  52.021  0.00  0.00     0.101 A 
BRANCH  15  19
ATOM     19  C   UNL d   1      47.862  35.342  51.832  0.00  0.00     0.156 A 
ATOM     20  O   UNL d   1      47.128  34.973  51.884  0.00  0.00    -0.300 OA
ATOM     21  C   UNL d   1      46.502  35.364  52.239  0.00  0.00     0.123 A 
ATOM     22  C   UNL d   1      46.600  36.111  52.539  0.00  0.00     0.029 A 
ATOM     23  C   UNL d   1      47.960  36.089  52.132  0.00  0.00     0.032 A 
ENDBRANCH  15  19
ENDBRANCH   3  11
BRANCH   9  24
ATOM     24  C   UNL d   1      52.316  32.027  53.093  0.00  0.00     0.036 C 
ATOM     25  C   UNL d   1      52.521  31.199  52.940  0.00  0.00     0.006 C 
ATOM     26  C   UNL d   1      51.896  31.390  53.511  0.00  0.00     0.006 C 
ATOM     27  C   UNL d   1      52.940  31.832  52.522  0.00  0.00     0.006 C 
ENDBRANCH   9  24
BRANCH   5  28
ATOM     28  C   UNL d   1      53.682  34.319  54.490  0.00  0.00     0.004 A 
ATOM     29  C   UNL d   1      54.354  34.362  54.019  0.00  0.00     0.001 A 
ATOM     30  C   UNL d   1      55.082  34.055  54.297  0.00  0.00     0.011 A 
ATOM     31  C   UNL d   1      55.127  33.710  55.041  0.00  0.00     0.058 A 
ATOM     32  C   UNL d   1      54.438  33.669  55.518  0.00  0.00     0.011 A 
ATOM     33 CL   UNL d   1      55.882  33.392  55.329  0.00  0.00    -0.082 Cl
ATOM     34  C   UNL d   1      53.721  33.971  55.244  0.00  0.00     0.001 A 
ENDBRANCH   5  28
TORSDOF 4
ENDMDL
