MODEL 1
REMARK VINA RESULT:       7.4      0.000      0.000
REMARK  7 active torsions:
REMARK  status: ('A' for Active; 'I' for Inactive)
REMARK       I    between atoms: N_2  and  C_1 
REMARK    1  A    between atoms: C_5  and  N_2 
REMARK    2  A    between atoms: N_4  and  C_9 
REMARK    3  A    between atoms: C_16  and  N_4 
REMARK    4  A    between atoms: O_6  and  C_8 
REMARK    5  A    between atoms: C_10  and  O_6 
REMARK    6  A    between atoms: C_7  and  C_10 
REMARK    7  A    between atoms: C_9  and  C_7 
ROOT
ATOM      1  C   UNL d   1      45.477 -14.250  44.673  0.00  0.00     0.085 A 
ATOM      2  C   UNL d   1      45.635 -15.884  44.803  0.00  0.00     0.100 A 
ATOM      3  C   UNL d   1      44.832 -14.738  44.524  0.00  0.00     0.021 A 
ATOM      4  C   UNL d   1      46.206 -14.571  44.888  0.00  0.00     0.021 A 
ATOM      5  C   UNL d   1      46.286 -15.391  44.953  0.00  0.00     0.026 A 
ATOM      6  C   UNL d   1      44.909 -15.554  44.588  0.00  0.00     0.026 A 
ENDROOT
BRANCH   2   7
ATOM      7  O   UNL d   1      45.712 -16.700  44.867  0.00  0.00    -0.302 OA
BRANCH   7   8
ATOM      8  C   UNL d   1      46.242 -17.104  44.383  0.00  0.00     0.166 C 
BRANCH   8   9
ATOM      9  C   UNL d   1      46.173 -17.923  44.306  0.00  0.00     0.239 C 
ATOM     10  O   UNL d   1      45.930 -18.369  44.955  0.00  0.00    -0.283 OA
BRANCH   9  11
ATOM     11  C   UNL d   1      46.344 -18.294  43.593  0.00  0.00     0.143 C 
BRANCH  11  12
ATOM     12  N   UNL d   1      46.472 -19.109  43.570  0.00  0.00    -0.241 NA
BRANCH  12  13
ATOM     13  C   UNL d   1      46.359 -19.521  42.873  0.00  0.00     0.082 C 
ATOM     14  C   UNL d   1      46.107 -20.310  42.902  0.00  0.00     0.021 C 
ATOM     15  C   UNL d   1      46.494 -19.153  42.148  0.00  0.00     0.021 C 
ENDBRANCH  12  13
ENDBRANCH  11  12
ENDBRANCH   9  11
ENDBRANCH   8   9
ENDBRANCH   7   8
ENDBRANCH   2   7
BRANCH   1  16
ATOM     16  N   UNL d   1      45.400 -13.434  44.608  0.00  0.00    -0.208 NA
ATOM     17  C   UNL d   1      45.612 -13.050  43.901  0.00  0.00     0.279 C 
ATOM     18  O   UNL d   1      45.897 -13.489  43.274  0.00  0.00    -0.265 OA
ATOM     19  C   UNL d   1      45.530 -12.230  43.848  0.00  0.00     0.068 C 
ENDBRANCH   1  16
TORSDOF 7
ENDMDL
MODEL 2
REMARK VINA RESULT:       9.6      0.945      5.006
REMARK  7 active torsions:
REMARK  status: ('A' for Active; 'I' for Inactive)
REMARK       I    between atoms: N_2  and  C_1 
REMARK    1  A    between atoms: C_5  and  N_2 
REMARK    2  A    between atoms: N_4  and  C_9 
REMARK    3  A    between atoms: C_16  and  N_4 
REMARK    4  A    between atoms: O_6  and  C_8 
REMARK    5  A    between atoms: C_10  and  O_6 
REMARK    6  A    between atoms: C_7  and  C_10 
REMARK    7  A    between atoms: C_9  and  C_7 
ROOT
ATOM      1  C   UNL d   1      46.354 -18.597  43.716  0.00  0.00     0.085 A 
ATOM      2  C   UNL d   1      45.775 -17.206  44.382  0.00  0.00     0.100 A 
ATOM      3  C   UNL d   1      46.128 -18.583  44.507  0.00  0.00     0.021 A 
ATOM      4  C   UNL d   1      46.293 -17.919  43.250  0.00  0.00     0.021 A 
ATOM      5  C   UNL d   1      46.003 -17.220  43.583  0.00  0.00     0.026 A 
ATOM      6  C   UNL d   1      45.840 -17.890  44.841  0.00  0.00     0.026 A 
ENDROOT
BRANCH   2   7
ATOM      7  O   UNL d   1      45.486 -16.513  44.716  0.00  0.00    -0.302 OA
BRANCH   7   8
ATOM      8  C   UNL d   1      45.881 -15.800  44.593  0.00  0.00     0.166 C 
BRANCH   8   9
ATOM      9  C   UNL d   1      45.457 -15.093  44.630  0.00  0.00     0.239 C 
ATOM     10  O   UNL d   1      44.696 -15.096  44.947  0.00  0.00    -0.283 OA
BRANCH   9  11
ATOM     11  C   UNL d   1      45.784 -14.392  44.355  0.00  0.00     0.143 C 
BRANCH  11  12
ATOM     12  N   UNL d   1      45.791 -13.721  44.835  0.00  0.00    -0.241 NA
BRANCH  12  13
ATOM     13  C   UNL d   1      45.741 -12.977  44.499  0.00  0.00     0.082 C 
ATOM     14  C   UNL d   1      45.944 -12.312  44.951  0.00  0.00     0.021 C 
ATOM     15  C   UNL d   1      45.490 -12.891  43.719  0.00  0.00     0.021 C 
ENDBRANCH  12  13
ENDBRANCH  11  12
ENDBRANCH   9  11
ENDBRANCH   8   9
ENDBRANCH   7   8
ENDBRANCH   2   7
BRANCH   1  16
ATOM     16  N   UNL d   1      46.643 -19.290  43.382  0.00  0.00    -0.208 NA
ATOM     17  C   UNL d   1      46.275 -19.614  42.710  0.00  0.00     0.279 C 
ATOM     18  O   UNL d   1      45.627 -19.238  42.384  0.00  0.00    -0.265 OA
ATOM     19  C   UNL d   1      46.574 -20.311  42.383  0.00  0.00     0.068 C 
ENDBRANCH   1  16
TORSDOF 7
ENDMDL
