MODEL 1
REMARK VINA RESULT:      22.9      0.000      0.000
REMARK  5 active torsions:
REMARK  status: ('A' for Active; 'I' for Inactive)
REMARK    1  A    between atoms: C_10  and  N_1 
REMARK    2  A    between atoms: S_7  and  C_4 
REMARK    3  A    between atoms: C_9  and  C_6 
REMARK    4  A    between atoms: C_8  and  S_7 
REMARK    5  A    between atoms: N_14  and  C_13 
ROOT
ATOM      1  N   UNL d   1      45.650 -15.984  43.921  0.00  0.00    -0.241 N 
ATOM      2  C   UNL d   1      45.189 -16.454  44.378  0.00  0.00     0.268 A 
ATOM      3  C   UNL d   1      46.099 -16.429  43.404  0.00  0.00     0.273 A 
ATOM      4  C   UNL d   1      45.907 -17.219  43.547  0.00  0.00     0.091 A 
ATOM      5  C   UNL d   1      45.340 -17.234  44.155  0.00  0.00     0.072 A 
ATOM      6  O   UNL d   1      44.671 -16.181  44.955  0.00  0.00    -0.267 OA
ATOM      7  O   UNL d   1      46.647 -16.129  42.841  0.00  0.00    -0.266 OA
ENDROOT
BRANCH   4   8
ATOM      8  S   UNL d   1      46.273 -17.799  43.109  0.00  0.00    -0.082 SA
BRANCH   8   9
ATOM      9  C   UNL d   1      46.393 -18.571  43.423  0.00  0.00     0.035 A 
ATOM     10  C   UNL d   1      46.395 -19.247  42.918  0.00  0.00     0.070 A 
ATOM     11  C   UNL d   1      46.516 -19.982  43.267  0.00  0.00     0.007 A 
ATOM     12  C   UNL d   1      46.632 -20.045  44.092  0.00  0.00     0.000 A 
ATOM     13  C   UNL d   1      46.626 -19.360  44.579  0.00  0.00     0.001 A 
ATOM     14  C   UNL d   1      46.507 -18.628  44.239  0.00  0.00     0.007 A 
BRANCH  10  15
ATOM     15  C   UNL d   1      46.283 -19.177  42.124  0.00  0.00     0.211 C 
ATOM     16  O   UNL d   1      46.634 -18.558  41.718  0.00  0.00    -0.644 OA
ATOM     17  O   UNL d   1      45.828 -19.701  41.689  0.00  0.00    -0.644 OA
ENDBRANCH  10  15
ENDBRANCH   8   9
ENDBRANCH   4   8
BRANCH   1  18
ATOM     18  C   UNL d   1      45.622 -15.130  44.018  0.00  0.00     0.070 A 
ATOM     19  C   UNL d   1      45.077 -14.691  43.611  0.00  0.00     0.019 A 
ATOM     20  C   UNL d   1      45.063 -13.866  43.716  0.00  0.00     0.019 A 
ATOM     21  C   UNL d   1      45.600 -13.508  44.229  0.00  0.00     0.064 A 
ATOM     22  C   UNL d   1      46.154 -13.960  44.642  0.00  0.00     0.019 A 
ATOM     23  C   UNL d   1      46.170 -14.775  44.540  0.00  0.00     0.019 A 
BRANCH  21  24
ATOM     24  N   UNL d   1      45.586 -12.700  44.332  0.00  0.00    -0.301 N 
ATOM     25  C   UNL d   1      45.157 -12.231  43.804  0.00  0.00     0.100 C 
ATOM     26  C   UNL d   1      45.998 -12.368  44.954  0.00  0.00     0.100 C 
ENDBRANCH  21  24
ENDBRANCH   1  18
TORSDOF 5
ENDMDL
