MODEL 1
REMARK VINA RESULT:      52.4      0.000      0.000
REMARK  3 active torsions:
REMARK  status: ('A' for Active; 'I' for Inactive)
REMARK    1  A    between atoms: S_7  and  C_3 
REMARK       I    between atoms: N_4  and  C_5 
REMARK    2  A    between atoms: C_5  and  C_10 
REMARK    3  A    between atoms: C_10  and  S_7 
ROOT
ATOM      1  N   UNL d   1     -50.425  25.342  33.316  0.00  0.00    -0.236 NA
ATOM      2  N   UNL d   1     -52.080  25.358  33.306  0.00  0.00    -0.242 NA
ATOM      3  C   UNL d   1     -50.824  26.065  33.313  0.00  0.00     0.129 A 
ATOM      4  C   UNL d   1     -51.659  26.073  33.308  0.00  0.00     0.105 A 
ATOM      5  C   UNL d   1     -50.838  24.636  33.313  0.00  0.00     0.100 A 
ATOM      6  C   UNL d   1     -51.673  24.644  33.308  0.00  0.00     0.099 A 
ATOM      7  C   UNL d   1     -52.066  26.779  33.306  0.00  0.00     0.023 C 
ATOM      8  C   UNL d   1     -52.094  23.934  33.306  0.00  0.00     0.021 A 
ATOM      9  C   UNL d   1     -50.439  23.918  33.316  0.00  0.00     0.021 A 
ATOM     10  C   UNL d   1     -51.675  23.211  33.308  0.00  0.00     0.002 A 
ATOM     11  C   UNL d   1     -50.852  23.203  33.313  0.00  0.00     0.002 A 
ENDROOT
BRANCH   3  12
ATOM     12  S   UNL d   1     -50.399  26.763  33.316  0.00  0.00    -0.061 SA
BRANCH  12  13
ATOM     13  C   UNL d   1     -49.972  26.983  33.974  0.00  0.00     0.098 C 
BRANCH  13  14
ATOM     14  C   UNL d   1     -49.169  27.195  33.898  0.00  0.00     0.271 C 
ATOM     15  N   UNL d   1     -48.854  27.768  34.409  0.00  0.00    -0.272 N 
ATOM     16  C   UNL d   1     -48.049  27.982  34.335  0.00  0.00     0.083 A 
ATOM     17  C   UNL d   1     -49.322  28.118  34.977  0.00  0.00     0.083 A 
ATOM     18  C   UNL d   1     -47.740  28.550  34.843  0.00  0.00     0.019 A 
ATOM     19  C   UNL d   1     -48.208  28.901  35.411  0.00  0.00     0.003 A 
ATOM     20  C   UNL d   1     -48.995  28.692  35.485  0.00  0.00     0.019 A 
ATOM     21  C   UNL d   1     -47.865  29.490  35.930  0.00  0.00     0.000 C 
ATOM     22  O   UNL d   1     -48.699  26.843  33.327  0.00  0.00    -0.266 OA
ENDBRANCH  13  14
ENDBRANCH  12  13
ENDBRANCH   3  12
TORSDOF 3
ENDMDL
MODEL 2
REMARK VINA RESULT:      53.0      0.914      1.435
REMARK  3 active torsions:
REMARK  status: ('A' for Active; 'I' for Inactive)
REMARK    1  A    between atoms: S_7  and  C_3 
REMARK       I    between atoms: N_4  and  C_5 
REMARK    2  A    between atoms: C_5  and  C_10 
REMARK    3  A    between atoms: C_10  and  S_7 
ROOT
ATOM      1  N   UNL d   1     -51.642  25.506  33.338  0.00  0.00    -0.236 NA
ATOM      2  N   UNL d   1     -50.579  24.238  33.341  0.00  0.00    -0.242 NA
ATOM      3  C   UNL d   1     -50.830  25.657  33.323  0.00  0.00     0.129 A 
ATOM      4  C   UNL d   1     -50.294  25.017  33.324  0.00  0.00     0.105 A 
ATOM      5  C   UNL d   1     -51.925  24.739  33.354  0.00  0.00     0.100 A 
ATOM      6  C   UNL d   1     -51.389  24.099  33.356  0.00  0.00     0.099 A 
ATOM      7  C   UNL d   1     -49.490  25.150  33.309  0.00  0.00     0.023 C 
ATOM      8  C   UNL d   1     -51.670  23.323  33.372  0.00  0.00     0.021 A 
ATOM      9  C   UNL d   1     -52.733  24.592  33.369  0.00  0.00     0.021 A 
ATOM     10  C   UNL d   1     -52.495  23.188  33.387  0.00  0.00     0.002 A 
ATOM     11  C   UNL d   1     -53.023  23.819  33.386  0.00  0.00     0.002 A 
ENDROOT
BRANCH   3  12
ATOM     12  S   UNL d   1     -50.561  26.428  33.306  0.00  0.00    -0.061 SA
BRANCH  12  13
ATOM     13  C   UNL d   1     -50.261  26.775  33.980  0.00  0.00     0.098 C 
BRANCH  13  14
ATOM     14  C   UNL d   1     -50.157  27.601  34.014  0.00  0.00     0.271 C 
ATOM     15  N   UNL d   1     -49.493  27.907  34.405  0.00  0.00    -0.272 N 
ATOM     16  C   UNL d   1     -49.387  28.737  34.439  0.00  0.00     0.083 A 
ATOM     17  C   UNL d   1     -48.949  27.409  34.751  0.00  0.00     0.083 A 
ATOM     18  C   UNL d   1     -48.727  29.037  34.828  0.00  0.00     0.019 A 
ATOM     19  C   UNL d   1     -48.183  28.538  35.174  0.00  0.00     0.003 A 
ATOM     20  C   UNL d   1     -48.286  27.727  35.141  0.00  0.00     0.019 A 
ATOM     21  C   UNL d   1     -47.503  28.874  35.574  0.00  0.00     0.000 C 
ATOM     22  O   UNL d   1     -50.703  28.102  33.665  0.00  0.00    -0.266 OA
ENDBRANCH  13  14
ENDBRANCH  12  13
ENDBRANCH   3  12
TORSDOF 3
ENDMDL
