MODEL 1
REMARK VINA RESULT:      -3.1      0.000      0.000
REMARK  4 active torsions:
REMARK  status: ('A' for Active; 'I' for Inactive)
REMARK    1  A    between atoms: C_7  and  C_1 
REMARK    2  A    between atoms: O_10  and  C_2 
REMARK    3  A    between atoms: C_17  and  O_10 
REMARK    4  A    between atoms: C_19  and  C_12 
ROOT
ATOM      1  C   UNL d   1      31.882  16.218 -23.595  0.00  0.00     0.197 A 
ATOM      2  C   UNL d   1      32.002  16.925 -24.012  0.00  0.00     0.165 A 
ATOM      3  O   UNL d   1      31.126  15.915 -23.549  0.00  0.00    -0.301 OA
ATOM      4  C   UNL d   1      31.363  17.309 -24.369  0.00  0.00     0.222 A 
ATOM      5  C   UNL d   1      30.627  16.985 -24.306  0.00  0.00     0.064 A 
ATOM      6  C   UNL d   1      30.507  16.278 -23.890  0.00  0.00     0.106 A 
ATOM      7  C   UNL d   1      29.987  17.368 -24.664  0.00  0.00     0.008 A 
ATOM      8  C   UNL d   1      29.751  15.975 -23.844  0.00  0.00     0.067 A 
ATOM      9  C   UNL d   1      29.116  16.338 -24.188  0.00  0.00     0.198 A 
ATOM     10  C   UNL d   1      29.236  17.045 -24.605  0.00  0.00     0.039 A 
ATOM     11  O   UNL d   1      31.479  17.996 -24.774  0.00  0.00    -0.284 OA
ATOM     12  O   UNL d   1      28.358  16.018 -24.132  0.00  0.00    -0.286 OA
ENDROOT
BRANCH   2  13
ATOM     13  O   UNL d   1      32.761  17.248 -24.070  0.00  0.00    -0.302 OA
BRANCH  13  14
ATOM     14  C   UNL d   1      32.911  18.000 -23.778  0.00  0.00     0.100 A 
ATOM     15  C   UNL d   1      33.093  18.607 -24.313  0.00  0.00     0.025 A 
ATOM     16  C   UNL d   1      33.241  19.345 -24.026  0.00  0.00     0.002 A 
ATOM     17  C   UNL d   1      33.208  19.484 -23.202  0.00  0.00     0.000 A 
ATOM     18  C   UNL d   1      33.030  18.887 -22.695  0.00  0.00     0.002 A 
ATOM     19  C   UNL d   1      32.880  18.135 -22.987  0.00  0.00     0.025 A 
ENDBRANCH  13  14
ENDBRANCH   2  13
BRANCH   1  20
ATOM     20  C   UNL d   1      32.521  15.838 -23.239  0.00  0.00     0.442 C 
ATOM     21  F   UNL d   1      33.166  15.454 -22.873  0.00  0.00    -0.164 F 
ATOM     22  F   UNL d   1      32.248  16.074 -22.497  0.00  0.00    -0.164 F 
ATOM     23  F   UNL d   1      32.793  15.602 -23.984  0.00  0.00    -0.164 F 
ENDBRANCH   1  20
BRANCH  10  24
ATOM     24  C   UNL d   1      28.597  17.429 -24.962  0.00  0.00     0.003 C 
ATOM     25  C   UNL d   1      28.589  18.251 -25.011  0.00  0.00     0.000 C 
ENDBRANCH  10  24
TORSDOF 4
ENDMDL
