MODEL 1
REMARK VINA RESULT:      -7.5      0.000      0.000
REMARK  4 active torsions:
REMARK  status: ('A' for Active; 'I' for Inactive)
REMARK    1  A    between atoms: N_2  and  S_1 
REMARK    2  A    between atoms: C_3  and  S_1 
REMARK    3  A    between atoms: O_19  and  C_14 
REMARK    4  A    between atoms: O_20  and  C_17 
ROOT
ATOM      1  S   UNL d   1     -48.717  13.019  22.396  0.00  0.00     0.275 S 
ATOM      2  O   UNL d   1     -48.483  13.153  21.541  0.00  0.00    -0.199 OA
ATOM      3  O   UNL d   1     -48.950  12.885  23.256  0.00  0.00    -0.199 OA
ENDROOT
BRANCH   1   4
ATOM      4  N   UNL d   1     -49.565  13.190  22.176  0.00  0.00    -0.212 N 
ATOM      5  C   UNL d   1     -49.930  13.864  22.432  0.00  0.00     0.094 A 
ATOM      6  C   UNL d   1     -50.706  14.020  22.231  0.00  0.00     0.100 A 
ATOM      7  C   UNL d   1     -49.512  14.387  22.895  0.00  0.00     0.020 A 
ATOM      8  C   UNL d   1     -51.064  14.703  22.495  0.00  0.00     0.021 A 
ATOM      9  N   UNL d   1     -50.759  12.817  21.508  0.00  0.00    -0.223 NA
ATOM     10  C   UNL d   1     -50.651  15.234  22.960  0.00  0.00     0.002 A 
ATOM     11  C   UNL d   1     -49.876  15.078  23.162  0.00  0.00     0.002 A 
ATOM     12  C   UNL d   1     -51.010  15.921  23.227  0.00  0.00     0.000 C 
ATOM     13  C   UNL d   1     -49.455  15.602  23.626  0.00  0.00     0.000 C 
ATOM     14  C   UNL d   1     -49.984  12.661  21.709  0.00  0.00     0.193 A 
ENDBRANCH   1   4
BRANCH   1  15
ATOM     15  C   UNL d   1     -47.866  12.849  22.614  0.00  0.00     0.128 A 
ATOM     16  C   UNL d   1     -47.203  13.404  22.350  0.00  0.00     0.039 A 
ATOM     17  C   UNL d   1     -46.354  13.227  22.572  0.00  0.00     0.095 A 
ATOM     18  C   UNL d   1     -46.162  12.502  23.054  0.00  0.00     0.026 A 
ATOM     19  C   UNL d   1     -46.815  11.948  23.319  0.00  0.00     0.027 A 
ATOM     20  C   UNL d   1     -47.660  12.129  23.095  0.00  0.00     0.106 A 
BRANCH  17  21
ATOM     21  O   UNL d   1     -45.699  13.770  22.315  0.00  0.00    -0.328 OA
ATOM     22  C   UNL d   1     -44.910  13.417  22.042  0.00  0.00     0.181 C 
ENDBRANCH  17  21
BRANCH  20  23
ATOM     23  O   UNL d   1     -48.322  11.576  23.358  0.00  0.00    -0.327 OA
ATOM     24  C   UNL d   1     -48.112  10.768  23.698  0.00  0.00     0.181 C 
ENDBRANCH  20  23
ENDBRANCH   1  15
TORSDOF 4
ENDMDL
MODEL 2
REMARK VINA RESULT:      -7.3      1.548      4.476
REMARK  4 active torsions:
REMARK  status: ('A' for Active; 'I' for Inactive)
REMARK    1  A    between atoms: N_2  and  S_1 
REMARK    2  A    between atoms: C_3  and  S_1 
REMARK    3  A    between atoms: O_19  and  C_14 
REMARK    4  A    between atoms: O_20  and  C_17 
ROOT
ATOM      1  S   UNL d   1     -47.748  13.357  22.732  0.00  0.00     0.275 S 
ATOM      2  O   UNL d   1     -47.721  13.531  23.611  0.00  0.00    -0.199 OA
ATOM      3  O   UNL d   1     -47.777  13.182  21.849  0.00  0.00    -0.199 OA
ENDROOT
BRANCH   1   4
ATOM      4  N   UNL d   1     -46.856  13.311  22.728  0.00  0.00    -0.212 N 
ATOM      5  C   UNL d   1     -46.477  12.638  22.966  0.00  0.00     0.094 A 
ATOM      6  C   UNL d   1     -45.662  12.596  22.962  0.00  0.00     0.100 A 
ATOM      7  C   UNL d   1     -46.920  12.000  23.209  0.00  0.00     0.020 A 
ATOM      8  C   UNL d   1     -45.289  11.913  23.203  0.00  0.00     0.021 A 
ATOM      9  N   UNL d   1     -45.597  13.914  22.479  0.00  0.00    -0.223 NA
ATOM     10  C   UNL d   1     -45.727  11.267  23.449  0.00  0.00     0.002 A 
ATOM     11  C   UNL d   1     -46.542  11.309  23.453  0.00  0.00     0.002 A 
ATOM     12  C   UNL d   1     -45.354  10.579  23.692  0.00  0.00     0.000 C 
ATOM     13  C   UNL d   1     -46.989  10.669  23.697  0.00  0.00     0.000 C 
ATOM     14  C   UNL d   1     -46.412  13.955  22.482  0.00  0.00     0.193 A 
ENDBRANCH   1   4
BRANCH   1  15
ATOM     15  C   UNL d   1     -48.642  13.403  22.740  0.00  0.00     0.128 A 
ATOM     16  C   UNL d   1     -49.141  12.651  22.792  0.00  0.00     0.039 A 
ATOM     17  C   UNL d   1     -50.034  12.705  22.798  0.00  0.00     0.095 A 
ATOM     18  C   UNL d   1     -50.433  13.502  22.754  0.00  0.00     0.026 A 
ATOM     19  C   UNL d   1     -49.943  14.250  22.702  0.00  0.00     0.027 A 
ATOM     20  C   UNL d   1     -49.052  14.192  22.696  0.00  0.00     0.106 A 
BRANCH  17  21
ATOM     21  O   UNL d   1     -50.530  11.968  22.849  0.00  0.00    -0.328 OA
ATOM     22  C   UNL d   1     -50.860  11.710  23.653  0.00  0.00     0.181 C 
ENDBRANCH  17  21
BRANCH  20  23
ATOM     23  O   UNL d   1     -48.553  14.941  22.644  0.00  0.00    -0.327 OA
ATOM     24  C   UNL d   1     -48.939  15.709  22.373  0.00  0.00     0.181 C 
ENDBRANCH  20  23
ENDBRANCH   1  15
TORSDOF 4
ENDMDL
MODEL 3
REMARK VINA RESULT:      -7.3      1.192      3.936
REMARK  4 active torsions:
REMARK  status: ('A' for Active; 'I' for Inactive)
REMARK    1  A    between atoms: N_2  and  S_1 
REMARK    2  A    between atoms: C_3  and  S_1 
REMARK    3  A    between atoms: O_19  and  C_14 
REMARK    4  A    between atoms: O_20  and  C_17 
ROOT
ATOM      1  S   UNL d   1     -49.071  12.929  22.835  0.00  0.00     0.275 S 
ATOM      2  O   UNL d   1     -49.289  13.047  23.697  0.00  0.00    -0.199 OA
ATOM      3  O   UNL d   1     -48.853  12.813  21.969  0.00  0.00    -0.199 OA
ENDROOT
BRANCH   1   4
ATOM      4  N   UNL d   1     -48.438  12.353  23.089  0.00  0.00    -0.212 N 
ATOM      5  C   UNL d   1     -47.655  12.547  23.027  0.00  0.00     0.094 A 
ATOM      6  C   UNL d   1     -47.077  12.020  23.259  0.00  0.00     0.100 A 
ATOM      7  C   UNL d   1     -47.452  13.277  22.731  0.00  0.00     0.020 A 
ATOM      8  C   UNL d   1     -46.291  12.225  23.193  0.00  0.00     0.021 A 
ATOM      9  N   UNL d   1     -48.068  11.090  23.618  0.00  0.00    -0.223 NA
ATOM     10  C   UNL d   1     -46.078  12.957  22.897  0.00  0.00     0.002 A 
ATOM     11  C   UNL d   1     -46.656  13.484  22.666  0.00  0.00     0.002 A 
ATOM     12  C   UNL d   1     -45.288  13.166  22.830  0.00  0.00     0.000 C 
ATOM     13  C   UNL d   1     -46.454  14.218  22.368  0.00  0.00     0.000 C 
ATOM     14  C   UNL d   1     -48.646  11.617  23.386  0.00  0.00     0.193 A 
ENDBRANCH   1   4
BRANCH   1  15
ATOM     15  C   UNL d   1     -49.706  13.508  22.585  0.00  0.00     0.128 A 
ATOM     16  C   UNL d   1     -49.729  14.344  22.927  0.00  0.00     0.039 A 
ATOM     17  C   UNL d   1     -50.367  14.917  22.672  0.00  0.00     0.095 A 
ATOM     18  C   UNL d   1     -50.982  14.663  22.078  0.00  0.00     0.026 A 
ATOM     19  C   UNL d   1     -50.964  13.835  21.734  0.00  0.00     0.027 A 
ATOM     20  C   UNL d   1     -50.326  13.267  21.992  0.00  0.00     0.106 A 
BRANCH  17  21
ATOM     21  O   UNL d   1     -50.393  15.741  23.006  0.00  0.00    -0.328 OA
ATOM     22  C   UNL d   1     -50.951  15.922  23.697  0.00  0.00     0.181 C 
ENDBRANCH  17  21
BRANCH  20  23
ATOM     23  O   UNL d   1     -50.302  12.432  21.651  0.00  0.00    -0.327 OA
ATOM     24  C   UNL d   1     -50.902  12.198  21.021  0.00  0.00     0.181 C 
ENDBRANCH  20  23
ENDBRANCH   1  15
TORSDOF 4
ENDMDL
MODEL 4
REMARK VINA RESULT:      -6.4      8.462     10.450
REMARK  4 active torsions:
REMARK  status: ('A' for Active; 'I' for Inactive)
REMARK    1  A    between atoms: N_2  and  S_1 
REMARK    2  A    between atoms: C_3  and  S_1 
REMARK    3  A    between atoms: O_19  and  C_14 
REMARK    4  A    between atoms: O_20  and  C_17 
ROOT
ATOM      1  S   UNL d   1     -39.869  14.831  19.088  0.00  0.00     0.275 S 
ATOM      2  O   UNL d   1     -40.460  14.162  19.007  0.00  0.00    -0.199 OA
ATOM      3  O   UNL d   1     -39.275  15.503  19.171  0.00  0.00    -0.199 OA
ENDROOT
BRANCH   1   4
ATOM      4  N   UNL d   1     -40.011  15.042  18.232  0.00  0.00    -0.212 N 
ATOM      5  C   UNL d   1     -39.565  14.708  17.646  0.00  0.00     0.094 A 
ATOM      6  C   UNL d   1     -39.695  14.900  16.863  0.00  0.00     0.100 A 
ATOM      7  C   UNL d   1     -38.984  14.175  17.848  0.00  0.00     0.020 A 
ATOM      8  C   UNL d   1     -39.240  14.558  16.280  0.00  0.00     0.021 A 
ATOM      9  N   UNL d   1     -40.728  15.771  17.249  0.00  0.00    -0.223 NA
ATOM     10  C   UNL d   1     -38.653  14.022  16.474  0.00  0.00     0.002 A 
ATOM     11  C   UNL d   1     -38.524  13.829  17.257  0.00  0.00     0.002 A 
ATOM     12  C   UNL d   1     -38.194  13.676  15.890  0.00  0.00     0.000 C 
ATOM     13  C   UNL d   1     -37.940  13.295  17.461  0.00  0.00     0.000 C 
ATOM     14  C   UNL d   1     -40.598  15.578  18.031  0.00  0.00     0.193 A 
ENDBRANCH   1   4
BRANCH   1  15
ATOM     15  C   UNL d   1     -39.729  14.618  19.946  0.00  0.00     0.128 A 
ATOM     16  C   UNL d   1     -39.061  14.055  20.177  0.00  0.00     0.039 A 
ATOM     17  C   UNL d   1     -38.927  13.846  21.037  0.00  0.00     0.095 A 
ATOM     18  C   UNL d   1     -39.453  14.194  21.667  0.00  0.00     0.026 A 
ATOM     19  C   UNL d   1     -40.117  14.753  21.444  0.00  0.00     0.027 A 
ATOM     20  C   UNL d   1     -40.247  14.958  20.584  0.00  0.00     0.106 A 
BRANCH  17  21
ATOM     21  O   UNL d   1     -38.271  13.292  21.269  0.00  0.00    -0.328 OA
ATOM     22  C   UNL d   1     -38.062  13.193  22.145  0.00  0.00     0.181 C 
ENDBRANCH  17  21
BRANCH  20  23
ATOM     23  O   UNL d   1     -40.914  15.520  20.353  0.00  0.00    -0.327 OA
ATOM     24  C   UNL d   1     -41.399  15.917  21.000  0.00  0.00     0.181 C 
ENDBRANCH  20  23
ENDBRANCH   1  15
TORSDOF 4
ENDMDL
MODEL 5
REMARK VINA RESULT:      -5.3      1.200      1.956
REMARK  4 active torsions:
REMARK  status: ('A' for Active; 'I' for Inactive)
REMARK    1  A    between atoms: N_2  and  S_1 
REMARK    2  A    between atoms: C_3  and  S_1 
REMARK    3  A    between atoms: O_19  and  C_14 
REMARK    4  A    between atoms: O_20  and  C_17 
ROOT
ATOM      1  S   UNL d   1     -47.651  13.720  22.749  0.00  0.00     0.275 S 
ATOM      2  O   UNL d   1     -47.771  13.505  23.610  0.00  0.00    -0.199 OA
ATOM      3  O   UNL d   1     -47.529  13.936  21.882  0.00  0.00    -0.199 OA
ENDROOT
BRANCH   1   4
ATOM      4  N   UNL d   1     -48.403  14.201  22.779  0.00  0.00    -0.212 N 
ATOM      5  C   UNL d   1     -49.054  13.976  22.354  0.00  0.00     0.094 A 
ATOM      6  C   UNL d   1     -49.741  14.415  22.382  0.00  0.00     0.100 A 
ATOM      7  C   UNL d   1     -49.013  13.303  21.898  0.00  0.00     0.020 A 
ATOM      8  C   UNL d   1     -50.391  14.179  21.950  0.00  0.00     0.021 A 
ATOM      9  N   UNL d   1     -49.128  15.318  23.267  0.00  0.00    -0.223 NA
ATOM     10  C   UNL d   1     -50.359  13.505  21.489  0.00  0.00     0.002 A 
ATOM     11  C   UNL d   1     -49.672  13.065  21.462  0.00  0.00     0.002 A 
ATOM     12  C   UNL d   1     -51.011  13.266  21.055  0.00  0.00     0.000 C 
ATOM     13  C   UNL d   1     -49.630  12.389  21.005  0.00  0.00     0.000 C 
ATOM     14  C   UNL d   1     -48.441  14.879  23.239  0.00  0.00     0.193 A 
ENDBRANCH   1   4
BRANCH   1  15
ATOM     15  C   UNL d   1     -46.898  13.238  22.721  0.00  0.00     0.128 A 
ATOM     16  C   UNL d   1     -46.166  13.551  22.295  0.00  0.00     0.039 A 
ATOM     17  C   UNL d   1     -45.416  13.063  22.272  0.00  0.00     0.095 A 
ATOM     18  C   UNL d   1     -45.391  12.265  22.670  0.00  0.00     0.026 A 
ATOM     19  C   UNL d   1     -46.115  11.949  23.095  0.00  0.00     0.027 A 
ATOM     20  C   UNL d   1     -46.861  12.440  23.115  0.00  0.00     0.106 A 
BRANCH  17  21
ATOM     21  O   UNL d   1     -44.692  13.367  21.854  0.00  0.00    -0.328 OA
ATOM     22  C   UNL d   1     -43.937  12.866  21.850  0.00  0.00     0.181 C 
ENDBRANCH  17  21
BRANCH  20  23
ATOM     23  O   UNL d   1     -47.592  12.128  23.540  0.00  0.00    -0.327 OA
ATOM     24  C   UNL d   1     -47.666  11.244  23.696  0.00  0.00     0.181 C 
ENDBRANCH  20  23
ENDBRANCH   1  15
TORSDOF 4
ENDMDL
MODEL 6
REMARK VINA RESULT:      -5.2      8.679     11.026
REMARK  4 active torsions:
REMARK  status: ('A' for Active; 'I' for Inactive)
REMARK    1  A    between atoms: N_2  and  S_1 
REMARK    2  A    between atoms: C_3  and  S_1 
REMARK    3  A    between atoms: O_19  and  C_14 
REMARK    4  A    between atoms: O_20  and  C_17 
ROOT
ATOM      1  S   UNL d   1     -38.833  13.807  19.084  0.00  0.00     0.275 S 
ATOM      2  O   UNL d   1     -39.650  13.475  18.922  0.00  0.00    -0.199 OA
ATOM      3  O   UNL d   1     -38.013  14.141  19.249  0.00  0.00    -0.199 OA
ENDROOT
BRANCH   1   4
ATOM      4  N   UNL d   1     -38.533  13.383  18.358  0.00  0.00    -0.212 N 
ATOM      5  C   UNL d   1     -38.449  13.777  17.657  0.00  0.00     0.094 A 
ATOM      6  C   UNL d   1     -38.174  13.390  16.993  0.00  0.00     0.100 A 
ATOM      7  C   UNL d   1     -38.643  14.567  17.622  0.00  0.00     0.020 A 
ATOM      8  C   UNL d   1     -38.093  13.796  16.291  0.00  0.00     0.021 A 
ATOM      9  N   UNL d   1     -38.064  12.201  17.732  0.00  0.00    -0.223 NA
ATOM     10  C   UNL d   1     -38.286  14.590  16.247  0.00  0.00     0.002 A 
ATOM     11  C   UNL d   1     -38.560  14.977  16.911  0.00  0.00     0.002 A 
ATOM     12  C   UNL d   1     -38.205  15.001  15.542  0.00  0.00     0.000 C 
ATOM     13  C   UNL d   1     -38.756  15.770  16.878  0.00  0.00     0.000 C 
ATOM     14  C   UNL d   1     -38.338  12.587  18.396  0.00  0.00     0.193 A 
ENDBRANCH   1   4
BRANCH   1  15
ATOM     15  C   UNL d   1     -39.138  14.230  19.812  0.00  0.00     0.128 A 
ATOM     16  C   UNL d   1     -39.772  14.869  19.741  0.00  0.00     0.039 A 
ATOM     17  C   UNL d   1     -40.071  15.288  20.473  0.00  0.00     0.095 A 
ATOM     18  C   UNL d   1     -39.743  15.075  21.275  0.00  0.00     0.026 A 
ATOM     19  C   UNL d   1     -39.113  14.441  21.351  0.00  0.00     0.027 A 
ATOM     20  C   UNL d   1     -38.818  14.026  20.617  0.00  0.00     0.106 A 
BRANCH  17  21
ATOM     21  O   UNL d   1     -40.695  15.918  20.409  0.00  0.00    -0.328 OA
ATOM     22  C   UNL d   1     -41.433  15.868  20.933  0.00  0.00     0.181 C 
ENDBRANCH  17  21
BRANCH  20  23
ATOM     23  O   UNL d   1     -38.185  13.387  20.687  0.00  0.00    -0.327 OA
ATOM     24  C   UNL d   1     -37.989  13.049  21.499  0.00  0.00     0.181 C 
ENDBRANCH  20  23
ENDBRANCH   1  15
TORSDOF 4
ENDMDL
MODEL 7
REMARK VINA RESULT:      -5.0      9.505     10.433
REMARK  4 active torsions:
REMARK  status: ('A' for Active; 'I' for Inactive)
REMARK    1  A    between atoms: N_2  and  S_1 
REMARK    2  A    between atoms: C_3  and  S_1 
REMARK    3  A    between atoms: O_19  and  C_14 
REMARK    4  A    between atoms: O_20  and  C_17 
ROOT
ATOM      1  S   UNL d   1     -38.851  14.550  18.864  0.00  0.00     0.275 S 
ATOM      2  O   UNL d   1     -39.456  13.889  18.895  0.00  0.00    -0.199 OA
ATOM      3  O   UNL d   1     -38.243  15.214  18.834  0.00  0.00    -0.199 OA
ENDROOT
BRANCH   1   4
ATOM      4  N   UNL d   1     -38.944  14.574  17.976  0.00  0.00    -0.212 N 
ATOM      5  C   UNL d   1     -39.600  14.906  17.639  0.00  0.00     0.094 A 
ATOM      6  C   UNL d   1     -39.685  14.928  16.828  0.00  0.00     0.100 A 
ATOM      7  C   UNL d   1     -40.175  15.219  18.122  0.00  0.00     0.020 A 
ATOM      8  C   UNL d   1     -40.350  15.265  16.498  0.00  0.00     0.021 A 
ATOM      9  N   UNL d   1     -38.448  14.279  16.681  0.00  0.00    -0.223 NA
ATOM     10  C   UNL d   1     -40.933  15.582  16.976  0.00  0.00     0.002 A 
ATOM     11  C   UNL d   1     -40.848  15.560  17.787  0.00  0.00     0.002 A 
ATOM     12  C   UNL d   1     -41.603  15.922  16.647  0.00  0.00     0.000 C 
ATOM     13  C   UNL d   1     -41.425  15.875  18.274  0.00  0.00     0.000 C 
ATOM     14  C   UNL d   1     -38.363  14.257  17.492  0.00  0.00     0.193 A 
ENDBRANCH   1   4
BRANCH   1  15
ATOM     15  C   UNL d   1     -38.760  14.524  19.754  0.00  0.00     0.128 A 
ATOM     16  C   UNL d   1     -38.993  15.234  20.261  0.00  0.00     0.039 A 
ATOM     17  C   UNL d   1     -38.899  15.201  21.151  0.00  0.00     0.095 A 
ATOM     18  C   UNL d   1     -38.574  14.465  21.537  0.00  0.00     0.026 A 
ATOM     19  C   UNL d   1     -38.341  13.758  21.039  0.00  0.00     0.027 A 
ATOM     20  C   UNL d   1     -38.437  13.796  20.151  0.00  0.00     0.106 A 
BRANCH  17  21
ATOM     21  O   UNL d   1     -39.127  15.897  21.654  0.00  0.00    -0.328 OA
ATOM     22  C   UNL d   1     -39.081  15.827  22.557  0.00  0.00     0.181 C 
ENDBRANCH  17  21
BRANCH  20  23
ATOM     23  O   UNL d   1     -38.204  13.087  19.644  0.00  0.00    -0.327 OA
ATOM     24  C   UNL d   1     -37.940  12.326  20.046  0.00  0.00     0.181 C 
ENDBRANCH  20  23
ENDBRANCH   1  15
TORSDOF 4
ENDMDL
