MODEL 1
REMARK VINA RESULT:     102.3      0.000      0.000
REMARK  8 active torsions:
REMARK  status: ('A' for Active; 'I' for Inactive)
REMARK    1  A    between atoms: C_8  and  C_1 
REMARK    2  A    between atoms: C_7  and  C_2 
REMARK    3  A    between atoms: C_9  and  C_3 
REMARK    4  A    between atoms: O_14  and  C_7 
REMARK    5  A    between atoms: O_15  and  C_8 
REMARK    6  A    between atoms: C_22  and  O_14 
REMARK    7  A    between atoms: C_23  and  O_15 
REMARK    8  A    between atoms: O_21  and  C_18 
ROOT
ATOM      1  C   UNL d   1      58.867  39.762  55.528  0.00  0.00     0.081 A 
ATOM      2  C   UNL d   1      58.155  38.530  55.526  0.00  0.00     0.081 A 
ATOM      3  C   UNL d   1      58.236  39.303  55.263  0.00  0.00     0.013 A 
ATOM      4  C   UNL d   1      59.415  39.444  56.056  0.00  0.00     0.086 A 
ATOM      5  C   UNL d   1      58.704  38.213  56.055  0.00  0.00     0.086 A 
ATOM      6  N   UNL d   1      59.332  38.669  56.319  0.00  0.00    -0.245 NA
ATOM      7  C   UNL d   1      58.621  37.420  56.325  0.00  0.00     0.021 C 
ATOM      8  C   UNL d   1      60.058  39.908  56.328  0.00  0.00     0.021 C 
ENDROOT
BRANCH   3   9
ATOM      9  C   UNL d   1      57.685  39.622  54.732  0.00  0.00     0.001 A 
ATOM     10  C   UNL d   1      57.831  39.603  53.925  0.00  0.00     0.002 A 
ATOM     11  C   UNL d   1      57.277  39.924  53.391  0.00  0.00     0.024 A 
ATOM     12  C   UNL d   1      56.584  40.260  53.670  0.00  0.00     0.094 A 
ATOM     13  C   UNL d   1      56.435  40.280  54.480  0.00  0.00     0.024 A 
ATOM     14  C   UNL d   1      56.988  39.960  55.013  0.00  0.00     0.002 A 
BRANCH  12  15
ATOM     15  O   UNL d   1      56.033  40.578  53.149  0.00  0.00    -0.328 OA
ATOM     16  C   UNL d   1      56.187  40.572  52.340  0.00  0.00     0.181 C 
ENDBRANCH  12  15
ENDBRANCH   3   9
BRANCH   2  17
ATOM     17  C   UNL d   1      57.507  38.064  55.252  0.00  0.00     0.302 C 
ATOM     18  O   UNL d   1      56.739  38.270  55.458  0.00  0.00    -0.259 OA
BRANCH  17  19
ATOM     19  O   UNL d   1      57.652  37.400  54.774  0.00  0.00    -0.271 OA
BRANCH  19  20
ATOM     20  C   UNL d   1      57.146  36.750  54.804  0.00  0.00     0.126 C 
ATOM     21  C   UNL d   1      57.289  36.092  54.331  0.00  0.00     0.029 C 
ENDBRANCH  19  20
ENDBRANCH  17  19
ENDBRANCH   2  17
BRANCH   1  22
ATOM     22  C   UNL d   1      58.945  40.553  55.255  0.00  0.00     0.302 C 
ATOM     23  O   UNL d   1      58.526  41.167  55.639  0.00  0.00    -0.259 OA
BRANCH  22  24
ATOM     24  O   UNL d   1      59.436  40.710  54.612  0.00  0.00    -0.271 OA
BRANCH  24  25
ATOM     25  C   UNL d   1      59.841  41.428  54.575  0.00  0.00     0.126 C 
ATOM     26  C   UNL d   1      60.431  41.536  54.005  0.00  0.00     0.029 C 
ENDBRANCH  24  25
ENDBRANCH  22  24
ENDBRANCH   1  22
TORSDOF 8
ENDMDL
