MODEL 1
REMARK VINA RESULT:      -7.0      0.000      0.000
REMARK  5 active torsions:
REMARK  status: ('A' for Active; 'I' for Inactive)
REMARK    1  A    between atoms: N_2  and  C_1 
REMARK    2  A    between atoms: N_3  and  C_1 
REMARK       I    between atoms: C_4  and  N_2 
REMARK    3  A    between atoms: C_15  and  C_4 
REMARK    4  A    between atoms: O_17  and  C_9 
REMARK    5  A    between atoms: O_18  and  C_10 
ROOT
ATOM      1  N   UNL d   1     -47.535  12.861  23.029  0.00  0.00    -0.281 N 
ATOM      2  C   UNL d   1     -46.232  12.255  23.027  0.00  0.00     0.020 A 
ATOM      3  C   UNL d   1     -47.015  12.275  23.290  0.00  0.00     0.082 A 
ATOM      4  C   UNL d   1     -45.968  12.835  22.491  0.00  0.00     0.005 A 
ATOM      5  C   UNL d   1     -45.709  11.674  23.284  0.00  0.00     0.028 A 
ATOM      6  C   UNL d   1     -44.932  11.663  23.016  0.00  0.00     0.116 A 
ATOM      7  C   UNL d   1     -44.670  12.238  22.485  0.00  0.00     0.116 A 
ATOM      8  C   UNL d   1     -45.186  12.823  22.223  0.00  0.00     0.026 A 
ATOM      9  C   UNL d   1     -47.270  13.445  22.490  0.00  0.00     0.082 A 
ATOM     10  C   UNL d   1     -46.480  13.428  22.222  0.00  0.00     0.019 A 
ENDROOT
BRANCH   1  11
ATOM     11  C   UNL d   1     -48.320  12.876  23.297  0.00  0.00     0.209 C 
ATOM     12  S   UNL d   1     -48.628  12.223  23.698  0.00  0.00    -0.038 SA
BRANCH  11  13
ATOM     13  N   UNL d   1     -48.789  13.540  23.162  0.00  0.00    -0.180 NA
ATOM     14  C   UNL d   1     -49.594  13.518  23.345  0.00  0.00     0.281 C 
ATOM     15  O   UNL d   1     -49.926  12.832  23.661  0.00  0.00    -0.265 OA
BRANCH  14  16
ATOM     16  C   UNL d   1     -50.063  14.187  23.209  0.00  0.00     0.058 A 
ATOM     17  C   UNL d   1     -50.596  14.186  22.583  0.00  0.00     0.005 A 
ATOM     18  C   UNL d   1     -51.064  14.848  22.442  0.00  0.00     0.000 A 
ATOM     19  C   UNL d   1     -50.996  15.509  22.931  0.00  0.00     0.000 A 
ATOM     20  C   UNL d   1     -50.456  15.506  23.562  0.00  0.00     0.000 A 
ATOM     21  C   UNL d   1     -49.989  14.837  23.698  0.00  0.00     0.005 A 
ENDBRANCH  14  16
ENDBRANCH  11  13
ENDBRANCH   1  11
BRANCH   6  22
ATOM     22  O   UNL d   1     -44.416  11.078  23.278  0.00  0.00    -0.326 OA
ATOM     23  C   UNL d   1     -44.711  10.400  23.642  0.00  0.00     0.181 C 
ENDBRANCH   6  22
BRANCH   7  24
ATOM     24  O   UNL d   1     -43.885  12.224  22.217  0.00  0.00    -0.326 OA
ATOM     25  C   UNL d   1     -43.664  12.669  21.561  0.00  0.00     0.181 C 
ENDBRANCH   7  24
TORSDOF 5
ENDMDL
MODEL 2
REMARK VINA RESULT:      -6.4      1.080      5.267
REMARK  5 active torsions:
REMARK  status: ('A' for Active; 'I' for Inactive)
REMARK    1  A    between atoms: N_2  and  C_1 
REMARK    2  A    between atoms: N_3  and  C_1 
REMARK       I    between atoms: C_4  and  N_2 
REMARK    3  A    between atoms: C_15  and  C_4 
REMARK    4  A    between atoms: O_17  and  C_9 
REMARK    5  A    between atoms: O_18  and  C_10 
ROOT
ATOM      1  N   UNL d   1     -47.242  13.178  23.060  0.00  0.00    -0.281 N 
ATOM      2  C   UNL d   1     -48.663  13.347  22.929  0.00  0.00     0.020 A 
ATOM      3  C   UNL d   1     -48.003  12.858  23.017  0.00  0.00     0.082 A 
ATOM      4  C   UNL d   1     -48.556  14.171  22.882  0.00  0.00     0.005 A 
ATOM      5  C   UNL d   1     -49.423  13.035  22.886  0.00  0.00     0.028 A 
ATOM      6  C   UNL d   1     -50.074  13.530  22.798  0.00  0.00     0.116 A 
ATOM      7  C   UNL d   1     -49.968  14.347  22.751  0.00  0.00     0.116 A 
ATOM      8  C   UNL d   1     -49.212  14.667  22.793  0.00  0.00     0.026 A 
ATOM      9  C   UNL d   1     -47.135  14.007  23.013  0.00  0.00     0.082 A 
ATOM     10  C   UNL d   1     -47.798  14.504  22.923  0.00  0.00     0.019 A 
ENDROOT
BRANCH   1  11
ATOM     11  C   UNL d   1     -46.583  12.682  23.149  0.00  0.00     0.209 C 
ATOM     12  S   UNL d   1     -46.605  12.067  23.698  0.00  0.00    -0.038 SA
BRANCH  11  13
ATOM     13  N   UNL d   1     -45.910  12.805  22.689  0.00  0.00    -0.180 NA
ATOM     14  C   UNL d   1     -45.256  12.308  22.776  0.00  0.00     0.281 C 
ATOM     15  O   UNL d   1     -45.280  11.690  23.322  0.00  0.00    -0.265 OA
BRANCH  14  16
ATOM     16  C   UNL d   1     -44.582  12.434  22.313  0.00  0.00     0.058 A 
ATOM     17  C   UNL d   1     -43.911  11.977  22.443  0.00  0.00     0.005 A 
ATOM     18  C   UNL d   1     -43.238  12.098  21.986  0.00  0.00     0.000 A 
ATOM     19  C   UNL d   1     -43.239  12.677  21.399  0.00  0.00     0.000 A 
ATOM     20  C   UNL d   1     -43.919  13.136  21.271  0.00  0.00     0.000 A 
ATOM     21  C   UNL d   1     -44.592  13.010  21.734  0.00  0.00     0.005 A 
ENDBRANCH  14  16
ENDBRANCH  11  13
ENDBRANCH   1  11
BRANCH   6  22
ATOM     22  O   UNL d   1     -50.830  13.209  22.756  0.00  0.00    -0.326 OA
ATOM     23  C   UNL d   1     -50.964  12.432  22.999  0.00  0.00     0.181 C 
ENDBRANCH   6  22
BRANCH   7  24
ATOM     24  O   UNL d   1     -50.627  14.843  22.662  0.00  0.00    -0.326 OA
ATOM     25  C   UNL d   1     -50.610  15.610  22.959  0.00  0.00     0.181 C 
ENDBRANCH   7  24
TORSDOF 5
ENDMDL
MODEL 3
REMARK VINA RESULT:      -6.4      1.273      5.209
REMARK  5 active torsions:
REMARK  status: ('A' for Active; 'I' for Inactive)
REMARK    1  A    between atoms: N_2  and  C_1 
REMARK    2  A    between atoms: N_3  and  C_1 
REMARK       I    between atoms: C_4  and  N_2 
REMARK    3  A    between atoms: C_15  and  C_4 
REMARK    4  A    between atoms: O_17  and  C_9 
REMARK    5  A    between atoms: O_18  and  C_10 
ROOT
ATOM      1  N   UNL d   1     -46.802  13.596  22.706  0.00  0.00    -0.281 N 
ATOM      2  C   UNL d   1     -48.214  13.336  22.648  0.00  0.00     0.020 A 
ATOM      3  C   UNL d   1     -47.433  13.077  22.582  0.00  0.00     0.082 A 
ATOM      4  C   UNL d   1     -48.364  14.132  22.841  0.00  0.00     0.005 A 
ATOM      5  C   UNL d   1     -48.847  12.824  22.526  0.00  0.00     0.028 A 
ATOM      6  C   UNL d   1     -49.621  13.093  22.593  0.00  0.00     0.116 A 
ATOM      7  C   UNL d   1     -49.770  13.881  22.785  0.00  0.00     0.116 A 
ATOM      8  C   UNL d   1     -49.144  14.400  22.909  0.00  0.00     0.026 A 
ATOM      9  C   UNL d   1     -46.953  14.396  22.900  0.00  0.00     0.082 A 
ATOM     10  C   UNL d   1     -47.740  14.663  22.968  0.00  0.00     0.019 A 
ENDROOT
BRANCH   1  11
ATOM     11  C   UNL d   1     -46.020  13.329  22.638  0.00  0.00     0.209 C 
ATOM     12  S   UNL d   1     -45.463  13.789  22.240  0.00  0.00    -0.038 SA
BRANCH  11  13
ATOM     13  N   UNL d   1     -45.802  12.606  22.969  0.00  0.00    -0.180 NA
ATOM     14  C   UNL d   1     -45.135  12.209  22.686  0.00  0.00     0.281 C 
ATOM     15  O   UNL d   1     -44.690  12.538  22.074  0.00  0.00    -0.265 OA
BRANCH  14  16
ATOM     16  C   UNL d   1     -44.919  11.483  23.019  0.00  0.00     0.058 A 
ATOM     17  C   UNL d   1     -44.129  11.255  23.014  0.00  0.00     0.005 A 
ATOM     18  C   UNL d   1     -43.908  10.535  23.344  0.00  0.00     0.000 A 
ATOM     19  C   UNL d   1     -44.481  10.045  23.679  0.00  0.00     0.000 A 
ATOM     20  C   UNL d   1     -45.278  10.279  23.682  0.00  0.00     0.000 A 
ATOM     21  C   UNL d   1     -45.493  11.004  23.348  0.00  0.00     0.005 A 
ENDBRANCH  14  16
ENDBRANCH  11  13
ENDBRANCH   1  11
BRANCH   6  22
ATOM     22  O   UNL d   1     -50.248  12.574  22.470  0.00  0.00    -0.326 OA
ATOM     23  C   UNL d   1     -50.120  11.759  22.493  0.00  0.00     0.181 C 
ENDBRANCH   6  22
BRANCH   7  24
ATOM     24  O   UNL d   1     -50.552  14.148  22.853  0.00  0.00    -0.326 OA
ATOM     25  C   UNL d   1     -50.731  14.785  23.342  0.00  0.00     0.181 C 
ENDBRANCH   7  24
TORSDOF 5
ENDMDL
MODEL 4
REMARK VINA RESULT:      -6.4      1.253      5.278
REMARK  5 active torsions:
REMARK  status: ('A' for Active; 'I' for Inactive)
REMARK    1  A    between atoms: N_2  and  C_1 
REMARK    2  A    between atoms: N_3  and  C_1 
REMARK       I    between atoms: C_4  and  N_2 
REMARK    3  A    between atoms: C_15  and  C_4 
REMARK    4  A    between atoms: O_17  and  C_9 
REMARK    5  A    between atoms: O_18  and  C_10 
ROOT
ATOM      1  N   UNL d   1     -47.517  12.717  22.735  0.00  0.00    -0.281 N 
ATOM      2  C   UNL d   1     -48.551  13.713  22.670  0.00  0.00     0.020 A 
ATOM      3  C   UNL d   1     -47.804  13.469  22.923  0.00  0.00     0.082 A 
ATOM      4  C   UNL d   1     -49.019  13.191  22.220  0.00  0.00     0.005 A 
ATOM      5  C   UNL d   1     -48.843  14.460  22.854  0.00  0.00     0.028 A 
ATOM      6  C   UNL d   1     -49.589  14.693  22.598  0.00  0.00     0.116 A 
ATOM      7  C   UNL d   1     -50.052  14.176  22.151  0.00  0.00     0.116 A 
ATOM      8  C   UNL d   1     -49.769  13.427  21.963  0.00  0.00     0.026 A 
ATOM      9  C   UNL d   1     -47.987  12.193  22.282  0.00  0.00     0.082 A 
ATOM     10  C   UNL d   1     -48.742  12.435  22.024  0.00  0.00     0.019 A 
ENDROOT
BRANCH   1  11
ATOM     11  C   UNL d   1     -46.765  12.479  22.992  0.00  0.00     0.209 C 
ATOM     12  S   UNL d   1     -46.689  12.047  23.690  0.00  0.00    -0.038 SA
BRANCH  11  13
ATOM     13  N   UNL d   1     -46.098  12.675  22.549  0.00  0.00    -0.180 NA
ATOM     14  C   UNL d   1     -45.367  12.339  22.738  0.00  0.00     0.281 C 
ATOM     15  O   UNL d   1     -45.308  11.810  23.368  0.00  0.00    -0.265 OA
BRANCH  14  16
ATOM     16  C   UNL d   1     -44.699  12.537  22.292  0.00  0.00     0.058 A 
ATOM     17  C   UNL d   1     -44.725  13.192  21.794  0.00  0.00     0.005 A 
ATOM     18  C   UNL d   1     -44.063  13.394  21.348  0.00  0.00     0.000 A 
ATOM     19  C   UNL d   1     -43.378  12.938  21.403  0.00  0.00     0.000 A 
ATOM     20  C   UNL d   1     -43.356  12.278  21.906  0.00  0.00     0.000 A 
ATOM     21  C   UNL d   1     -44.024  12.081  22.352  0.00  0.00     0.005 A 
ENDBRANCH  14  16
ENDBRANCH  11  13
ENDBRANCH   1  11
BRANCH   6  22
ATOM     22  O   UNL d   1     -49.872  15.441  22.786  0.00  0.00    -0.326 OA
ATOM     23  C   UNL d   1     -49.590  15.834  23.455  0.00  0.00     0.181 C 
ENDBRANCH   6  22
BRANCH   7  24
ATOM     24  O   UNL d   1     -50.804  14.414  21.894  0.00  0.00    -0.326 OA
ATOM     25  C   UNL d   1     -51.064  14.217  21.139  0.00  0.00     0.181 C 
ENDBRANCH   7  24
TORSDOF 5
ENDMDL
MODEL 5
REMARK VINA RESULT:      -6.3      8.413      9.777
REMARK  5 active torsions:
REMARK  status: ('A' for Active; 'I' for Inactive)
REMARK    1  A    between atoms: N_2  and  C_1 
REMARK    2  A    between atoms: N_3  and  C_1 
REMARK       I    between atoms: C_4  and  N_2 
REMARK    3  A    between atoms: C_15  and  C_4 
REMARK    4  A    between atoms: O_17  and  C_9 
REMARK    5  A    between atoms: O_18  and  C_10 
ROOT
ATOM      1  N   UNL d   1     -39.758  15.029  18.670  0.00  0.00    -0.281 N 
ATOM      2  C   UNL d   1     -39.034  14.088  17.859  0.00  0.00     0.020 A 
ATOM      3  C   UNL d   1     -39.380  14.299  18.579  0.00  0.00     0.082 A 
ATOM      4  C   UNL d   1     -39.069  14.620  17.219  0.00  0.00     0.005 A 
ATOM      5  C   UNL d   1     -38.656  13.363  17.762  0.00  0.00     0.028 A 
ATOM      6  C   UNL d   1     -38.315  13.163  17.041  0.00  0.00     0.116 A 
ATOM      7  C   UNL d   1     -38.350  13.690  16.407  0.00  0.00     0.116 A 
ATOM      8  C   UNL d   1     -38.725  14.416  16.495  0.00  0.00     0.026 A 
ATOM      9  C   UNL d   1     -39.793  15.563  18.026  0.00  0.00     0.082 A 
ATOM     10  C   UNL d   1     -39.445  15.354  17.298  0.00  0.00     0.019 A 
ENDROOT
BRANCH   1  11
ATOM     11  C   UNL d   1     -40.103  15.234  19.395  0.00  0.00     0.209 C 
ATOM     12  S   UNL d   1     -40.876  15.522  19.415  0.00  0.00    -0.038 SA
BRANCH  11  13
ATOM     13  N   UNL d   1     -39.673  15.150  20.094  0.00  0.00    -0.180 NA
ATOM     14  C   UNL d   1     -40.054  15.231  20.823  0.00  0.00     0.281 C 
ATOM     15  O   UNL d   1     -40.862  15.396  20.848  0.00  0.00    -0.265 OA
BRANCH  14  16
ATOM     16  C   UNL d   1     -39.620  15.146  21.522  0.00  0.00     0.058 A 
ATOM     17  C   UNL d   1     -39.308  15.813  21.888  0.00  0.00     0.005 A 
ATOM     18  C   UNL d   1     -38.876  15.735  22.583  0.00  0.00     0.000 A 
ATOM     19  C   UNL d   1     -38.758  14.986  22.911  0.00  0.00     0.000 A 
ATOM     20  C   UNL d   1     -39.075  14.315  22.538  0.00  0.00     0.000 A 
ATOM     21  C   UNL d   1     -39.508  14.401  21.839  0.00  0.00     0.005 A 
ENDBRANCH  14  16
ENDBRANCH  11  13
ENDBRANCH   1  11
BRANCH   6  22
ATOM     22  O   UNL d   1     -37.940  12.436  16.953  0.00  0.00    -0.326 OA
ATOM     23  C   UNL d   1     -37.940  11.893  17.574  0.00  0.00     0.181 C 
ENDBRANCH   6  22
BRANCH   7  24
ATOM     24  O   UNL d   1     -38.004  13.484  15.681  0.00  0.00    -0.326 OA
ATOM     25  C   UNL d   1     -37.992  14.025  15.062  0.00  0.00     0.181 C 
ENDBRANCH   7  24
TORSDOF 5
ENDMDL
MODEL 6
REMARK VINA RESULT:      -5.8      8.731     10.001
REMARK  5 active torsions:
REMARK  status: ('A' for Active; 'I' for Inactive)
REMARK    1  A    between atoms: N_2  and  C_1 
REMARK    2  A    between atoms: N_3  and  C_1 
REMARK       I    between atoms: C_4  and  N_2 
REMARK    3  A    between atoms: C_15  and  C_4 
REMARK    4  A    between atoms: O_17  and  C_9 
REMARK    5  A    between atoms: O_18  and  C_10 
ROOT
ATOM      1  N   UNL d   1     -39.344  14.537  19.549  0.00  0.00    -0.281 N 
ATOM      2  C   UNL d   1     -39.466  15.084  18.226  0.00  0.00     0.020 A 
ATOM      3  C   UNL d   1     -38.999  14.812  18.850  0.00  0.00     0.082 A 
ATOM      4  C   UNL d   1     -40.295  15.080  18.305  0.00  0.00     0.005 A 
ATOM      5  C   UNL d   1     -39.129  15.360  17.528  0.00  0.00     0.028 A 
ATOM      6  C   UNL d   1     -39.603  15.629  16.912  0.00  0.00     0.116 A 
ATOM      7  C   UNL d   1     -40.424  15.625  16.991  0.00  0.00     0.116 A 
ATOM      8  C   UNL d   1     -40.770  15.351  17.685  0.00  0.00     0.026 A 
ATOM      9  C   UNL d   1     -40.178  14.533  19.629  0.00  0.00     0.082 A 
ATOM     10  C   UNL d   1     -40.653  14.807  19.001  0.00  0.00     0.019 A 
ENDROOT
BRANCH   1  11
ATOM     11  C   UNL d   1     -38.869  14.265  20.172  0.00  0.00     0.209 C 
ATOM     12  S   UNL d   1     -38.424  13.577  20.078  0.00  0.00    -0.038 SA
BRANCH  11  13
ATOM     13  N   UNL d   1     -38.844  14.682  20.883  0.00  0.00    -0.180 NA
ATOM     14  C   UNL d   1     -38.444  14.364  21.532  0.00  0.00     0.281 C 
ATOM     15  O   UNL d   1     -38.073  13.630  21.467  0.00  0.00    -0.265 OA
BRANCH  14  16
ATOM     16  C   UNL d   1     -38.421  14.785  22.244  0.00  0.00     0.058 A 
ATOM     17  C   UNL d   1     -38.014  15.499  22.278  0.00  0.00     0.005 A 
ATOM     18  C   UNL d   1     -37.987  15.922  22.983  0.00  0.00     0.000 A 
ATOM     19  C   UNL d   1     -38.368  15.627  23.652  0.00  0.00     0.000 A 
ATOM     20  C   UNL d   1     -38.777  14.906  23.614  0.00  0.00     0.000 A 
ATOM     21  C   UNL d   1     -38.801  14.486  22.902  0.00  0.00     0.005 A 
ENDBRANCH  14  16
ENDBRANCH  11  13
ENDBRANCH   1  11
BRANCH   6  22
ATOM     22  O   UNL d   1     -39.257  15.902  16.217  0.00  0.00    -0.326 OA
ATOM     23  C   UNL d   1     -38.490  15.673  16.020  0.00  0.00     0.181 C 
ENDBRANCH   6  22
BRANCH   7  24
ATOM     24  O   UNL d   1     -40.899  15.897  16.367  0.00  0.00    -0.326 OA
ATOM     25  C   UNL d   1     -41.719  15.850  16.421  0.00  0.00     0.181 C 
ENDBRANCH   7  24
TORSDOF 5
ENDMDL
MODEL 7
REMARK VINA RESULT:      -4.3      8.488     10.017
REMARK  5 active torsions:
REMARK  status: ('A' for Active; 'I' for Inactive)
REMARK    1  A    between atoms: N_2  and  C_1 
REMARK    2  A    between atoms: N_3  and  C_1 
REMARK       I    between atoms: C_4  and  N_2 
REMARK    3  A    between atoms: C_15  and  C_4 
REMARK    4  A    between atoms: O_17  and  C_9 
REMARK    5  A    between atoms: O_18  and  C_10 
ROOT
ATOM      1  N   UNL d   1     -39.561  14.281  19.055  0.00  0.00    -0.281 N 
ATOM      2  C   UNL d   1     -39.469  14.752  17.701  0.00  0.00     0.020 A 
ATOM      3  C   UNL d   1     -39.746  14.839  18.473  0.00  0.00     0.082 A 
ATOM      4  C   UNL d   1     -38.996  14.093  17.509  0.00  0.00     0.005 A 
ATOM      5  C   UNL d   1     -39.649  15.303  17.117  0.00  0.00     0.028 A 
ATOM      6  C   UNL d   1     -39.368  15.208  16.350  0.00  0.00     0.116 A 
ATOM      7  C   UNL d   1     -38.900  14.556  16.160  0.00  0.00     0.116 A 
ATOM      8  C   UNL d   1     -38.715  13.999  16.737  0.00  0.00     0.026 A 
ATOM      9  C   UNL d   1     -39.087  13.619  18.862  0.00  0.00     0.082 A 
ATOM     10  C   UNL d   1     -38.804  13.528  18.083  0.00  0.00     0.019 A 
ENDROOT
BRANCH   1  11
ATOM     11  C   UNL d   1     -39.843  14.374  19.830  0.00  0.00     0.209 C 
ATOM     12  S   UNL d   1     -40.635  14.568  19.957  0.00  0.00    -0.038 SA
BRANCH  11  13
ATOM     13  N   UNL d   1     -39.332  14.271  20.469  0.00  0.00    -0.180 NA
ATOM     14  C   UNL d   1     -39.634  14.258  21.238  0.00  0.00     0.281 C 
ATOM     15  O   UNL d   1     -40.444  14.348  21.363  0.00  0.00    -0.265 OA
BRANCH  14  16
ATOM     16  C   UNL d   1     -39.119  14.156  21.877  0.00  0.00     0.058 A 
ATOM     17  C   UNL d   1     -39.159  13.465  22.322  0.00  0.00     0.005 A 
ATOM     18  C   UNL d   1     -38.649  13.357  22.958  0.00  0.00     0.000 A 
ATOM     19  C   UNL d   1     -38.100  13.943  23.148  0.00  0.00     0.000 A 
ATOM     20  C   UNL d   1     -38.063  14.639  22.696  0.00  0.00     0.000 A 
ATOM     21  C   UNL d   1     -38.578  14.741  22.058  0.00  0.00     0.005 A 
ENDBRANCH  14  16
ENDBRANCH  11  13
ENDBRANCH   1  11
BRANCH   6  22
ATOM     22  O   UNL d   1     -39.553  15.764  15.773  0.00  0.00    -0.326 OA
ATOM     23  C   UNL d   1     -40.342  15.915  15.583  0.00  0.00     0.181 C 
ENDBRANCH   6  22
BRANCH   7  24
ATOM     24  O   UNL d   1     -38.618  14.463  15.385  0.00  0.00    -0.326 OA
ATOM     25  C   UNL d   1     -37.940  14.019  15.243  0.00  0.00     0.181 C 
ENDBRANCH   7  24
TORSDOF 5
ENDMDL
MODEL 8
REMARK VINA RESULT:      -4.1      6.257      8.910
REMARK  5 active torsions:
REMARK  status: ('A' for Active; 'I' for Inactive)
REMARK    1  A    between atoms: N_2  and  C_1 
REMARK    2  A    between atoms: N_3  and  C_1 
REMARK       I    between atoms: C_4  and  N_2 
REMARK    3  A    between atoms: C_15  and  C_4 
REMARK    4  A    between atoms: O_17  and  C_9 
REMARK    5  A    between atoms: O_18  and  C_10 
ROOT
ATOM      1  N   UNL d   1     -39.940  14.882  18.841  0.00  0.00    -0.281 N 
ATOM      2  C   UNL d   1     -39.150  14.050  17.977  0.00  0.00     0.020 A 
ATOM      3  C   UNL d   1     -39.513  14.187  18.705  0.00  0.00     0.082 A 
ATOM      4  C   UNL d   1     -39.217  14.621  17.373  0.00  0.00     0.005 A 
ATOM      5  C   UNL d   1     -38.723  13.361  17.835  0.00  0.00     0.028 A 
ATOM      6  C   UNL d   1     -38.365  13.234  17.105  0.00  0.00     0.116 A 
ATOM      7  C   UNL d   1     -38.432  13.799  16.508  0.00  0.00     0.116 A 
ATOM      8  C   UNL d   1     -38.857  14.490  16.641  0.00  0.00     0.026 A 
ATOM      9  C   UNL d   1     -40.008  15.455  18.235  0.00  0.00     0.082 A 
ATOM     10  C   UNL d   1     -39.643  15.320  17.498  0.00  0.00     0.019 A 
ENDROOT
BRANCH   1  11
ATOM     11  C   UNL d   1     -40.303  15.014  19.576  0.00  0.00     0.209 C 
ATOM     12  S   UNL d   1     -40.200  15.737  19.960  0.00  0.00    -0.038 SA
BRANCH  11  13
ATOM     13  N   UNL d   1     -40.764  14.423  19.919  0.00  0.00    -0.180 NA
ATOM     14  C   UNL d   1     -41.229  14.596  20.579  0.00  0.00     0.281 C 
ATOM     15  O   UNL d   1     -41.229  15.359  20.893  0.00  0.00    -0.265 OA
BRANCH  14  16
ATOM     16  C   UNL d   1     -41.691  14.001  20.922  0.00  0.00     0.058 A 
ATOM     17  C   UNL d   1     -41.348  13.484  21.462  0.00  0.00     0.005 A 
ATOM     18  C   UNL d   1     -41.803  12.890  21.805  0.00  0.00     0.000 A 
ATOM     19  C   UNL d   1     -42.600  12.817  21.606  0.00  0.00     0.000 A 
ATOM     20  C   UNL d   1     -42.942  13.342  21.061  0.00  0.00     0.000 A 
ATOM     21  C   UNL d   1     -42.480  13.936  20.719  0.00  0.00     0.005 A 
ENDBRANCH  14  16
ENDBRANCH  11  13
ENDBRANCH   1  11
BRANCH   6  22
ATOM     22  O   UNL d   1     -37.940  12.542  16.972  0.00  0.00    -0.326 OA
ATOM     23  C   UNL d   1     -37.940  11.942  17.538  0.00  0.00     0.181 C 
ENDBRANCH   6  22
BRANCH   7  24
ATOM     24  O   UNL d   1     -38.069  13.667  15.773  0.00  0.00    -0.326 OA
ATOM     25  C   UNL d   1     -38.141  14.223  15.171  0.00  0.00     0.181 C 
ENDBRANCH   7  24
TORSDOF 5
ENDMDL
