MODEL 1
REMARK VINA RESULT:      40.0      0.000      0.000
REMARK  9 active torsions:
REMARK  status: ('A' for Active; 'I' for Inactive)
REMARK    1  A    between atoms: C_6  and  N_1 
REMARK    2  A    between atoms: C_2  and  O_5 
REMARK    3  A    between atoms: C_8  and  C_3 
REMARK    4  A    between atoms: C_4  and  C_9 
REMARK    5  A    between atoms: O_5  and  C_4 
REMARK    6  A    between atoms: C_7  and  C_8 
REMARK    7  A    between atoms: C_13  and  C_7 
REMARK    8  A    between atoms: C_10  and  C_13 
REMARK    9  A    between atoms: O_25  and  C_23 
ROOT
ATOM      1  C   UNL d   1      46.229 -18.077  43.265  0.00  0.00     0.108 A 
ATOM      2  C   UNL d   1      46.247 -17.537  43.889  0.00  0.00     0.062 A 
ATOM      3  C   UNL d   1      46.329 -18.890  43.417  0.00  0.00     0.049 A 
ATOM      4  C   UNL d   1      46.365 -17.808  44.668  0.00  0.00     0.007 A 
ATOM      5  C   UNL d   1      46.446 -19.154  44.191  0.00  0.00     0.096 A 
ATOM      6  C   UNL d   1      46.464 -18.614  44.815  0.00  0.00     0.024 A 
ENDROOT
BRANCH   1   7
ATOM      7  O   UNL d   1      46.112 -17.815  42.488  0.00  0.00    -0.273 OA
BRANCH   7   8
ATOM      8  C   UNL d   1      45.665 -18.273  41.964  0.00  0.00     0.300 C 
ATOM      9  O   UNL d   1      45.087 -18.785  42.247  0.00  0.00    -0.259 OA
BRANCH   8  10
ATOM     10  C   UNL d   1      45.804 -18.212  41.154  0.00  0.00     0.065 A 
ATOM     11  C   UNL d   1      45.220 -17.891  40.669  0.00  0.00     0.029 A 
ATOM     12  C   UNL d   1      45.355 -17.830  39.862  0.00  0.00     0.127 A 
ATOM     13  C   UNL d   1      46.073 -18.087  39.541  0.00  0.00     0.024 A 
ATOM     14  C   UNL d   1      46.646 -18.404  40.032  0.00  0.00     0.002 A 
ATOM     15  C   UNL d   1      46.512 -18.467  40.836  0.00  0.00     0.005 A 
BRANCH  12  16
ATOM     16  N   UNL d   1      44.772 -17.509  39.373  0.00  0.00    -0.114 N 
ATOM     17  O   UNL d   1      44.076 -17.216  39.702  0.00  0.00    -0.532 OA
ATOM     18  O   UNL d   1      44.886 -17.481  38.546  0.00  0.00    -0.532 OA
ENDBRANCH  12  16
ENDBRANCH   8  10
ENDBRANCH   7   8
ENDBRANCH   1   7
BRANCH   2  19
ATOM     19  C   UNL d   1      46.148 -16.727  43.739  0.00  0.00     0.198 C 
ATOM     20  O   UNL d   1      46.432 -16.400  43.036  0.00  0.00    -0.286 OA
BRANCH  19  21
ATOM     21  C   UNL d   1      45.765 -16.250  44.293  0.00  0.00     0.043 C 
BRANCH  21  22
ATOM     22  C   UNL d   1      46.049 -15.491  44.447  0.00  0.00     0.010 C 
BRANCH  22  23
ATOM     23  C   UNL d   1      45.518 -14.872  44.572  0.00  0.00     0.030 A 
ATOM     24  S   UNL d   1      44.707 -14.939  44.722  0.00  0.00    -0.086 SA
ATOM     25  C   UNL d   1      44.392 -14.182  44.813  0.00  0.00     0.035 A 
ATOM     26  C   UNL d   1      45.005 -13.637  44.720  0.00  0.00     0.007 A 
ATOM     27  C   UNL d   1      45.701 -14.062  44.572  0.00  0.00     0.007 A 
ENDBRANCH  22  23
ENDBRANCH  21  22
ENDBRANCH  19  21
ENDBRANCH   2  19
BRANCH   5  28
ATOM     28  O   UNL d   1      46.545 -19.960  44.338  0.00  0.00    -0.328 OA
ATOM     29  C   UNL d   1      46.125 -20.323  44.953  0.00  0.00     0.181 C 
ENDBRANCH   5  28
TORSDOF 9
ENDMDL
