MODEL 1
REMARK VINA RESULT:      -0.2      0.000      0.000
REMARK  4 active torsions:
REMARK  status: ('A' for Active; 'I' for Inactive)
REMARK    1  A    between atoms: N_7  and  C_1 
REMARK    2  A    between atoms: C_9  and  N_3 
REMARK       I    between atoms: C_11  and  N_7 
REMARK    3  A    between atoms: C_15  and  C_11 
REMARK    4  A    between atoms: C_17  and  C_15 
ROOT
ATOM      1  C   UNL d   1      32.119  18.194 -24.724  0.00  0.00     0.169 A 
ATOM      2  C   UNL d   1      32.286  19.007 -24.780  0.00  0.00     0.065 A 
ATOM      3  N   UNL d   1      32.704  17.838 -24.259  0.00  0.00    -0.212 N 
ATOM      4  N   UNL d   1      33.235  18.430 -24.026  0.00  0.00    -0.163 NA
ATOM      5  C   UNL d   1      32.976  19.150 -24.348  0.00  0.00     0.114 A 
ATOM      6  S   UNL d   1      32.567  20.315 -24.862  0.00  0.00     0.091 S 
ATOM      7  C   UNL d   1      33.152  19.959 -24.397  0.00  0.00     0.090 A 
ATOM      8  C   UNL d   1      32.033  19.724 -25.097  0.00  0.00     0.073 A 
ATOM      9  O   UNL d   1      32.519  21.120 -25.059  0.00  0.00    -0.247 OA
ENDROOT
BRANCH   1  10
ATOM     10  N   UNL d   1      31.473  17.810 -25.076  0.00  0.00    -0.189 NA
ATOM     11  C   UNL d   1      30.725  17.864 -24.746  0.00  0.00     0.281 C 
ATOM     12  O   UNL d   1      30.606  18.309 -24.047  0.00  0.00    -0.265 OA
BRANCH  11  13
ATOM     13  C   UNL d   1      30.081  17.483 -25.094  0.00  0.00     0.063 C 
BRANCH  13  14
ATOM     14  C   UNL d   1      29.448  17.251 -24.624  0.00  0.00     0.005 A 
ATOM     15  C   UNL d   1      29.409  16.476 -24.349  0.00  0.00     0.003 A 
ATOM     16  C   UNL d   1      28.775  16.240 -23.877  0.00  0.00     0.030 A 
ATOM     17  C   UNL d   1      28.179  16.781 -23.680  0.00  0.00     0.140 A 
ATOM     18  C   UNL d   1      28.225  17.553 -23.958  0.00  0.00     0.030 A 
ATOM     19  F   UNL d   1      27.544  16.546 -23.207  0.00  0.00    -0.204 F 
ATOM     20  C   UNL d   1      28.858  17.791 -24.429  0.00  0.00     0.003 A 
ENDBRANCH  13  14
ENDBRANCH  11  13
ENDBRANCH   1  10
BRANCH   3  21
ATOM     21  C   UNL d   1      32.753  17.037 -24.061  0.00  0.00     0.085 A 
ATOM     22  C   UNL d   1      32.624  16.804 -23.280  0.00  0.00     0.031 A 
ATOM     23  C   UNL d   1      32.675  16.015 -23.093  0.00  0.00     0.059 A 
ATOM     24 CL   UNL d   1      32.548  15.773 -22.321  0.00  0.00    -0.082 Cl
ATOM     25  C   UNL d   1      32.851  15.454 -23.672  0.00  0.00     0.011 A 
ATOM     26  C   UNL d   1      32.979  15.686 -24.444  0.00  0.00     0.002 A 
ATOM     27  C   UNL d   1      32.930  16.485 -24.643  0.00  0.00     0.019 A 
ENDBRANCH   3  21
TORSDOF 4
ENDMDL
MODEL 2
REMARK VINA RESULT:       0.2      2.066      3.600
REMARK  4 active torsions:
REMARK  status: ('A' for Active; 'I' for Inactive)
REMARK    1  A    between atoms: N_7  and  C_1 
REMARK    2  A    between atoms: C_9  and  N_3 
REMARK       I    between atoms: C_11  and  N_7 
REMARK    3  A    between atoms: C_15  and  C_11 
REMARK    4  A    between atoms: C_17  and  C_15 
ROOT
ATOM      1  C   UNL d   1      31.249  17.789 -24.614  0.00  0.00     0.169 A 
ATOM      2  C   UNL d   1      30.474  18.067 -24.738  0.00  0.00     0.065 A 
ATOM      3  N   UNL d   1      31.225  16.963 -24.563  0.00  0.00    -0.212 N 
ATOM      4  N   UNL d   1      30.435  16.728 -24.656  0.00  0.00    -0.163 NA
ATOM      5  C   UNL d   1      29.974  17.409 -24.764  0.00  0.00     0.114 A 
ATOM      6  S   UNL d   1      29.222  18.501 -24.938  0.00  0.00     0.091 S 
ATOM      7  C   UNL d   1      29.198  17.675 -24.887  0.00  0.00     0.090 A 
ATOM      8  C   UNL d   1      30.012  18.740 -24.845  0.00  0.00     0.073 A 
ATOM      9  O   UNL d   1      28.573  19.003 -25.059  0.00  0.00    -0.247 OA
ENDROOT
BRANCH   1  10
ATOM     10  N   UNL d   1      31.926  18.263 -24.552  0.00  0.00    -0.189 NA
ATOM     11  C   UNL d   1      32.042  18.740 -23.895  0.00  0.00     0.281 C 
ATOM     12  O   UNL d   1      31.475  18.751 -23.279  0.00  0.00    -0.265 OA
BRANCH  11  13
ATOM     13  C   UNL d   1      32.715  19.213 -23.830  0.00  0.00     0.063 C 
BRANCH  13  14
ATOM     14  C   UNL d   1      32.846  19.635 -23.137  0.00  0.00     0.005 A 
ATOM     15  C   UNL d   1      33.070  19.235 -22.454  0.00  0.00     0.003 A 
ATOM     16  C   UNL d   1      33.202  19.656 -21.757  0.00  0.00     0.030 A 
ATOM     17  C   UNL d   1      33.109  20.480 -21.744  0.00  0.00     0.140 A 
ATOM     18  C   UNL d   1      32.884  20.872 -22.430  0.00  0.00     0.030 A 
ATOM     19  F   UNL d   1      33.240  20.902 -21.046  0.00  0.00    -0.204 F 
ATOM     20  C   UNL d   1      32.752  20.453 -23.127  0.00  0.00     0.003 A 
ENDBRANCH  13  14
ENDBRANCH  11  13
ENDBRANCH   1  10
BRANCH   3  21
ATOM     21  C   UNL d   1      31.870  16.460 -24.442  0.00  0.00     0.085 A 
ATOM     22  C   UNL d   1      32.065  16.230 -23.674  0.00  0.00     0.031 A 
ATOM     23  C   UNL d   1      32.701  15.736 -23.563  0.00  0.00     0.059 A 
ATOM     24 CL   UNL d   1      32.904  15.502 -22.805  0.00  0.00    -0.082 Cl
ATOM     25  C   UNL d   1      33.145  15.468 -24.204  0.00  0.00     0.011 A 
ATOM     26  C   UNL d   1      32.950  15.696 -24.964  0.00  0.00     0.002 A 
ATOM     27  C   UNL d   1      32.306  16.198 -25.085  0.00  0.00     0.019 A 
ENDBRANCH   3  21
TORSDOF 4
ENDMDL
MODEL 3
REMARK VINA RESULT:       1.9      3.270      4.623
REMARK  4 active torsions:
REMARK  status: ('A' for Active; 'I' for Inactive)
REMARK    1  A    between atoms: N_7  and  C_1 
REMARK    2  A    between atoms: C_9  and  N_3 
REMARK       I    between atoms: C_11  and  N_7 
REMARK    3  A    between atoms: C_15  and  C_11 
REMARK    4  A    between atoms: C_17  and  C_15 
ROOT
ATOM      1  C   UNL d   1      33.122  20.405 -23.294  0.00  0.00     0.169 A 
ATOM      2  C   UNL d   1      33.138  21.098 -23.756  0.00  0.00     0.065 A 
ATOM      3  N   UNL d   1      32.969  19.763 -23.793  0.00  0.00    -0.212 N 
ATOM      4  N   UNL d   1      32.889  20.056 -24.564  0.00  0.00    -0.163 NA
ATOM      5  C   UNL d   1      32.994  20.879 -24.539  0.00  0.00     0.114 A 
ATOM      6  S   UNL d   1      33.160  22.206 -24.510  0.00  0.00     0.091 S 
ATOM      7  C   UNL d   1      33.007  21.563 -25.009  0.00  0.00     0.090 A 
ATOM      8  C   UNL d   1      33.241  21.915 -23.736  0.00  0.00     0.073 A 
ATOM      9  O   UNL d   1      33.223  23.000 -24.740  0.00  0.00    -0.247 OA
ENDROOT
BRANCH   1  10
ATOM     10  N   UNL d   1      33.241  20.371 -22.474  0.00  0.00    -0.189 NA
ATOM     11  C   UNL d   1      32.744  20.777 -21.964  0.00  0.00     0.281 C 
ATOM     12  O   UNL d   1      32.111  21.232 -22.268  0.00  0.00    -0.265 OA
BRANCH  11  13
ATOM     13  C   UNL d   1      32.860  20.744 -21.147  0.00  0.00     0.063 C 
BRANCH  13  14
ATOM     14  C   UNL d   1      32.655  21.393 -20.685  0.00  0.00     0.005 A 
ATOM     15  C   UNL d   1      33.237  21.788 -20.259  0.00  0.00     0.003 A 
ATOM     16  C   UNL d   1      33.034  22.439 -19.794  0.00  0.00     0.030 A 
ATOM     17  C   UNL d   1      32.247  22.695 -19.757  0.00  0.00     0.140 A 
ATOM     18  C   UNL d   1      31.671  22.295 -20.186  0.00  0.00     0.030 A 
ATOM     19  F   UNL d   1      32.043  23.346 -19.293  0.00  0.00    -0.204 F 
ATOM     20  C   UNL d   1      31.872  21.645 -20.651  0.00  0.00     0.003 A 
ENDBRANCH  13  14
ENDBRANCH  11  13
ENDBRANCH   1  10
BRANCH   3  21
ATOM     21  C   UNL d   1      32.906  18.971 -23.566  0.00  0.00     0.085 A 
ATOM     22  C   UNL d   1      32.563  18.427 -24.085  0.00  0.00     0.031 A 
ATOM     23  C   UNL d   1      32.505  17.650 -23.854  0.00  0.00     0.059 A 
ATOM     24 CL   UNL d   1      32.167  17.102 -24.361  0.00  0.00    -0.082 Cl
ATOM     25  C   UNL d   1      32.782  17.405 -23.117  0.00  0.00     0.011 A 
ATOM     26  C   UNL d   1      33.121  17.944 -22.605  0.00  0.00     0.002 A 
ATOM     27  C   UNL d   1      33.184  18.735 -22.831  0.00  0.00     0.019 A 
ENDBRANCH   3  21
TORSDOF 4
ENDMDL
