MODEL 1
REMARK VINA RESULT:      18.0      0.000      0.000
REMARK  6 active torsions:
REMARK  status: ('A' for Active; 'I' for Inactive)
REMARK    1  A    between atoms: C_6  and  N_1 
REMARK    2  A    between atoms: C_12  and  C_6 
REMARK    3  A    between atoms: O_18  and  C_7 
REMARK    4  A    between atoms: O_19  and  C_10 
REMARK    5  A    between atoms: C_21  and  O_19 
REMARK    6  A    between atoms: C_23  and  C_21 
ROOT
ATOM      1  C   UNL d   1      45.085 -15.071  44.870  0.00  0.00     0.117 A 
ATOM      2  C   UNL d   1      45.747 -14.573  44.900  0.00  0.00     0.122 A 
ATOM      3  C   UNL d   1      45.192 -15.883  44.848  0.00  0.00     0.028 A 
ATOM      4  C   UNL d   1      45.944 -16.201  44.857  0.00  0.00     0.020 A 
ATOM      5  C   UNL d   1      46.503 -14.895  44.909  0.00  0.00     0.027 A 
ATOM      6  C   UNL d   1      46.601 -15.715  44.888  0.00  0.00     0.004 A 
ENDROOT
BRANCH   4   7
ATOM      7  C   UNL d   1      46.042 -17.019  44.836  0.00  0.00     0.085 C 
BRANCH   7   8
ATOM      8  N   UNL d   1      46.196 -17.395  44.117  0.00  0.00    -0.251 N 
ATOM      9  C   UNL d   1      46.242 -17.064  43.352  0.00  0.00     0.378 A 
ATOM     10  O   UNL d   1      46.409 -17.673  42.817  0.00  0.00    -0.258 OA
ATOM     11  O   UNL d   1      46.137 -16.268  43.171  0.00  0.00    -0.237 OA
ATOM     12  C   UNL d   1      46.468 -18.380  43.247  0.00  0.00     0.121 A 
ATOM     13  C   UNL d   1      46.336 -18.209  44.050  0.00  0.00     0.092 A 
ATOM     14  C   UNL d   1      46.623 -19.160  43.020  0.00  0.00     0.026 A 
ATOM     15  C   UNL d   1      46.359 -18.805  44.614  0.00  0.00     0.020 A 
ATOM     16  C   UNL d   1      46.515 -19.580  44.377  0.00  0.00     0.002 A 
ATOM     17  C   UNL d   1      46.646 -19.757  43.584  0.00  0.00     0.002 A 
ATOM     18  C   UNL d   1      46.537 -20.179  44.950  0.00  0.00     0.000 C 
ENDBRANCH   7   8
ENDBRANCH   4   7
BRANCH   1  19
ATOM     19  O   UNL d   1      44.334 -14.750  44.861  0.00  0.00    -0.326 OA
ATOM     20  C   UNL d   1      43.825 -15.397  44.915  0.00  0.00     0.181 C 
ENDBRANCH   1  19
BRANCH   2  21
ATOM     21  O   UNL d   1      45.645 -13.758  44.922  0.00  0.00    -0.303 OA
BRANCH  21  22
ATOM     22  C   UNL d   1      45.658 -13.329  44.226  0.00  0.00     0.123 C 
BRANCH  22  23
ATOM     23  C   UNL d   1      45.461 -12.527  44.230  0.00  0.00     0.027 C 
ATOM     24  C   UNL d   1      45.338 -12.129  43.521  0.00  0.00     0.002 C 
ENDBRANCH  22  23
ENDBRANCH  21  22
ENDBRANCH   2  21
TORSDOF 6
ENDMDL
