MODEL 1
REMARK VINA RESULT:      20.4      0.000      0.000
REMARK  2 active torsions:
REMARK  status: ('A' for Active; 'I' for Inactive)
REMARK    1  A    between atoms: C_6  and  C_1 
REMARK       I    between atoms: N_12  and  C_6 
REMARK    2  A    between atoms: O_15  and  C_13 
ROOT
ATOM      1  C   UNL d   1      58.141  49.659  50.652  0.00  0.00     0.101 A 
ATOM      2  C   UNL d   1      58.520  49.671  49.925  0.00  0.00     0.208 A 
ATOM      3  C   UNL d   1      58.592  49.662  51.344  0.00  0.00     0.011 A 
ATOM      4  O   UNL d   1      59.350  49.686  49.877  0.00  0.00    -0.288 OA
ATOM      5  C   UNL d   1      59.423  49.677  51.292  0.00  0.00     0.025 A 
ATOM      6  C   UNL d   1      59.789  49.689  50.581  0.00  0.00     0.102 A 
ATOM      7  N   UNL d   1      58.064  49.667  49.253  0.00  0.00    -0.121 N 
ATOM      8  C   UNL d   1      59.855  49.680  52.001  0.00  0.00     0.026 A 
ATOM      9  C   UNL d   1      60.618  49.705  50.510  0.00  0.00     0.027 A 
ATOM     10  C   UNL d   1      60.687  49.695  51.933  0.00  0.00     0.094 A 
ATOM     11  C   UNL d   1      61.055  49.707  51.218  0.00  0.00     0.026 A 
ENDROOT
BRANCH   1  12
ATOM     12  C   UNL d   1      57.319  49.643  50.686  0.00  0.00     0.283 C 
ATOM     13  O   UNL d   1      56.955  49.633  51.367  0.00  0.00    -0.265 OA
ATOM     14  N   UNL d   1      56.850  49.638  50.015  0.00  0.00    -0.205 NA
ATOM     15  C   UNL d   1      56.035  49.623  50.066  0.00  0.00     0.123 C 
ENDBRANCH   1  12
BRANCH  10  16
ATOM     16  O   UNL d   1      61.164  49.699  52.554  0.00  0.00    -0.328 OA
ATOM     17  C   UNL d   1      62.014  49.697  52.570  0.00  0.00     0.181 C 
ENDBRANCH  10  16
TORSDOF 2
ENDMDL
