MODEL 1
REMARK VINA RESULT:      -7.6      0.000      0.000
REMARK  4 active torsions:
REMARK  status: ('A' for Active; 'I' for Inactive)
REMARK    1  A    between atoms: C_6  and  C_2 
REMARK    2  A    between atoms: C_8  and  C_6 
REMARK    3  A    between atoms: C_7  and  C_9 
REMARK    4  A    between atoms: C_9  and  C_8 
ROOT
ATOM      1  C   UNL d   1      54.216  32.820  54.011  0.00  0.00     0.006 C 
ENDROOT
BRANCH   1   2
ATOM      2  C   UNL d   1      54.012  33.535  54.357  0.00  0.00     0.039 A 
ATOM      3  C   UNL d   1      54.302  33.931  55.019  0.00  0.00     0.103 A 
ATOM      4  N   UNL d   1      53.880  34.633  55.100  0.00  0.00    -0.165 NA
ATOM      5  C   UNL d   1      54.915  33.629  55.484  0.00  0.00     0.022 C 
ATOM      6  N   UNL d   1      53.334  34.670  54.494  0.00  0.00    -0.225 N 
ATOM      7  C   UNL d   1      53.412  33.994  54.034  0.00  0.00     0.102 A 
ATOM      8  C   UNL d   1      52.798  35.286  54.374  0.00  0.00     0.121 C 
ENDBRANCH   1   2
BRANCH   1   9
ATOM      9  C   UNL d   1      53.632  32.267  53.828  0.00  0.00     0.043 C 
BRANCH   9  10
ATOM     10  C   UNL d   1      53.838  31.554  53.452  0.00  0.00     0.202 C 
ATOM     11  O   UNL d   1      54.606  31.441  53.186  0.00  0.00    -0.286 OA
BRANCH  10  12
ATOM     12  C   UNL d   1      53.264  30.960  53.346  0.00  0.00     0.068 A 
ATOM     13  S   UNL d   1      52.509  30.771  53.084  0.00  0.00    -0.083 SA
ATOM     14  C   UNL d   1      52.391  29.964  53.206  0.00  0.00     0.035 A 
ATOM     15  C   UNL d   1      53.077  29.653  53.545  0.00  0.00     0.008 A 
ATOM     16  C   UNL d   1      53.620  30.273  53.633  0.00  0.00     0.010 A 
ENDBRANCH  10  12
ENDBRANCH   9  10
ENDBRANCH   1   9
TORSDOF 4
ENDMDL
MODEL 2
REMARK VINA RESULT:      -7.4      1.480      1.873
REMARK  4 active torsions:
REMARK  status: ('A' for Active; 'I' for Inactive)
REMARK    1  A    between atoms: C_6  and  C_2 
REMARK    2  A    between atoms: C_8  and  C_6 
REMARK    3  A    between atoms: C_7  and  C_9 
REMARK    4  A    between atoms: C_9  and  C_8 
ROOT
ATOM      1  C   UNL d   1      52.930  33.299  53.281  0.00  0.00     0.006 C 
ENDROOT
BRANCH   1   2
ATOM      2  C   UNL d   1      52.334  33.861  53.237  0.00  0.00     0.039 A 
ATOM      3  C   UNL d   1      52.299  34.649  53.475  0.00  0.00     0.103 A 
ATOM      4  N   UNL d   1      51.552  34.938  53.288  0.00  0.00    -0.165 NA
ATOM      5  C   UNL d   1      52.937  35.033  53.835  0.00  0.00     0.022 C 
ATOM      6  N   UNL d   1      51.129  34.334  52.938  0.00  0.00    -0.225 N 
ATOM      7  C   UNL d   1      51.608  33.668  52.905  0.00  0.00     0.102 A 
ATOM      8  C   UNL d   1      50.351  34.394  52.666  0.00  0.00     0.121 C 
ENDBRANCH   1   2
BRANCH   1   9
ATOM      9  C   UNL d   1      52.745  32.496  53.245  0.00  0.00     0.043 C 
BRANCH   9  10
ATOM     10  C   UNL d   1      53.345  31.927  53.338  0.00  0.00     0.202 C 
ATOM     11  O   UNL d   1      54.117  32.168  53.478  0.00  0.00    -0.286 OA
BRANCH  10  12
ATOM     12  C   UNL d   1      53.159  31.117  53.287  0.00  0.00     0.068 A 
ATOM     13  S   UNL d   1      52.692  30.538  52.939  0.00  0.00    -0.083 SA
ATOM     14  C   UNL d   1      52.912  29.808  53.256  0.00  0.00     0.035 A 
ATOM     15  C   UNL d   1      53.517  29.938  53.802  0.00  0.00     0.008 A 
ATOM     16  C   UNL d   1      53.671  30.752  53.822  0.00  0.00     0.010 A 
ENDBRANCH  10  12
ENDBRANCH   9  10
ENDBRANCH   1   9
TORSDOF 4
ENDMDL
MODEL 3
REMARK VINA RESULT:      -7.4      2.187      4.025
REMARK  4 active torsions:
REMARK  status: ('A' for Active; 'I' for Inactive)
REMARK    1  A    between atoms: C_6  and  C_2 
REMARK    2  A    between atoms: C_8  and  C_6 
REMARK    3  A    between atoms: C_7  and  C_9 
REMARK    4  A    between atoms: C_9  and  C_8 
ROOT
ATOM      1  C   UNL d   1      53.821  31.192  53.470  0.00  0.00     0.006 C 
ENDROOT
BRANCH   1   2
ATOM      2  C   UNL d   1      53.475  30.463  53.620  0.00  0.00     0.039 A 
ATOM      3  C   UNL d   1      52.894  30.036  53.221  0.00  0.00     0.103 A 
ATOM      4  N   UNL d   1      52.769  29.335  53.632  0.00  0.00    -0.165 NA
ATOM      5  C   UNL d   1      52.533  30.314  52.531  0.00  0.00     0.022 C 
ATOM      6  N   UNL d   1      53.268  29.328  54.278  0.00  0.00    -0.225 N 
ATOM      7  C   UNL d   1      53.705  30.023  54.274  0.00  0.00     0.102 A 
ATOM      8  C   UNL d   1      53.316  28.721  54.835  0.00  0.00     0.121 C 
ENDBRANCH   1   2
BRANCH   1   9
ATOM      9  C   UNL d   1      53.794  31.788  54.040  0.00  0.00     0.043 C 
BRANCH   9  10
ATOM     10  C   UNL d   1      54.183  32.511  53.905  0.00  0.00     0.202 C 
ATOM     11  O   UNL d   1      54.794  32.548  53.358  0.00  0.00    -0.286 OA
BRANCH  10  12
ATOM     12  C   UNL d   1      53.950  33.191  54.324  0.00  0.00     0.068 A 
ATOM     13  S   UNL d   1      53.346  33.721  54.497  0.00  0.00    -0.083 SA
ATOM     14  C   UNL d   1      53.643  34.284  55.022  0.00  0.00     0.035 A 
ATOM     15  C   UNL d   1      54.433  34.101  55.174  0.00  0.00     0.008 A 
ATOM     16  C   UNL d   1      54.625  33.421  54.740  0.00  0.00     0.010 A 
ENDBRANCH  10  12
ENDBRANCH   9  10
ENDBRANCH   1   9
TORSDOF 4
ENDMDL
MODEL 4
REMARK VINA RESULT:      -7.1      2.555      3.597
REMARK  4 active torsions:
REMARK  status: ('A' for Active; 'I' for Inactive)
REMARK    1  A    between atoms: C_6  and  C_2 
REMARK    2  A    between atoms: C_8  and  C_6 
REMARK    3  A    between atoms: C_7  and  C_9 
REMARK    4  A    between atoms: C_9  and  C_8 
ROOT
ATOM      1  C   UNL d   1      53.083  33.246  53.422  0.00  0.00     0.006 C 
ENDROOT
BRANCH   1   2
ATOM      2  C   UNL d   1      53.359  32.511  53.661  0.00  0.00     0.039 A 
ATOM      3  C   UNL d   1      53.850  32.281  54.282  0.00  0.00     0.103 A 
ATOM      4  N   UNL d   1      53.935  31.464  54.249  0.00  0.00    -0.165 NA
ATOM      5  C   UNL d   1      54.174  32.822  54.816  0.00  0.00     0.022 C 
ATOM      6  N   UNL d   1      53.500  31.191  53.613  0.00  0.00    -0.225 N 
ATOM      7  C   UNL d   1      53.143  31.834  53.249  0.00  0.00     0.102 A 
ATOM      8  C   UNL d   1      53.436  30.400  53.385  0.00  0.00     0.121 C 
ENDBRANCH   1   2
BRANCH   1   9
ATOM      9  C   UNL d   1      52.313  33.326  53.137  0.00  0.00     0.043 C 
BRANCH   9  10
ATOM     10  C   UNL d   1      52.032  34.073  52.902  0.00  0.00     0.202 C 
ATOM     11  O   UNL d   1      52.566  34.676  52.742  0.00  0.00    -0.286 OA
BRANCH  10  12
ATOM     12  C   UNL d   1      51.214  34.205  52.830  0.00  0.00     0.068 A 
ATOM     13  S   UNL d   1      50.495  34.302  53.216  0.00  0.00    -0.083 SA
ATOM     14  C   UNL d   1      49.911  34.417  52.645  0.00  0.00     0.035 A 
ATOM     15  C   UNL d   1      50.271  34.389  51.902  0.00  0.00     0.008 A 
ATOM     16  C   UNL d   1      51.081  34.258  52.017  0.00  0.00     0.010 A 
ENDBRANCH  10  12
ENDBRANCH   9  10
ENDBRANCH   1   9
TORSDOF 4
ENDMDL
MODEL 5
REMARK VINA RESULT:      -6.0      2.375      3.402
REMARK  4 active torsions:
REMARK  status: ('A' for Active; 'I' for Inactive)
REMARK    1  A    between atoms: C_6  and  C_2 
REMARK    2  A    between atoms: C_8  and  C_6 
REMARK    3  A    between atoms: C_7  and  C_9 
REMARK    4  A    between atoms: C_9  and  C_8 
ROOT
ATOM      1  C   UNL d   1      52.024  33.233  53.058  0.00  0.00     0.006 C 
ENDROOT
BRANCH   1   2
ATOM      2  C   UNL d   1      51.423  33.741  52.827  0.00  0.00     0.039 A 
ATOM      3  C   UNL d   1      51.331  34.220  52.163  0.00  0.00     0.103 A 
ATOM      4  N   UNL d   1      50.609  34.610  52.229  0.00  0.00    -0.165 NA
ATOM      5  C   UNL d   1      51.898  34.263  51.563  0.00  0.00     0.022 C 
ATOM      6  N   UNL d   1      50.259  34.373  52.928  0.00  0.00    -0.225 N 
ATOM      7  C   UNL d   1      50.759  33.837  53.299  0.00  0.00     0.102 A 
ATOM      8  C   UNL d   1      49.527  34.635  53.206  0.00  0.00     0.121 C 
ENDBRANCH   1   2
BRANCH   1   9
ATOM      9  C   UNL d   1      52.512  33.432  53.694  0.00  0.00     0.043 C 
BRANCH   9  10
ATOM     10  C   UNL d   1      53.141  32.930  53.907  0.00  0.00     0.202 C 
ATOM     11  O   UNL d   1      53.161  32.160  53.625  0.00  0.00    -0.286 OA
BRANCH  10  12
ATOM     12  C   UNL d   1      53.745  33.213  54.405  0.00  0.00     0.068 A 
ATOM     13  S   UNL d   1      53.938  33.631  55.085  0.00  0.00    -0.083 SA
ATOM     14  C   UNL d   1      54.760  33.636  55.158  0.00  0.00     0.035 A 
ATOM     15  C   UNL d   1      55.075  33.219  54.520  0.00  0.00     0.008 A 
ATOM     16  C   UNL d   1      54.445  32.956  54.051  0.00  0.00     0.010 A 
ENDBRANCH  10  12
ENDBRANCH   9  10
ENDBRANCH   1   9
TORSDOF 4
ENDMDL
MODEL 6
REMARK VINA RESULT:      -4.7     10.124     10.660
REMARK  4 active torsions:
REMARK  status: ('A' for Active; 'I' for Inactive)
REMARK    1  A    between atoms: C_6  and  C_2 
REMARK    2  A    between atoms: C_8  and  C_6 
REMARK    3  A    between atoms: C_7  and  C_9 
REMARK    4  A    between atoms: C_9  and  C_8 
ROOT
ATOM      1  C   UNL d   1      45.159  29.503  58.586  0.00  0.00     0.006 C 
ENDROOT
BRANCH   1   2
ATOM      2  C   UNL d   1      44.959  30.163  59.030  0.00  0.00     0.039 A 
ATOM      3  C   UNL d   1      44.794  30.942  58.818  0.00  0.00     0.103 A 
ATOM      4  N   UNL d   1      44.626  31.362  59.505  0.00  0.00    -0.165 NA
ATOM      5  C   UNL d   1      44.810  31.202  58.034  0.00  0.00     0.022 C 
ATOM      6  N   UNL d   1      44.687  30.847  60.136  0.00  0.00    -0.225 N 
ATOM      7  C   UNL d   1      44.891  30.107  59.847  0.00  0.00     0.102 A 
ATOM      8  C   UNL d   1      44.561  31.048  60.928  0.00  0.00     0.121 C 
ENDBRANCH   1   2
BRANCH   1   9
ATOM      9  C   UNL d   1      45.008  28.747  58.877  0.00  0.00     0.043 C 
BRANCH   9  10
ATOM     10  C   UNL d   1      45.175  28.080  58.409  0.00  0.00     0.202 C 
ATOM     11  O   UNL d   1      45.562  28.174  57.691  0.00  0.00    -0.286 OA
BRANCH  10  12
ATOM     12  C   UNL d   1      44.949  27.323  58.670  0.00  0.00     0.068 A 
ATOM     13  S   UNL d   1      44.484  26.882  59.185  0.00  0.00    -0.083 SA
ATOM     14  C   UNL d   1      44.632  26.083  59.041  0.00  0.00     0.035 A 
ATOM     15  C   UNL d   1      45.189  26.031  58.435  0.00  0.00     0.008 A 
ATOM     16  C   UNL d   1      45.387  26.802  58.204  0.00  0.00     0.010 A 
ENDBRANCH  10  12
ENDBRANCH   9  10
ENDBRANCH   1   9
TORSDOF 4
ENDMDL
MODEL 7
REMARK VINA RESULT:      -4.7     10.625     11.193
REMARK  4 active torsions:
REMARK  status: ('A' for Active; 'I' for Inactive)
REMARK    1  A    between atoms: C_6  and  C_2 
REMARK    2  A    between atoms: C_8  and  C_6 
REMARK    3  A    between atoms: C_7  and  C_9 
REMARK    4  A    between atoms: C_9  and  C_8 
ROOT
ATOM      1  C   UNL d   1      44.864  30.610  60.403  0.00  0.00     0.006 C 
ENDROOT
BRANCH   1   2
ATOM      2  C   UNL d   1      44.741  30.432  61.195  0.00  0.00     0.039 A 
ATOM      3  C   UNL d   1      44.494  30.893  61.832  0.00  0.00     0.103 A 
ATOM      4  N   UNL d   1      44.470  30.412  62.499  0.00  0.00    -0.165 NA
ATOM      5  C   UNL d   1      44.315  31.696  61.756  0.00  0.00     0.022 C 
ATOM      6  N   UNL d   1      44.700  29.661  62.276  0.00  0.00    -0.225 N 
ATOM      7  C   UNL d   1      44.868  29.670  61.472  0.00  0.00     0.102 A 
ATOM      8  C   UNL d   1      44.752  29.010  62.781  0.00  0.00     0.121 C 
ENDBRANCH   1   2
BRANCH   1   9
ATOM      9  C   UNL d   1      44.920  30.003  59.847  0.00  0.00     0.043 C 
BRANCH   9  10
ATOM     10  C   UNL d   1      45.070  30.184  59.049  0.00  0.00     0.202 C 
ATOM     11  O   UNL d   1      45.253  30.955  58.833  0.00  0.00    -0.286 OA
BRANCH  10  12
ATOM     12  C   UNL d   1      45.034  29.583  58.474  0.00  0.00     0.068 A 
ATOM     13  S   UNL d   1      45.077  28.778  58.315  0.00  0.00    -0.083 SA
ATOM     14  C   UNL d   1      44.965  28.671  57.505  0.00  0.00     0.035 A 
ATOM     15  C   UNL d   1      44.853  29.414  57.162  0.00  0.00     0.008 A 
ATOM     16  C   UNL d   1      44.896  29.981  57.764  0.00  0.00     0.010 A 
ENDBRANCH  10  12
ENDBRANCH   9  10
ENDBRANCH   1   9
TORSDOF 4
ENDMDL
MODEL 8
REMARK VINA RESULT:      -4.7     10.107     10.855
REMARK  4 active torsions:
REMARK  status: ('A' for Active; 'I' for Inactive)
REMARK    1  A    between atoms: C_6  and  C_2 
REMARK    2  A    between atoms: C_8  and  C_6 
REMARK    3  A    between atoms: C_7  and  C_9 
REMARK    4  A    between atoms: C_9  and  C_8 
ROOT
ATOM      1  C   UNL d   1      45.271  28.390  58.355  0.00  0.00     0.006 C 
ENDROOT
BRANCH   1   2
ATOM      2  C   UNL d   1      45.155  27.615  58.113  0.00  0.00     0.039 A 
ATOM      3  C   UNL d   1      44.955  26.932  58.528  0.00  0.00     0.103 A 
ATOM      4  N   UNL d   1      44.916  26.310  57.991  0.00  0.00    -0.165 NA
ATOM      5  C   UNL d   1      44.826  26.929  59.345  0.00  0.00     0.022 C 
ATOM      6  N   UNL d   1      45.091  26.607  57.250  0.00  0.00    -0.225 N 
ATOM      7  C   UNL d   1      45.239  27.411  57.322  0.00  0.00     0.102 A 
ATOM      8  C   UNL d   1      45.112  26.164  56.553  0.00  0.00     0.121 C 
ENDBRANCH   1   2
BRANCH   1   9
ATOM      9  C   UNL d   1      44.977  29.013  57.900  0.00  0.00     0.043 C 
BRANCH   9  10
ATOM     10  C   UNL d   1      45.111  29.799  58.137  0.00  0.00     0.202 C 
ATOM     11  O   UNL d   1      45.547  29.951  58.817  0.00  0.00    -0.286 OA
BRANCH  10  12
ATOM     12  C   UNL d   1      44.803  30.426  57.685  0.00  0.00     0.068 A 
ATOM     13  S   UNL d   1      44.445  30.659  56.983  0.00  0.00    -0.083 SA
ATOM     14  C   UNL d   1      44.327  31.475  57.014  0.00  0.00     0.035 A 
ATOM     15  C   UNL d   1      44.614  31.747  57.738  0.00  0.00     0.008 A 
ATOM     16  C   UNL d   1      44.910  31.096  58.156  0.00  0.00     0.010 A 
ENDBRANCH  10  12
ENDBRANCH   9  10
ENDBRANCH   1   9
TORSDOF 4
ENDMDL
MODEL 9
REMARK VINA RESULT:      -4.7     10.277     11.071
REMARK  4 active torsions:
REMARK  status: ('A' for Active; 'I' for Inactive)
REMARK    1  A    between atoms: C_6  and  C_2 
REMARK    2  A    between atoms: C_8  and  C_6 
REMARK    3  A    between atoms: C_7  and  C_9 
REMARK    4  A    between atoms: C_9  and  C_8 
ROOT
ATOM      1  C   UNL d   1      45.101  29.641  58.115  0.00  0.00     0.006 C 
ENDROOT
BRANCH   1   2
ATOM      2  C   UNL d   1      45.034  28.975  57.641  0.00  0.00     0.039 A 
ATOM      3  C   UNL d   1      44.755  28.869  56.873  0.00  0.00     0.103 A 
ATOM      4  N   UNL d   1      44.822  28.071  56.686  0.00  0.00    -0.165 NA
ATOM      5  C   UNL d   1      44.469  29.494  56.414  0.00  0.00     0.022 C 
ATOM      6  N   UNL d   1      45.139  27.686  57.333  0.00  0.00    -0.225 N 
ATOM      7  C   UNL d   1      45.271  28.241  57.924  0.00  0.00     0.102 A 
ATOM      8  C   UNL d   1      45.296  26.877  57.375  0.00  0.00     0.121 C 
ENDBRANCH   1   2
BRANCH   1   9
ATOM      9  C   UNL d   1      44.894  29.604  58.913  0.00  0.00     0.043 C 
BRANCH   9  10
ATOM     10  C   UNL d   1      44.936  30.288  59.385  0.00  0.00     0.202 C 
ATOM     11  O   UNL d   1      45.216  30.989  59.062  0.00  0.00    -0.286 OA
BRANCH  10  12
ATOM     12  C   UNL d   1      44.694  30.257  60.181  0.00  0.00     0.068 A 
ATOM     13  S   UNL d   1      44.457  29.787  60.811  0.00  0.00    -0.083 SA
ATOM     14  C   UNL d   1      44.314  30.279  61.458  0.00  0.00     0.035 A 
ATOM     15  C   UNL d   1      44.463  31.057  61.225  0.00  0.00     0.008 A 
ATOM     16  C   UNL d   1      44.700  31.044  60.431  0.00  0.00     0.010 A 
ENDBRANCH  10  12
ENDBRANCH   9  10
ENDBRANCH   1   9
TORSDOF 4
ENDMDL
