MODEL 1
REMARK VINA RESULT:     105.8      0.000      0.000
REMARK  6 active torsions:
REMARK  status: ('A' for Active; 'I' for Inactive)
REMARK    1  A    between atoms: C_6  and  C_1 
REMARK    2  A    between atoms: C_8  and  C_2 
REMARK    3  A    between atoms: C_9  and  C_4 
REMARK    4  A    between atoms: C_12  and  C_8 
REMARK    5  A    between atoms: O_27  and  C_11 
REMARK    6  A    between atoms: C_30  and  O_27 
ROOT
ATOM      1  C   UNL d   1      61.246  48.509  52.043  0.00  0.00     0.306 A 
ATOM      2  C   UNL d   1      60.754  48.655  51.396  0.00  0.00     0.114 A 
ATOM      3  N   UNL d   1      61.062  48.861  52.775  0.00  0.00    -0.152 NA
ATOM      4  C   UNL d   1      60.093  49.142  51.477  0.00  0.00     0.094 A 
ATOM      5  C   UNL d   1      60.402  49.346  52.851  0.00  0.00     0.371 A 
ATOM      6  N   UNL d   1      59.912  49.488  52.193  0.00  0.00    -0.191 NA
ATOM      7  O   UNL d   1      60.218  49.699  53.582  0.00  0.00    -0.242 OA
ATOM      8  O   UNL d   1      61.793  48.298  52.604  0.00  0.00    -0.266 OA
ENDROOT
BRANCH   4   9
ATOM      9  C   UNL d   1      59.603  49.283  50.819  0.00  0.00     0.020 A 
ATOM     10  C   UNL d   1      58.793  49.164  50.873  0.00  0.00     0.029 A 
ATOM     11  C   UNL d   1      58.302  49.305  50.217  0.00  0.00     0.139 A 
ATOM     12  C   UNL d   1      58.630  49.569  49.500  0.00  0.00     0.218 A 
ATOM     13  C   UNL d   1      59.451  49.689  49.450  0.00  0.00     0.044 A 
ATOM     14  O   UNL d   1      58.151  49.707  48.858  0.00  0.00    -0.284 OA
ATOM     15  C   UNL d   1      59.940  49.547  50.106  0.00  0.00     0.005 A 
BRANCH  11  16
ATOM     16  O   UNL d   1      57.495  49.184  50.277  0.00  0.00    -0.302 OA
BRANCH  16  17
ATOM     17  C   UNL d   1      57.151  48.562  49.897  0.00  0.00     0.123 C 
ATOM     18  C   UNL d   1      56.406  48.644  49.569  0.00  0.00     0.029 C 
ENDBRANCH  16  17
ENDBRANCH  11  16
ENDBRANCH   4   9
BRANCH   2  19
ATOM     19  C   UNL d   1      60.938  48.302  50.664  0.00  0.00     0.201 C 
ATOM     20  O   UNL d   1      60.943  48.924  50.270  0.00  0.00    -0.286 OA
BRANCH  19  21
ATOM     21  C   UNL d   1      61.079  47.805  50.233  0.00  0.00     0.039 A 
ATOM     22  C   UNL d   1      61.494  47.792  49.523  0.00  0.00     0.004 A 
ATOM     23  C   UNL d   1      61.575  47.085  49.116  0.00  0.00     0.011 A 
ATOM     24  C   UNL d   1      61.246  46.389  49.411  0.00  0.00     0.058 A 
ATOM     25  C   UNL d   1      60.827  46.405  50.130  0.00  0.00     0.011 A 
ATOM     26 CL   UNL d   1      61.333  45.691  48.998  0.00  0.00    -0.082 Cl
ATOM     27  C   UNL d   1      60.746  47.111  50.536  0.00  0.00     0.004 A 
ENDBRANCH  19  21
ENDBRANCH   2  19
BRANCH   1  28
ATOM     28  C   UNL d   1      61.849  48.031  51.859  0.00  0.00     0.470 C 
ATOM     29  F   UNL d   1      62.008  47.268  52.111  0.00  0.00    -0.162 F 
ATOM     30  F   UNL d   1      62.399  47.604  51.686  0.00  0.00    -0.162 F 
ATOM     31  F   UNL d   1      62.488  48.177  51.354  0.00  0.00    -0.162 F 
ENDBRANCH   1  28
TORSDOF 6
ENDMDL
