MODEL 1
REMARK VINA RESULT:      -7.1      0.000      0.000
REMARK  4 active torsions:
REMARK  status: ('A' for Active; 'I' for Inactive)
REMARK    1  A    between atoms: C_2  and  N_1 
REMARK    2  A    between atoms: C_4  and  C_2 
REMARK    3  A    between atoms: C_10  and  C_4 
REMARK    4  A    between atoms: N_7  and  C_6 
ROOT
ATOM      1  C   UNL d   1      53.162  33.333  53.750  0.00  0.00     0.064 A 
ATOM      2  C   UNL d   1      52.620  32.960  53.251  0.00  0.00     0.018 A 
ATOM      3  C   UNL d   1      53.763  32.898  54.112  0.00  0.00     0.018 A 
ATOM      4  C   UNL d   1      53.287  31.714  53.480  0.00  0.00     0.002 A 
ATOM      5  C   UNL d   1      53.826  32.089  53.978  0.00  0.00     0.002 A 
ATOM      6  C   UNL d   1      52.683  32.149  53.116  0.00  0.00     0.002 A 
ENDROOT
BRANCH   4   7
ATOM      7  C   UNL d   1      53.350  30.900  53.345  0.00  0.00     0.025 C 
BRANCH   7   8
ATOM      8  C   UNL d   1      52.858  30.382  53.746  0.00  0.00     0.148 C 
BRANCH   8   9
ATOM      9  N   UNL d   1      52.950  29.569  53.636  0.00  0.00    -0.112 N 
ATOM     10  O   UNL d   1      53.368  29.137  54.185  0.00  0.00    -0.532 OA
ATOM     11  O   UNL d   1      52.618  29.222  52.976  0.00  0.00    -0.532 OA
ENDBRANCH   8   9
ENDBRANCH   7   8
ENDBRANCH   4   7
BRANCH   1  12
ATOM     12  N   UNL d   1      53.091  34.150  53.880  0.00  0.00    -0.301 N 
ATOM     13  C   UNL d   1      53.279  34.466  54.623  0.00  0.00     0.100 C 
ATOM     14  C   UNL d   1      52.833  34.654  53.275  0.00  0.00     0.100 C 
ENDBRANCH   1  12
TORSDOF 4
ENDMDL
MODEL 2
REMARK VINA RESULT:      -7.0      2.446      3.797
REMARK  4 active torsions:
REMARK  status: ('A' for Active; 'I' for Inactive)
REMARK    1  A    between atoms: C_2  and  N_1 
REMARK    2  A    between atoms: C_4  and  C_2 
REMARK    3  A    between atoms: C_10  and  C_4 
REMARK    4  A    between atoms: N_7  and  C_6 
ROOT
ATOM      1  C   UNL d   1      53.298  31.385  53.468  0.00  0.00     0.064 A 
ATOM      2  C   UNL d   1      52.798  31.939  53.113  0.00  0.00     0.018 A 
ATOM      3  C   UNL d   1      53.895  31.633  53.981  0.00  0.00     0.018 A 
ATOM      4  C   UNL d   1      53.498  32.987  53.792  0.00  0.00     0.002 A 
ATOM      5  C   UNL d   1      53.996  32.432  54.144  0.00  0.00     0.002 A 
ATOM      6  C   UNL d   1      52.899  32.740  53.276  0.00  0.00     0.002 A 
ENDROOT
BRANCH   4   7
ATOM      7  C   UNL d   1      53.600  33.791  53.955  0.00  0.00     0.025 C 
BRANCH   7   8
ATOM      8  C   UNL d   1      53.047  34.186  54.414  0.00  0.00     0.148 C 
BRANCH   8   9
ATOM      9  N   UNL d   1      53.211  34.950  54.678  0.00  0.00    -0.112 N 
ATOM     10  O   UNL d   1      53.224  35.564  54.142  0.00  0.00    -0.532 OA
ATOM     11  O   UNL d   1      53.356  35.068  55.473  0.00  0.00    -0.532 OA
ENDBRANCH   8   9
ENDBRANCH   7   8
ENDBRANCH   4   7
BRANCH   1  12
ATOM     12  N   UNL d   1      53.189  30.579  53.298  0.00  0.00    -0.301 N 
ATOM     13  C   UNL d   1      52.823  30.354  52.589  0.00  0.00     0.100 C 
ATOM     14  C   UNL d   1      53.443  29.997  53.830  0.00  0.00     0.100 C 
ENDBRANCH   1  12
TORSDOF 4
ENDMDL
MODEL 3
REMARK VINA RESULT:      -6.8      2.833      3.744
REMARK  4 active torsions:
REMARK  status: ('A' for Active; 'I' for Inactive)
REMARK    1  A    between atoms: C_2  and  N_1 
REMARK    2  A    between atoms: C_4  and  C_2 
REMARK    3  A    between atoms: C_10  and  C_4 
REMARK    4  A    between atoms: N_7  and  C_6 
ROOT
ATOM      1  C   UNL d   1      53.299  33.276  53.695  0.00  0.00     0.064 A 
ATOM      2  C   UNL d   1      53.155  34.088  53.735  0.00  0.00     0.018 A 
ATOM      3  C   UNL d   1      52.782  32.782  53.283  0.00  0.00     0.018 A 
ATOM      4  C   UNL d   1      51.974  33.905  52.947  0.00  0.00     0.002 A 
ATOM      5  C   UNL d   1      52.120  33.095  52.909  0.00  0.00     0.002 A 
ATOM      6  C   UNL d   1      52.492  34.402  53.360  0.00  0.00     0.002 A 
ENDROOT
BRANCH   4   7
ATOM      7  C   UNL d   1      51.308  34.220  52.571  0.00  0.00     0.025 C 
BRANCH   7   8
ATOM      8  C   UNL d   1      50.572  34.153  52.925  0.00  0.00     0.148 C 
BRANCH   8   9
ATOM      9  N   UNL d   1      49.921  34.522  52.578  0.00  0.00    -0.112 N 
ATOM     10  O   UNL d   1      49.758  34.388  51.791  0.00  0.00    -0.532 OA
ATOM     11  O   UNL d   1      49.457  35.013  53.037  0.00  0.00    -0.532 OA
ENDBRANCH   8   9
ENDBRANCH   7   8
ENDBRANCH   4   7
BRANCH   1  12
ATOM     12  N   UNL d   1      53.970  32.968  54.076  0.00  0.00    -0.301 N 
ATOM     13  C   UNL d   1      54.641  32.771  53.630  0.00  0.00     0.100 C 
ATOM     14  C   UNL d   1      53.977  32.856  54.896  0.00  0.00     0.100 C 
ENDBRANCH   1  12
TORSDOF 4
ENDMDL
MODEL 4
REMARK VINA RESULT:      -6.7      2.488      3.241
REMARK  4 active torsions:
REMARK  status: ('A' for Active; 'I' for Inactive)
REMARK    1  A    between atoms: C_2  and  N_1 
REMARK    2  A    between atoms: C_4  and  C_2 
REMARK    3  A    between atoms: C_10  and  C_4 
REMARK    4  A    between atoms: N_7  and  C_6 
ROOT
ATOM      1  C   UNL d   1      51.636  34.011  52.890  0.00  0.00     0.064 A 
ATOM      2  C   UNL d   1      52.180  34.619  53.015  0.00  0.00     0.018 A 
ATOM      3  C   UNL d   1      51.799  33.245  53.152  0.00  0.00     0.018 A 
ATOM      4  C   UNL d   1      53.051  33.688  53.666  0.00  0.00     0.002 A 
ATOM      5  C   UNL d   1      52.505  33.083  53.540  0.00  0.00     0.002 A 
ATOM      6  C   UNL d   1      52.889  34.456  53.403  0.00  0.00     0.002 A 
ENDROOT
BRANCH   4   7
ATOM      7  C   UNL d   1      53.762  33.524  54.056  0.00  0.00     0.025 C 
BRANCH   7   8
ATOM      8  C   UNL d   1      53.884  33.807  54.815  0.00  0.00     0.148 C 
BRANCH   8   9
ATOM      9  N   UNL d   1      54.554  33.570  55.233  0.00  0.00    -0.112 N 
ATOM     10  O   UNL d   1      54.556  32.847  55.608  0.00  0.00    -0.532 OA
ATOM     11  O   UNL d   1      55.198  34.071  55.259  0.00  0.00    -0.532 OA
ENDBRANCH   8   9
ENDBRANCH   7   8
ENDBRANCH   4   7
BRANCH   1  12
ATOM     12  N   UNL d   1      50.924  34.184  52.498  0.00  0.00    -0.301 N 
ATOM     13  C   UNL d   1      50.904  34.198  51.669  0.00  0.00     0.100 C 
ATOM     14  C   UNL d   1      50.232  34.342  52.925  0.00  0.00     0.100 C 
ENDBRANCH   1  12
TORSDOF 4
ENDMDL
