MODEL 1
REMARK VINA RESULT:       5.0      0.000      0.000
REMARK  6 active torsions:
REMARK  status: ('A' for Active; 'I' for Inactive)
REMARK    1  A    between atoms: C_10  and  C_2 
REMARK    2  A    between atoms: C_11  and  C_4 
REMARK    3  A    between atoms: N_12  and  C_10 
REMARK    4  A    between atoms: O_17  and  C_11 
REMARK    5  A    between atoms: C_14  and  N_12 
REMARK    6  A    between atoms: C_23  and  O_17 
ROOT
ATOM      1  C   UNL d   1      31.026  18.060 -24.713  0.00  0.00     0.035 A 
ATOM      2  C   UNL d   1      31.776  17.740 -24.517  0.00  0.00     0.060 A 
ATOM      3  C   UNL d   1      30.946  18.858 -24.906  0.00  0.00     0.100 A 
ATOM      4  C   UNL d   1      30.263  17.716 -24.760  0.00  0.00     0.088 A 
ATOM      5  O   UNL d   1      30.162  19.017 -25.071  0.00  0.00    -0.307 OA
ATOM      6  C   UNL d   1      29.738  18.316 -24.982  0.00  0.00     0.105 A 
ATOM      7  C   UNL d   1      32.429  18.225 -24.519  0.00  0.00     0.197 A 
ATOM      8  C   UNL d   1      31.621  19.338 -24.903  0.00  0.00     0.026 A 
ATOM      9  C   UNL d   1      32.370  19.018 -24.708  0.00  0.00     0.041 A 
ATOM     10  O   UNL d   1      33.182  17.904 -24.323  0.00  0.00    -0.286 OA
ATOM     11  C   UNL d   1      28.910  18.215 -25.096  0.00  0.00     0.027 C 
ATOM     12  C   UNL d   1      31.540  20.132 -25.096  0.00  0.00     0.002 A 
ATOM     13  C   UNL d   1      33.023  19.500 -24.709  0.00  0.00     0.003 A 
ATOM     14  C   UNL d   1      32.213  20.610 -25.093  0.00  0.00     0.000 A 
ATOM     15  C   UNL d   1      32.963  20.290 -24.897  0.00  0.00     0.000 A 
ENDROOT
BRANCH   2  16
ATOM     16  C   UNL d   1      31.848  16.926 -24.321  0.00  0.00     0.104 C 
BRANCH  16  17
ATOM     17  N   UNL d   1      32.561  16.634 -24.000  0.00  0.00    -0.225 NA
BRANCH  17  18
ATOM     18  C   UNL d   1      32.561  16.237 -23.275  0.00  0.00     0.163 A 
ATOM     19  N   UNL d   1      31.877  16.235 -22.818  0.00  0.00    -0.225 NA
ATOM     20  C   UNL d   1      31.880  15.840 -22.100  0.00  0.00     0.101 A 
ATOM     21  C   UNL d   1      32.555  15.454 -21.840  0.00  0.00     0.021 A 
ATOM     22  C   UNL d   1      33.241  15.453 -22.292  0.00  0.00     0.005 A 
ATOM     23  C   UNL d   1      33.236  15.851 -23.015  0.00  0.00     0.039 A 
ENDBRANCH  17  18
ENDBRANCH  16  17
ENDBRANCH   2  16
BRANCH   4  24
ATOM     24  C   UNL d   1      30.063  16.918 -24.613  0.00  0.00     0.302 C 
ATOM     25  O   UNL d   1      30.380  16.307 -25.056  0.00  0.00    -0.259 OA
BRANCH  24  26
ATOM     26  O   UNL d   1      29.531  16.750 -24.002  0.00  0.00    -0.271 OA
BRANCH  26  27
ATOM     27  C   UNL d   1      29.304  15.976 -23.872  0.00  0.00     0.126 C 
ATOM     28  C   UNL d   1      28.944  15.786 -23.139  0.00  0.00     0.029 C 
ENDBRANCH  26  27
ENDBRANCH  24  26
ENDBRANCH   4  24
TORSDOF 6
ENDMDL
MODEL 2
REMARK VINA RESULT:       6.2      4.273      5.991
REMARK  6 active torsions:
REMARK  status: ('A' for Active; 'I' for Inactive)
REMARK    1  A    between atoms: C_10  and  C_2 
REMARK    2  A    between atoms: C_11  and  C_4 
REMARK    3  A    between atoms: N_12  and  C_10 
REMARK    4  A    between atoms: O_17  and  C_11 
REMARK    5  A    between atoms: C_14  and  N_12 
REMARK    6  A    between atoms: C_23  and  O_17 
ROOT
ATOM      1  C   UNL d   1      32.725  21.350 -21.396  0.00  0.00     0.035 A 
ATOM      2  C   UNL d   1      32.927  22.064 -21.786  0.00  0.00     0.060 A 
ATOM      3  C   UNL d   1      32.622  21.331 -20.579  0.00  0.00     0.100 A 
ATOM      4  C   UNL d   1      32.590  20.573 -21.682  0.00  0.00     0.088 A 
ATOM      5  O   UNL d   1      32.429  20.570 -20.350  0.00  0.00    -0.307 OA
ATOM      6  C   UNL d   1      32.408  20.100 -21.026  0.00  0.00     0.105 A 
ATOM      7  C   UNL d   1      33.022  22.744 -21.348  0.00  0.00     0.197 A 
ATOM      8  C   UNL d   1      32.723  22.031 -20.148  0.00  0.00     0.026 A 
ATOM      9  C   UNL d   1      32.925  22.745 -20.537  0.00  0.00     0.041 A 
ATOM     10  O   UNL d   1      33.225  23.461 -21.739  0.00  0.00    -0.286 OA
ATOM     11  C   UNL d   1      32.233  19.278 -21.058  0.00  0.00     0.027 C 
ATOM     12  C   UNL d   1      32.620  22.010 -19.333  0.00  0.00     0.002 A 
ATOM     13  C   UNL d   1      33.020  23.423 -20.103  0.00  0.00     0.003 A 
ATOM     14  C   UNL d   1      32.721  22.709 -18.905  0.00  0.00     0.000 A 
ATOM     15  C   UNL d   1      32.923  23.423 -19.294  0.00  0.00     0.000 A 
ENDROOT
BRANCH   2  16
ATOM     16  C   UNL d   1      33.030  22.074 -22.620  0.00  0.00     0.104 C 
BRANCH  16  17
ATOM     17  N   UNL d   1      33.111  22.801 -23.023  0.00  0.00    -0.225 NA
BRANCH  17  18
ATOM     18  C   UNL d   1      32.683  22.945 -23.716  0.00  0.00     0.163 A 
ATOM     19  N   UNL d   1      32.866  22.519 -24.396  0.00  0.00    -0.225 NA
ATOM     20  C   UNL d   1      32.439  22.664 -25.081  0.00  0.00     0.101 A 
ATOM     21  C   UNL d   1      31.841  23.224 -25.089  0.00  0.00     0.021 A 
ATOM     22  C   UNL d   1      31.655  23.652 -24.412  0.00  0.00     0.005 A 
ATOM     23  C   UNL d   1      32.085  23.505 -23.724  0.00  0.00     0.039 A 
ENDBRANCH  17  18
ENDBRANCH  16  17
ENDBRANCH   2  16
BRANCH   4  24
ATOM     24  C   UNL d   1      32.630  20.317 -22.476  0.00  0.00     0.302 C 
ATOM     25  O   UNL d   1      32.911  20.804 -23.071  0.00  0.00    -0.259 OA
BRANCH  24  26
ATOM     26  O   UNL d   1      32.377  19.550 -22.657  0.00  0.00    -0.271 OA
BRANCH  26  27
ATOM     27  C   UNL d   1      31.886  19.433 -23.300  0.00  0.00     0.126 C 
ATOM     28  C   UNL d   1      31.965  18.719 -23.733  0.00  0.00     0.029 C 
ENDBRANCH  26  27
ENDBRANCH  24  26
ENDBRANCH   4  24
TORSDOF 6
ENDMDL
