MODEL 1
REMARK VINA RESULT:      -4.4      0.000      0.000
REMARK  4 active torsions:
REMARK  status: ('A' for Active; 'I' for Inactive)
REMARK       I    between atoms: N_3  and  C_1 
REMARK    1  A    between atoms: C_4  and  C_1 
REMARK    2  A    between atoms: N_2  and  C_4 
REMARK    3  A    between atoms: C_6  and  N_3 
REMARK    4  A    between atoms: O_17  and  C_9 
ROOT
ATOM      1  C   UNL d   1     -41.590-122.443 -51.083  0.00  0.00     0.297 C 
ATOM      2  N   UNL d   1     -41.123-122.152 -51.701  0.00  0.00    -0.207 NA
ATOM      3  O   UNL d   1     -42.231-122.930 -51.250  0.00  0.00    -0.264 OA
ENDROOT
BRANCH   1   4
ATOM      4  C   UNL d   1     -41.414-122.248 -50.305  0.00  0.00     0.144 C 
BRANCH   4   5
ATOM      5  N   UNL d   1     -41.801-122.641 -49.678  0.00  0.00    -0.299 N 
ATOM      6  C   UNL d   1     -41.358-123.082 -49.122  0.00  0.00     0.080 A 
ATOM      7  C   UNL d   1     -41.734-123.474 -48.498  0.00  0.00     0.019 A 
ATOM      8  C   UNL d   1     -42.567-123.429 -48.421  0.00  0.00     0.003 A 
ATOM      9  C   UNL d   1     -43.019-122.987 -48.975  0.00  0.00     0.019 A 
ATOM     10  C   UNL d   1     -42.945-123.817 -47.801  0.00  0.00     0.000 C 
ATOM     11  C   UNL d   1     -42.628-122.591 -49.608  0.00  0.00     0.080 A 
ENDBRANCH   4   5
ENDBRANCH   1   4
BRANCH   2  12
ATOM     12  C   UNL d   1     -41.298-122.348 -52.479  0.00  0.00     0.085 A 
ATOM     13  C   UNL d   1     -41.123-123.092 -52.755  0.00  0.00     0.021 A 
ATOM     14  C   UNL d   1     -41.298-123.293 -53.539  0.00  0.00     0.026 A 
ATOM     15  C   UNL d   1     -41.650-122.738 -54.034  0.00  0.00     0.094 A 
ATOM     16  C   UNL d   1     -41.826-121.987 -53.751  0.00  0.00     0.026 A 
ATOM     17  C   UNL d   1     -41.650-121.787 -52.968  0.00  0.00     0.021 A 
BRANCH  15  18
ATOM     18  O   UNL d   1     -41.827-122.930 -54.814  0.00  0.00    -0.328 OA
ATOM     19  C   UNL d   1     -41.744-122.368 -55.410  0.00  0.00     0.181 C 
ENDBRANCH  15  18
ENDBRANCH   2  12
TORSDOF 4
ENDMDL
