MODEL 1
REMARK VINA RESULT:      32.4      0.000      0.000
REMARK  1 active torsions:
REMARK  status: ('A' for Active; 'I' for Inactive)
REMARK    1  A    between atoms: C_9  and  N_4 
ROOT
ATOM      1  C   UNL d   1     -51.600  24.410  33.349  0.00  0.00     0.096 A 
ATOM      2  C   UNL d   1     -52.295  24.839  33.350  0.00  0.00     0.109 A 
ATOM      3  N   UNL d   1     -52.109  25.637  33.367  0.00  0.00    -0.162 NA
ATOM      4  N   UNL d   1     -51.287  25.696  33.376  0.00  0.00    -0.195 N 
ATOM      5  C   UNL d   1     -50.977  24.940  33.365  0.00  0.00     0.283 A 
ATOM      6  C   UNL d   1     -51.618  23.579  33.334  0.00  0.00     0.105 A 
ATOM      7  C   UNL d   1     -53.014  24.445  33.336  0.00  0.00     0.037 A 
ATOM      8  N   UNL d   1     -52.339  23.188  33.319  0.00  0.00    -0.244 NA
ATOM      9  C   UNL d   1     -53.045  23.620  33.320  0.00  0.00     0.083 A 
ATOM     10  O   UNL d   1     -50.175  24.748  33.370  0.00  0.00    -0.265 OA
ATOM     11  C   UNL d   1     -53.718  24.874  33.336  0.00  0.00     0.003 A 
ATOM     12  C   UNL d   1     -53.774  23.229  33.306  0.00  0.00     0.019 A 
ATOM     13  C   UNL d   1     -54.443  24.476  33.322  0.00  0.00     0.000 A 
ATOM     14  C   UNL d   1     -54.471  23.660  33.306  0.00  0.00     0.002 A 
ENDROOT
BRANCH   4  15
ATOM     15  C   UNL d   1     -50.849  26.396  33.393  0.00  0.00     0.086 A 
ATOM     16  C   UNL d   1     -51.239  27.125  33.369  0.00  0.00     0.020 A 
ATOM     17  C   UNL d   1     -50.811  27.820  33.386  0.00  0.00     0.013 A 
ATOM     18  C   UNL d   1     -49.986  27.797  33.427  0.00  0.00     0.058 A 
ATOM     19  C   UNL d   1     -49.596  27.069  33.451  0.00  0.00     0.013 A 
ATOM     20 CL   UNL d   1     -49.554  28.485  33.444  0.00  0.00    -0.082 Cl
ATOM     21  C   UNL d   1     -50.020  26.376  33.434  0.00  0.00     0.020 A 
ENDBRANCH   4  15
TORSDOF 1
ENDMDL
