MODEL 1
REMARK VINA RESULT:       6.7      0.000      0.000
REMARK  2 active torsions:
REMARK  status: ('A' for Active; 'I' for Inactive)
REMARK    1  A    between atoms: C_3  and  C_1 
REMARK       I    between atoms: C_2  and  N_4 
REMARK    2  A    between atoms: N_4  and  C_12 
ROOT
ATOM      1  C   UNL d   1      13.372  12.256  -3.536  0.00  0.00     0.072 A 
ATOM      2  C   UNL d   1      14.152  12.429  -3.326  0.00  0.00     0.005 A 
ATOM      3  C   UNL d   1      12.856  11.931  -2.979  0.00  0.00     0.005 A 
ATOM      4  C   UNL d   1      13.898  11.952  -2.001  0.00  0.00     0.100 A 
ATOM      5  C   UNL d   1      14.414  12.277  -2.558  0.00  0.00     0.020 A 
ATOM      6  C   UNL d   1      13.119  11.779  -2.211  0.00  0.00     0.020 A 
ENDROOT
BRANCH   1   7
ATOM      7  C   UNL d   1      13.107  12.408  -4.306  0.00  0.00     0.419 C 
ATOM      8  F   UNL d   1      12.867  12.545  -5.005  0.00  0.00    -0.166 F 
ATOM      9  F   UNL d   1      12.780  13.136  -4.641  0.00  0.00    -0.166 F 
ATOM     10  F   UNL d   1      13.085  11.880  -4.989  0.00  0.00    -0.166 F 
ENDBRANCH   1   7
BRANCH   4  11
ATOM     11  N   UNL d   1      14.157  11.798  -1.231  0.00  0.00    -0.056 NA
ATOM     12  C   UNL d   1      14.551  12.384  -0.797  0.00  0.00     0.787 C 
ATOM     13  N   UNL d   1      14.811  12.235  -0.029  0.00  0.00     0.064 N 
ATOM     14  N   UNL d   1      14.683  13.124  -1.143  0.00  0.00     0.064 N 
ENDBRANCH   4  11
TORSDOF 2
ENDMDL
MODEL 2
REMARK VINA RESULT:       9.1      2.833      3.502
REMARK  2 active torsions:
REMARK  status: ('A' for Active; 'I' for Inactive)
REMARK    1  A    between atoms: C_3  and  C_1 
REMARK       I    between atoms: C_2  and  N_4 
REMARK    2  A    between atoms: N_4  and  C_12 
ROOT
ATOM      1  C   UNL d   1      14.650  13.009  -1.184  0.00  0.00     0.072 A 
ATOM      2  C   UNL d   1      14.608  13.344  -1.938  0.00  0.00     0.005 A 
ATOM      3  C   UNL d   1      14.314  12.268  -1.041  0.00  0.00     0.005 A 
ATOM      4  C   UNL d   1      13.893  12.195  -2.405  0.00  0.00     0.100 A 
ATOM      5  C   UNL d   1      14.229  12.936  -2.548  0.00  0.00     0.020 A 
ATOM      6  C   UNL d   1      13.936  11.861  -1.652  0.00  0.00     0.020 A 
ENDROOT
BRANCH   1   7
ATOM      7  C   UNL d   1      15.029  13.417  -0.571  0.00  0.00     0.419 C 
ATOM      8  F   UNL d   1      15.374  13.786  -0.014  0.00  0.00    -0.166 F 
ATOM      9  F   UNL d   1      14.713  14.012  -0.029  0.00  0.00    -0.166 F 
ATOM     10  F   UNL d   1      15.848  13.360  -0.303  0.00  0.00    -0.166 F 
ENDBRANCH   1   7
BRANCH   4  11
ATOM     11  N   UNL d   1      13.514  11.784  -3.013  0.00  0.00    -0.056 NA
ATOM     12  C   UNL d   1      13.224  12.189  -3.676  0.00  0.00     0.787 C 
ATOM     13  N   UNL d   1      12.844  11.783  -4.285  0.00  0.00     0.064 N 
ATOM     14  N   UNL d   1      13.320  13.010  -3.722  0.00  0.00     0.064 N 
ENDBRANCH   4  11
TORSDOF 2
ENDMDL
