MODEL 1
REMARK VINA RESULT:     -10.5      0.000      0.000
REMARK  3 active torsions:
REMARK  status: ('A' for Active; 'I' for Inactive)
REMARK    1  A    between atoms: C_5  and  C_1 
REMARK    2  A    between atoms: N_11  and  C_9 
REMARK    3  A    between atoms: C_17  and  N_11 
ROOT
ATOM      1  C   UNL d   1     -46.453  13.213  22.853  0.00  0.00     0.075 A 
ATOM      2  C   UNL d   1     -47.272  13.195  22.842  0.00  0.00     0.004 A 
ATOM      3  C   UNL d   1     -47.670  12.517  23.119  0.00  0.00     0.004 A 
ATOM      4  C   UNL d   1     -46.017  12.554  23.140  0.00  0.00     0.046 A 
ATOM      5  C   UNL d   1     -46.400  11.896  23.409  0.00  0.00     0.196 A 
ATOM      6  C   UNL d   1     -47.223  11.877  23.399  0.00  0.00     0.039 A 
ATOM      7  C   UNL d   1     -48.495  12.498  23.109  0.00  0.00     0.018 A 
ATOM      8  C   UNL d   1     -48.927  13.157  22.821  0.00  0.00     0.081 A 
ATOM      9  C   UNL d   1     -47.693  13.830  22.565  0.00  0.00     0.002 A 
ATOM     10  C   UNL d   1     -48.518  13.812  22.555  0.00  0.00     0.019 A 
ATOM     11  O   UNL d   1     -45.921  11.237  23.697  0.00  0.00    -0.287 OA
ATOM     12  C   UNL d   1     -47.626  11.179  23.683  0.00  0.00     0.003 A 
ATOM     13  C   UNL d   1     -48.903  11.800  23.393  0.00  0.00     0.002 A 
ATOM     14  C   UNL d   1     -48.472  11.179  23.664  0.00  0.00     0.000 A 
ENDROOT
BRANCH   8  15
ATOM     15  N   UNL d   1     -49.750  13.139  22.811  0.00  0.00    -0.246 NA
BRANCH  15  16
ATOM     16  C   UNL d   1     -50.187  13.846  22.876  0.00  0.00     0.081 A 
ATOM     17  C   UNL d   1     -50.368  14.155  23.635  0.00  0.00     0.019 A 
ATOM     18  C   UNL d   1     -50.803  14.859  23.698  0.00  0.00     0.002 A 
ATOM     19  C   UNL d   1     -51.047  15.240  23.046  0.00  0.00     0.000 A 
ATOM     20  C   UNL d   1     -50.883  14.958  22.296  0.00  0.00     0.002 A 
ATOM     21  C   UNL d   1     -50.452  14.260  22.213  0.00  0.00     0.019 A 
ENDBRANCH  15  16
ENDBRANCH   8  15
BRANCH   1  22
ATOM     22  C   UNL d   1     -46.041  13.911  22.568  0.00  0.00     0.419 C 
ATOM     23  F   UNL d   1     -45.643  14.577  22.287  0.00  0.00    -0.166 F 
ATOM     24  F   UNL d   1     -46.173  14.284  23.308  0.00  0.00    -0.166 F 
ATOM     25  F   UNL d   1     -45.923  13.510  21.835  0.00  0.00    -0.166 F 
ENDBRANCH   1  22
TORSDOF 3
ENDMDL
MODEL 2
REMARK VINA RESULT:      -7.6      1.618      2.373
REMARK  3 active torsions:
REMARK  status: ('A' for Active; 'I' for Inactive)
REMARK    1  A    between atoms: C_5  and  C_1 
REMARK    2  A    between atoms: N_11  and  C_9 
REMARK    3  A    between atoms: C_17  and  N_11 
ROOT
ATOM      1  C   UNL d   1     -46.059  11.930  23.020  0.00  0.00     0.075 A 
ATOM      2  C   UNL d   1     -46.775  12.316  23.118  0.00  0.00     0.004 A 
ATOM      3  C   UNL d   1     -46.837  13.122  22.914  0.00  0.00     0.004 A 
ATOM      4  C   UNL d   1     -45.392  12.343  22.716  0.00  0.00     0.046 A 
ATOM      5  C   UNL d   1     -45.449  13.124  22.518  0.00  0.00     0.196 A 
ATOM      6  C   UNL d   1     -46.169  13.512  22.617  0.00  0.00     0.039 A 
ATOM      7  C   UNL d   1     -47.558  13.511  23.013  0.00  0.00     0.018 A 
ATOM      8  C   UNL d   1     -48.221  13.095  23.316  0.00  0.00     0.081 A 
ATOM      9  C   UNL d   1     -47.418  11.918  23.410  0.00  0.00     0.002 A 
ATOM     10  C   UNL d   1     -48.139  12.306  23.509  0.00  0.00     0.019 A 
ATOM     11  O   UNL d   1     -44.745  13.517  22.210  0.00  0.00    -0.287 OA
ATOM     12  C   UNL d   1     -46.227  14.338  22.407  0.00  0.00     0.003 A 
ATOM     13  C   UNL d   1     -47.621  14.339  22.803  0.00  0.00     0.002 A 
ATOM     14  C   UNL d   1     -46.975  14.719  22.515  0.00  0.00     0.000 A 
ENDROOT
BRANCH   8  15
ATOM     15  N   UNL d   1     -48.941  13.483  23.414  0.00  0.00    -0.246 NA
BRANCH  15  16
ATOM     16  C   UNL d   1     -49.652  13.119  23.172  0.00  0.00     0.081 A 
ATOM     17  C   UNL d   1     -50.058  12.607  23.698  0.00  0.00     0.019 A 
ATOM     18  C   UNL d   1     -50.764  12.246  23.454  0.00  0.00     0.002 A 
ATOM     19  C   UNL d   1     -51.055  12.382  22.728  0.00  0.00     0.000 A 
ATOM     20  C   UNL d   1     -50.677  12.876  22.199  0.00  0.00     0.002 A 
ATOM     21  C   UNL d   1     -49.974  13.244  22.422  0.00  0.00     0.019 A 
ENDBRANCH  15  16
ENDBRANCH   8  15
BRANCH   1  22
ATOM     22  C   UNL d   1     -45.992  11.099  23.229  0.00  0.00     0.419 C 
ATOM     23  F   UNL d   1     -45.934  10.300  23.424  0.00  0.00    -0.166 F 
ATOM     24  F   UNL d   1     -45.320  11.278  23.698  0.00  0.00    -0.166 F 
ATOM     25  F   UNL d   1     -46.670  10.951  22.749  0.00  0.00    -0.166 F 
ENDBRANCH   1  22
TORSDOF 3
ENDMDL
