MODEL 1
REMARK VINA RESULT:      -2.5      0.000      0.000
REMARK  6 active torsions:
REMARK  status: ('A' for Active; 'I' for Inactive)
REMARK    1  A    between atoms: C_5  and  N_1 
REMARK    2  A    between atoms: C_4  and  C_5 
REMARK       I    between atoms: N_8  and  C_4 
REMARK    3  A    between atoms: C_6  and  C_9 
REMARK    4  A    between atoms: O_19  and  C_6 
REMARK    5  A    between atoms: C_16  and  N_8 
REMARK    6  A    between atoms: C_22  and  O_19 
ROOT
ATOM      1  C   UNL d   1     -41.605-122.860 -50.672  0.00  0.00     0.297 C 
ATOM      2  N   UNL d   1     -41.125-122.433 -51.194  0.00  0.00    -0.207 NA
ATOM      3  O   UNL d   1     -42.171-123.381 -50.969  0.00  0.00    -0.264 OA
ENDROOT
BRANCH   2   4
ATOM      4  C   UNL d   1     -41.214-122.527 -52.011  0.00  0.00     0.085 A 
ATOM      5  C   UNL d   1     -41.391-121.875 -52.485  0.00  0.00     0.019 A 
ATOM      6  C   UNL d   1     -41.476-121.985 -53.295  0.00  0.00     0.007 A 
ATOM      7  C   UNL d   1     -41.389-122.724 -53.635  0.00  0.00     0.064 A 
ATOM      8  C   UNL d   1     -41.212-123.373 -53.157  0.00  0.00     0.007 A 
ATOM      9  C   UNL d   1     -41.123-123.279 -52.341  0.00  0.00     0.019 A 
BRANCH   7  10
ATOM     10  C   UNL d   1     -41.477-122.823 -54.452  0.00  0.00     0.300 C 
ATOM     11  O   UNL d   1     -41.335-123.562 -54.791  0.00  0.00    -0.259 OA
BRANCH  10  12
ATOM     12  O   UNL d   1     -41.701-122.196 -54.921  0.00  0.00    -0.271 OA
BRANCH  12  13
ATOM     13  C   UNL d   1     -42.074-122.319 -55.644  0.00  0.00     0.126 C 
ATOM     14  C   UNL d   1     -42.547-121.745 -55.976  0.00  0.00     0.029 C 
ENDBRANCH  12  13
ENDBRANCH  10  12
ENDBRANCH   7  10
ENDBRANCH   2   4
BRANCH   1  15
ATOM     15  C   UNL d   1     -41.523-122.772 -49.864  0.00  0.00     0.148 C 
BRANCH  15  16
ATOM     16  N   UNL d   1     -42.111-123.049 -49.356  0.00  0.00    -0.235 N 
ATOM     17  C   UNL d   1     -42.900-122.830 -49.482  0.00  0.00     0.274 A 
ATOM     18  O   UNL d   1     -43.094-122.336 -50.116  0.00  0.00    -0.266 OA
ATOM     19  C   UNL d   1     -43.482-123.104 -48.979  0.00  0.00     0.097 A 
ATOM     20  S   UNL d   1     -43.298-123.594 -48.348  0.00  0.00    -0.076 SA
ATOM     21  C   UNL d   1     -42.518-123.813 -48.220  0.00  0.00     0.097 A 
ATOM     22  C   UNL d   1     -41.919-123.545 -48.720  0.00  0.00     0.274 A 
ATOM     23  O   UNL d   1     -41.135-123.763 -48.593  0.00  0.00    -0.266 OA
ENDBRANCH  15  16
ENDBRANCH   1  15
TORSDOF 6
ENDMDL
