MODEL 1
REMARK VINA RESULT:      -9.4      0.000      0.000
REMARK  3 active torsions:
REMARK  status: ('A' for Active; 'I' for Inactive)
REMARK    1  A    between atoms: C_8  and  N_1 
REMARK    2  A    between atoms: C_2  and  C_7 
REMARK    3  A    between atoms: C_7  and  C_9 
ROOT
ATOM      1  N   UNL d   1      50.438  34.133  52.365  0.00  0.00    -0.242 N 
ATOM      2  C   UNL d   1      50.539  33.570  52.972  0.00  0.00     0.267 A 
ATOM      3  C   UNL d   1      51.190  34.395  52.141  0.00  0.00     0.267 A 
ATOM      4  C   UNL d   1      51.753  34.001  52.602  0.00  0.00     0.062 A 
ATOM      5  C   UNL d   1      51.352  33.492  53.115  0.00  0.00     0.066 A 
ATOM      6  O   UNL d   1      49.934  33.168  53.356  0.00  0.00    -0.267 OA
ATOM      7  O   UNL d   1      51.346  34.957  51.554  0.00  0.00    -0.267 OA
ENDROOT
BRANCH   4   8
ATOM      8  C   UNL d   1      52.571  34.099  52.556  0.00  0.00     0.018 C 
BRANCH   8   9
ATOM      9  C   UNL d   1      52.964  33.868  53.238  0.00  0.00     0.045 A 
ATOM     10  N   UNL d   1      53.228  33.110  53.412  0.00  0.00    -0.308 N 
ATOM     11  C   UNL d   1      53.591  33.120  54.146  0.00  0.00     0.060 A 
ATOM     12  C   UNL d   1      53.142  32.447  52.925  0.00  0.00     0.099 C 
ATOM     13  C   UNL d   1      53.949  32.534  54.591  0.00  0.00     0.017 A 
ATOM     14  C   UNL d   1      53.553  33.889  54.434  0.00  0.00    -0.002 A 
ATOM     15  C   UNL d   1      54.275  32.714  55.332  0.00  0.00     0.002 A 
ATOM     16  C   UNL d   1      54.234  33.490  55.615  0.00  0.00    -0.000 A 
ATOM     17  C   UNL d   1      53.876  34.073  55.171  0.00  0.00    -0.003 A 
ATOM     18  C   UNL d   1      53.165  34.354  53.871  0.00  0.00     0.054 A 
ATOM     19  C   UNL d   1      53.421  34.729  54.565  0.00  0.00     0.010 C 
ATOM     20  C   UNL d   1      53.028  35.166  53.980  0.00  0.00     0.010 C 
ENDBRANCH   8   9
ENDBRANCH   4   8
BRANCH   1  21
ATOM     21  C   UNL d   1      49.727  34.383  52.048  0.00  0.00     0.070 A 
ATOM     22  C   UNL d   1      49.246  34.917  52.461  0.00  0.00     0.016 A 
ATOM     23  C   UNL d   1      48.530  35.163  52.133  0.00  0.00     0.001 A 
ATOM     24  C   UNL d   1      49.479  35.199  53.190  0.00  0.00     0.001 A 
ATOM     25  C   UNL d   1      48.054  35.692  52.542  0.00  0.00     0.000 A 
ATOM     26  C   UNL d   1      48.293  34.881  51.399  0.00  0.00     0.000 A 
ATOM     27  C   UNL d   1      48.284  35.977  53.275  0.00  0.00     0.000 A 
ATOM     28  C   UNL d   1      49.003  35.727  53.600  0.00  0.00     0.000 A 
ATOM     29  C   UNL d   1      48.774  34.347  50.986  0.00  0.00     0.002 A 
ATOM     30  C   UNL d   1      49.489  34.098  51.308  0.00  0.00     0.018 A 
ENDBRANCH   1  21
TORSDOF 3
ENDMDL
MODEL 2
REMARK VINA RESULT:      -7.6      0.787      5.107
REMARK  3 active torsions:
REMARK  status: ('A' for Active; 'I' for Inactive)
REMARK    1  A    between atoms: C_8  and  N_1 
REMARK    2  A    between atoms: C_2  and  C_7 
REMARK    3  A    between atoms: C_7  and  C_9 
ROOT
ATOM      1  N   UNL d   1      52.016  34.137  53.269  0.00  0.00    -0.242 N 
ATOM      2  C   UNL d   1      51.965  34.568  52.556  0.00  0.00     0.267 A 
ATOM      3  C   UNL d   1      51.284  33.774  53.393  0.00  0.00     0.267 A 
ATOM      4  C   UNL d   1      50.781  33.975  52.767  0.00  0.00     0.062 A 
ATOM      5  C   UNL d   1      51.201  34.464  52.250  0.00  0.00     0.066 A 
ATOM      6  O   UNL d   1      52.569  35.013  52.222  0.00  0.00    -0.267 OA
ATOM      7  O   UNL d   1      51.091  33.292  54.038  0.00  0.00    -0.267 OA
ENDROOT
BRANCH   4   8
ATOM      8  C   UNL d   1      49.999  33.729  52.676  0.00  0.00     0.018 C 
BRANCH   8   9
ATOM      9  C   UNL d   1      49.483  34.344  52.511  0.00  0.00     0.045 A 
ATOM     10  N   UNL d   1      49.217  34.911  53.042  0.00  0.00    -0.308 N 
ATOM     11  C   UNL d   1      48.710  35.422  52.651  0.00  0.00     0.060 A 
ATOM     12  C   UNL d   1      49.428  34.957  53.841  0.00  0.00     0.099 C 
ATOM     13  C   UNL d   1      48.290  36.078  52.901  0.00  0.00     0.017 A 
ATOM     14  C   UNL d   1      48.658  35.173  51.869  0.00  0.00    -0.002 A 
ATOM     15  C   UNL d   1      47.811  36.494  52.367  0.00  0.00     0.002 A 
ATOM     16  C   UNL d   1      47.764  36.238  51.581  0.00  0.00    -0.000 A 
ATOM     17  C   UNL d   1      48.183  35.584  51.334  0.00  0.00    -0.003 A 
ATOM     18  C   UNL d   1      49.137  34.505  51.781  0.00  0.00     0.054 A 
ATOM     19  C   UNL d   1      48.728  34.774  51.111  0.00  0.00     0.010 C 
ATOM     20  C   UNL d   1      49.217  34.106  51.057  0.00  0.00     0.010 C 
ENDBRANCH   8   9
ENDBRANCH   4   8
BRANCH   1  21
ATOM     21  C   UNL d   1      52.670  34.083  53.757  0.00  0.00     0.070 A 
ATOM     22  C   UNL d   1      53.196  33.446  53.686  0.00  0.00     0.016 A 
ATOM     23  C   UNL d   1      53.853  33.399  54.183  0.00  0.00     0.001 A 
ATOM     24  C   UNL d   1      53.065  32.866  53.128  0.00  0.00     0.001 A 
ATOM     25  C   UNL d   1      54.373  32.768  54.113  0.00  0.00     0.000 A 
ATOM     26  C   UNL d   1      53.987  33.981  54.746  0.00  0.00     0.000 A 
ATOM     27  C   UNL d   1      54.245  32.184  53.554  0.00  0.00     0.000 A 
ATOM     28  C   UNL d   1      53.585  32.235  53.058  0.00  0.00     0.000 A 
ATOM     29  C   UNL d   1      53.462  34.618  54.817  0.00  0.00     0.002 A 
ATOM     30  C   UNL d   1      52.804  34.671  54.324  0.00  0.00     0.018 A 
ENDBRANCH   1  21
TORSDOF 3
ENDMDL
MODEL 3
REMARK VINA RESULT:      -7.4      2.638      4.687
REMARK  3 active torsions:
REMARK  status: ('A' for Active; 'I' for Inactive)
REMARK    1  A    between atoms: C_8  and  N_1 
REMARK    2  A    between atoms: C_2  and  C_7 
REMARK    3  A    between atoms: C_7  and  C_9 
ROOT
ATOM      1  N   UNL d   1      52.971  31.090  53.247  0.00  0.00    -0.242 N 
ATOM      2  C   UNL d   1      52.311  31.599  53.298  0.00  0.00     0.267 A 
ATOM      3  C   UNL d   1      53.646  31.564  53.179  0.00  0.00     0.267 A 
ATOM      4  C   UNL d   1      53.412  32.357  53.188  0.00  0.00     0.062 A 
ATOM      5  C   UNL d   1      52.589  32.380  53.261  0.00  0.00     0.066 A 
ATOM      6  O   UNL d   1      51.529  31.361  53.371  0.00  0.00    -0.267 OA
ATOM      7  O   UNL d   1      54.422  31.284  53.114  0.00  0.00    -0.267 OA
ENDROOT
BRANCH   4   8
ATOM      8  C   UNL d   1      53.913  33.010  53.134  0.00  0.00     0.018 C 
BRANCH   8   9
ATOM      9  C   UNL d   1      53.669  33.645  53.592  0.00  0.00     0.045 A 
ATOM     10  N   UNL d   1      53.139  34.231  53.368  0.00  0.00    -0.308 N 
ATOM     11  C   UNL d   1      53.051  34.757  53.989  0.00  0.00     0.060 A 
ATOM     12  C   UNL d   1      52.758  34.279  52.636  0.00  0.00     0.099 C 
ATOM     13  C   UNL d   1      52.600  35.436  54.076  0.00  0.00     0.017 A 
ATOM     14  C   UNL d   1      53.529  34.500  54.606  0.00  0.00    -0.002 A 
ATOM     15  C   UNL d   1      52.625  35.864  54.786  0.00  0.00     0.002 A 
ATOM     16  C   UNL d   1      53.109  35.598  55.402  0.00  0.00    -0.000 A 
ATOM     17  C   UNL d   1      53.557  34.922  55.314  0.00  0.00    -0.003 A 
ATOM     18  C   UNL d   1      53.913  33.810  54.361  0.00  0.00     0.054 A 
ATOM     19  C   UNL d   1      54.075  34.086  55.126  0.00  0.00     0.010 C 
ATOM     20  C   UNL d   1      54.443  33.397  54.849  0.00  0.00     0.010 C 
ENDBRANCH   8   9
ENDBRANCH   4   8
BRANCH   1  21
ATOM     21  C   UNL d   1      52.955  30.272  53.260  0.00  0.00     0.070 A 
ATOM     22  C   UNL d   1      53.081  29.861  53.969  0.00  0.00     0.016 A 
ATOM     23  C   UNL d   1      53.064  29.036  53.973  0.00  0.00     0.001 A 
ATOM     24  C   UNL d   1      53.223  30.270  54.661  0.00  0.00     0.001 A 
ATOM     25  C   UNL d   1      53.189  28.629  54.675  0.00  0.00     0.000 A 
ATOM     26  C   UNL d   1      52.922  28.623  53.279  0.00  0.00     0.000 A 
ATOM     27  C   UNL d   1      53.331  29.036  55.371  0.00  0.00     0.000 A 
ATOM     28  C   UNL d   1      53.348  29.863  55.362  0.00  0.00     0.000 A 
ATOM     29  C   UNL d   1      52.795  29.034  52.570  0.00  0.00     0.002 A 
ATOM     30  C   UNL d   1      52.812  29.857  52.559  0.00  0.00     0.018 A 
ENDBRANCH   1  21
TORSDOF 3
ENDMDL
