MODEL 1
REMARK VINA RESULT:      38.2      0.000      0.000
REMARK  6 active torsions:
REMARK  status: ('A' for Active; 'I' for Inactive)
REMARK    1  A    between atoms: N_3  and  C_1 
REMARK       I    between atoms: C_7  and  N_3 
REMARK    2  A    between atoms: S_14  and  C_4 
REMARK    3  A    between atoms: C_8  and  C_7 
REMARK    4  A    between atoms: C_11  and  N_13 
REMARK    5  A    between atoms: C_12  and  C_21 
REMARK       I    between atoms: N_13  and  C_12 
REMARK    6  A    between atoms: C_21  and  S_14 
ROOT
ATOM      1  S   UNL d   1      14.434  15.073  -2.109  0.00  0.00    -0.054 SA
ENDROOT
BRANCH   1   2
ATOM      2  C   UNL d   1      13.931  14.810  -2.697  0.00  0.00     0.165 A 
ATOM      3  S   UNL d   1      14.079  14.118  -3.054  0.00  0.00    -0.019 SA
ATOM      4  C   UNL d   1      13.526  13.928  -3.635  0.00  0.00     0.219 A 
ATOM      5  N   UNL d   1      13.030  14.579  -3.589  0.00  0.00    -0.120 NA
ATOM      6  N   UNL d   1      13.285  15.097  -3.024  0.00  0.00    -0.133 NA
BRANCH   4   7
ATOM      7  N   UNL d   1      13.443  13.402  -4.064  0.00  0.00    -0.181 NA
ATOM      8  C   UNL d   1      13.198  12.597  -4.218  0.00  0.00     0.281 C 
ATOM      9  O   UNL d   1      12.899  12.183  -3.565  0.00  0.00    -0.265 OA
BRANCH   8  10
ATOM     10  C   UNL d   1      13.248  12.250  -4.946  0.00  0.00     0.058 A 
ATOM     11  C   UNL d   1      12.873  11.794  -5.531  0.00  0.00     0.005 A 
ATOM     12  C   UNL d   1      13.690  12.123  -5.565  0.00  0.00     0.005 A 
ENDBRANCH   8  10
ENDBRANCH   4   7
ENDBRANCH   1   2
BRANCH   1  13
ATOM     13  C   UNL d   1      14.608  14.642  -1.420  0.00  0.00     0.100 C 
BRANCH  13  14
ATOM     14  C   UNL d   1      14.902  14.990  -0.724  0.00  0.00     0.286 C 
ATOM     15  N   UNL d   1      15.018  14.547  -0.049  0.00  0.00    -0.208 NA
ATOM     16  O   UNL d   1      15.094  15.800  -0.673  0.00  0.00    -0.265 OA
BRANCH  15  17
ATOM     17  C   UNL d   1      14.827  13.719  -0.084  0.00  0.00     0.085 A 
ATOM     18  C   UNL d   1      14.039  13.557  -0.030  0.00  0.00     0.019 A 
ATOM     19  C   UNL d   1      13.823  12.807  -0.058  0.00  0.00     0.002 A 
ATOM     20  C   UNL d   1      13.084  12.537  -0.014  0.00  0.00     0.000 C 
ATOM     21  C   UNL d   1      14.381  12.178  -0.141  0.00  0.00     0.000 A 
ATOM     22  C   UNL d   1      15.217  12.381  -0.196  0.00  0.00     0.002 A 
ATOM     23  C   UNL d   1      15.442  13.174  -0.166  0.00  0.00     0.019 A 
ATOM     24  C   UNL d   1      15.728  11.779  -0.274  0.00  0.00     0.000 C 
ENDBRANCH  15  17
ENDBRANCH  13  14
ENDBRANCH   1  13
TORSDOF 6
ENDMDL
MODEL 2
REMARK VINA RESULT:      39.0      1.510      3.686
REMARK  6 active torsions:
REMARK  status: ('A' for Active; 'I' for Inactive)
REMARK    1  A    between atoms: N_3  and  C_1 
REMARK       I    between atoms: C_7  and  N_3 
REMARK    2  A    between atoms: S_14  and  C_4 
REMARK    3  A    between atoms: C_8  and  C_7 
REMARK    4  A    between atoms: C_11  and  N_13 
REMARK    5  A    between atoms: C_12  and  C_21 
REMARK       I    between atoms: N_13  and  C_12 
REMARK    6  A    between atoms: C_21  and  S_14 
ROOT
ATOM      1  S   UNL d   1      13.281  13.905  -3.777  0.00  0.00    -0.054 SA
ENDROOT
BRANCH   1   2
ATOM      2  C   UNL d   1      13.607  14.642  -3.638  0.00  0.00     0.165 A 
ATOM      3  S   UNL d   1      13.954  14.790  -2.941  0.00  0.00    -0.019 SA
ATOM      4  C   UNL d   1      14.256  15.555  -2.884  0.00  0.00     0.219 A 
ATOM      5  N   UNL d   1      14.053  15.851  -3.621  0.00  0.00    -0.120 NA
ATOM      6  N   UNL d   1      13.665  15.294  -4.060  0.00  0.00    -0.133 NA
BRANCH   4   7
ATOM      7  N   UNL d   1      14.588  15.905  -2.399  0.00  0.00    -0.181 NA
ATOM      8  C   UNL d   1      15.046  16.582  -2.151  0.00  0.00     0.281 C 
ATOM      9  O   UNL d   1      15.212  17.139  -2.743  0.00  0.00    -0.265 OA
BRANCH   8  10
ATOM     10  C   UNL d   1      15.308  16.688  -1.394  0.00  0.00     0.058 A 
ATOM     11  C   UNL d   1      15.253  16.460  -0.597  0.00  0.00     0.005 A 
ATOM     12  C   UNL d   1      15.786  17.078  -0.931  0.00  0.00     0.005 A 
ENDBRANCH   8  10
ENDBRANCH   4   7
ENDBRANCH   1   2
BRANCH   1  13
ATOM     13  C   UNL d   1      13.560  13.202  -3.432  0.00  0.00     0.100 C 
BRANCH  13  14
ATOM     14  C   UNL d   1      13.400  12.447  -3.739  0.00  0.00     0.286 C 
ATOM     15  N   UNL d   1      13.486  11.779  -3.280  0.00  0.00    -0.208 NA
ATOM     16  O   UNL d   1      13.146  12.326  -4.525  0.00  0.00    -0.265 OA
BRANCH  15  17
ATOM     17  C   UNL d   1      13.744  11.884  -2.477  0.00  0.00     0.085 A 
ATOM     18  C   UNL d   1      13.166  11.779  -1.925  0.00  0.00     0.019 A 
ATOM     19  C   UNL d   1      13.364  11.867  -1.174  0.00  0.00     0.002 A 
ATOM     20  C   UNL d   1      12.881  11.789  -0.557  0.00  0.00     0.000 C 
ATOM     21  C   UNL d   1      14.149  12.065  -0.934  0.00  0.00     0.000 A 
ATOM     22  C   UNL d   1      14.747  12.170  -1.546  0.00  0.00     0.002 A 
ATOM     23  C   UNL d   1      14.535  12.077  -2.337  0.00  0.00     0.019 A 
ATOM     24  C   UNL d   1      15.480  12.355  -1.303  0.00  0.00     0.000 C 
ENDBRANCH  15  17
ENDBRANCH  13  14
ENDBRANCH   1  13
TORSDOF 6
ENDMDL
MODEL 3
REMARK VINA RESULT:      41.2      1.968      2.805
REMARK  6 active torsions:
REMARK  status: ('A' for Active; 'I' for Inactive)
REMARK    1  A    between atoms: N_3  and  C_1 
REMARK       I    between atoms: C_7  and  N_3 
REMARK    2  A    between atoms: S_14  and  C_4 
REMARK    3  A    between atoms: C_8  and  C_7 
REMARK    4  A    between atoms: C_11  and  N_13 
REMARK    5  A    between atoms: C_12  and  C_21 
REMARK       I    between atoms: N_13  and  C_12 
REMARK    6  A    between atoms: C_21  and  S_14 
ROOT
ATOM      1  S   UNL d   1      15.367  14.509  -0.342  0.00  0.00    -0.054 SA
ENDROOT
BRANCH   1   2
ATOM      2  C   UNL d   1      15.156  15.100  -0.867  0.00  0.00     0.165 A 
ATOM      3  S   UNL d   1      14.939  14.907  -1.604  0.00  0.00    -0.019 SA
ATOM      4  C   UNL d   1      14.744  15.560  -2.067  0.00  0.00     0.219 A 
ATOM      5  N   UNL d   1      14.866  16.166  -1.529  0.00  0.00    -0.120 NA
ATOM      6  N   UNL d   1      15.112  15.876  -0.816  0.00  0.00    -0.133 NA
BRANCH   4   7
ATOM      7  N   UNL d   1      14.534  15.645  -2.712  0.00  0.00    -0.181 NA
ATOM      8  C   UNL d   1      14.625  16.003  -3.483  0.00  0.00     0.281 C 
ATOM      9  O   UNL d   1      15.269  16.519  -3.566  0.00  0.00    -0.265 OA
BRANCH   8  10
ATOM     10  C   UNL d   1      14.124  15.858  -4.101  0.00  0.00     0.058 A 
ATOM     11  C   UNL d   1      13.459  16.105  -4.535  0.00  0.00     0.005 A 
ATOM     12  C   UNL d   1      13.949  15.387  -4.686  0.00  0.00     0.005 A 
ENDBRANCH   8  10
ENDBRANCH   4   7
ENDBRANCH   1   2
BRANCH   1  13
ATOM     13  C   UNL d   1      15.212  13.702  -0.465  0.00  0.00     0.100 C 
BRANCH  13  14
ATOM     14  C   UNL d   1      15.788  13.108  -0.389  0.00  0.00     0.286 C 
ATOM     15  N   UNL d   1      15.611  12.328  -0.546  0.00  0.00    -0.208 NA
ATOM     16  O   UNL d   1      16.571  13.270  -0.150  0.00  0.00    -0.265 OA
BRANCH  15  17
ATOM     17  C   UNL d   1      14.818  12.145  -0.790  0.00  0.00     0.085 A 
ATOM     18  C   UNL d   1      14.727  12.058  -1.586  0.00  0.00     0.019 A 
ATOM     19  C   UNL d   1      14.011  11.889  -1.851  0.00  0.00     0.002 A 
ATOM     20  C   UNL d   1      13.810  11.783  -2.605  0.00  0.00     0.000 C 
ATOM     21  C   UNL d   1      13.348  11.799  -1.335  0.00  0.00     0.000 A 
ATOM     22  C   UNL d   1      13.475  11.898  -0.488  0.00  0.00     0.002 A 
ATOM     23  C   UNL d   1      14.232  12.076  -0.212  0.00  0.00     0.019 A 
ATOM     24  C   UNL d   1      12.842  11.809  -0.018  0.00  0.00     0.000 C 
ENDBRANCH  15  17
ENDBRANCH  13  14
ENDBRANCH   1  13
TORSDOF 6
ENDMDL
