MODEL 1
REMARK VINA RESULT:      -9.3      0.000      0.000
REMARK  4 active torsions:
REMARK  status: ('A' for Active; 'I' for Inactive)
REMARK       I    between atoms: N_2  and  C_1 
REMARK    1  A    between atoms: C_3  and  C_1 
REMARK    2  A    between atoms: C_7  and  N_2 
REMARK    3  A    between atoms: O_17  and  C_9 
REMARK    4  A    between atoms: C_18  and  O_17 
ROOT
ATOM      1  C   UNL d   1      53.307  34.984  54.450  0.00  0.00     0.279 C 
ATOM      2  N   UNL d   1      53.882  34.471  54.762  0.00  0.00    -0.208 NA
ATOM      3  O   UNL d   1      53.277  35.759  54.728  0.00  0.00    -0.265 OA
ENDROOT
BRANCH   2   4
ATOM      4  C   UNL d   1      53.925  33.692  54.494  0.00  0.00     0.085 A 
ATOM      5  C   UNL d   1      53.501  33.106  54.863  0.00  0.00     0.021 A 
ATOM      6  C   UNL d   1      53.544  32.327  54.596  0.00  0.00     0.026 A 
ATOM      7  C   UNL d   1      54.010  32.135  53.959  0.00  0.00     0.100 A 
ATOM      8  C   UNL d   1      54.462  32.733  53.559  0.00  0.00     0.026 A 
ATOM      9  C   UNL d   1      54.405  33.506  53.843  0.00  0.00     0.021 A 
BRANCH   7  10
ATOM     10  O   UNL d   1      54.042  31.351  53.704  0.00  0.00    -0.305 OA
BRANCH  10  11
ATOM     11  C   UNL d   1      53.363  30.981  53.464  0.00  0.00     0.123 C 
ATOM     12  C   UNL d   1      53.389  30.181  53.269  0.00  0.00     0.029 C 
ENDBRANCH  10  11
ENDBRANCH   7  10
ENDBRANCH   2   4
BRANCH   1  13
ATOM     13  C   UNL d   1      52.775  34.717  53.870  0.00  0.00     0.058 A 
ATOM     14  C   UNL d   1      52.963  34.801  53.071  0.00  0.00     0.006 A 
ATOM     15  C   UNL d   1      52.445  34.540  52.496  0.00  0.00     0.021 A 
ATOM     16  C   UNL d   1      51.709  34.182  52.710  0.00  0.00     0.103 A 
ATOM     17  C   UNL d   1      51.536  34.106  53.513  0.00  0.00     0.021 A 
ATOM     18  N   UNL d   1      51.300  33.976  52.184  0.00  0.00    -0.148 N 
ATOM     19  C   UNL d   1      52.068  34.373  54.093  0.00  0.00     0.006 A 
ENDBRANCH   1  13
TORSDOF 4
ENDMDL
MODEL 2
REMARK VINA RESULT:      -9.1      1.474      2.999
REMARK  4 active torsions:
REMARK  status: ('A' for Active; 'I' for Inactive)
REMARK       I    between atoms: N_2  and  C_1 
REMARK    1  A    between atoms: C_3  and  C_1 
REMARK    2  A    between atoms: C_7  and  N_2 
REMARK    3  A    between atoms: O_17  and  C_9 
REMARK    4  A    between atoms: C_18  and  O_17 
ROOT
ATOM      1  C   UNL d   1      54.680  33.855  54.978  0.00  0.00     0.279 C 
ATOM      2  N   UNL d   1      54.252  34.566  54.920  0.00  0.00    -0.208 NA
ATOM      3  O   UNL d   1      55.367  33.844  55.433  0.00  0.00    -0.265 OA
ENDROOT
BRANCH   2   4
ATOM      4  C   UNL d   1      53.563  34.593  54.469  0.00  0.00     0.085 A 
ATOM      5  C   UNL d   1      52.846  34.400  54.798  0.00  0.00     0.021 A 
ATOM      6  C   UNL d   1      52.157  34.428  54.346  0.00  0.00     0.026 A 
ATOM      7  C   UNL d   1      52.184  34.649  53.565  0.00  0.00     0.100 A 
ATOM      8  C   UNL d   1      52.924  34.856  53.202  0.00  0.00     0.026 A 
ATOM      9  C   UNL d   1      53.602  34.821  53.671  0.00  0.00     0.021 A 
BRANCH   7  10
ATOM     10  O   UNL d   1      51.486  34.672  53.127  0.00  0.00    -0.305 OA
BRANCH  10  11
ATOM     11  C   UNL d   1      51.343  34.099  52.574  0.00  0.00     0.123 C 
ATOM     12  C   UNL d   1      50.614  34.084  52.190  0.00  0.00     0.029 C 
ENDBRANCH  10  11
ENDBRANCH   7  10
ENDBRANCH   2   4
BRANCH   1  13
ATOM     13  C   UNL d   1      54.418  33.172  54.582  0.00  0.00     0.058 A 
ATOM     14  C   UNL d   1      53.913  32.645  54.966  0.00  0.00     0.006 A 
ATOM     15  C   UNL d   1      53.651  31.973  54.584  0.00  0.00     0.021 A 
ATOM     16  C   UNL d   1      53.893  31.807  53.791  0.00  0.00     0.103 A 
ATOM     17  C   UNL d   1      54.398  32.345  53.421  0.00  0.00     0.021 A 
ATOM     18  N   UNL d   1      53.644  31.221  53.507  0.00  0.00    -0.148 N 
ATOM     19  C   UNL d   1      54.661  33.027  53.816  0.00  0.00     0.006 A 
ENDBRANCH   1  13
TORSDOF 4
ENDMDL
MODEL 3
REMARK VINA RESULT:      -8.2      1.423      3.559
REMARK  4 active torsions:
REMARK  status: ('A' for Active; 'I' for Inactive)
REMARK       I    between atoms: N_2  and  C_1 
REMARK    1  A    between atoms: C_3  and  C_1 
REMARK    2  A    between atoms: C_7  and  N_2 
REMARK    3  A    between atoms: O_17  and  C_9 
REMARK    4  A    between atoms: C_18  and  O_17 
ROOT
ATOM      1  C   UNL d   1      53.655  31.420  53.366  0.00  0.00     0.279 C 
ATOM      2  N   UNL d   1      52.951  31.493  52.929  0.00  0.00    -0.208 NA
ATOM      3  O   UNL d   1      54.084  30.719  53.308  0.00  0.00    -0.265 OA
ENDROOT
BRANCH   2   4
ATOM      4  C   UNL d   1      52.510  32.189  52.977  0.00  0.00     0.085 A 
ATOM      5  C   UNL d   1      51.912  32.261  53.521  0.00  0.00     0.021 A 
ATOM      6  C   UNL d   1      51.470  32.956  53.568  0.00  0.00     0.026 A 
ATOM      7  C   UNL d   1      51.628  33.579  53.071  0.00  0.00     0.100 A 
ATOM      8  C   UNL d   1      52.250  33.523  52.494  0.00  0.00     0.026 A 
ATOM      9  C   UNL d   1      52.679  32.819  52.463  0.00  0.00     0.021 A 
BRANCH   7  10
ATOM     10  O   UNL d   1      51.178  34.267  53.130  0.00  0.00    -0.305 OA
BRANCH  10  11
ATOM     11  C   UNL d   1      50.463  34.310  52.753  0.00  0.00     0.123 C 
ATOM     12  C   UNL d   1      49.938  34.914  52.954  0.00  0.00     0.029 C 
ENDBRANCH  10  11
ENDBRANCH   7  10
ENDBRANCH   2   4
BRANCH   1  13
ATOM     13  C   UNL d   1      53.917  32.043  53.850  0.00  0.00     0.058 A 
ATOM     14  C   UNL d   1      54.422  32.618  53.541  0.00  0.00     0.006 A 
ATOM     15  C   UNL d   1      54.683  33.232  54.011  0.00  0.00     0.021 A 
ATOM     16  C   UNL d   1      54.440  33.289  54.819  0.00  0.00     0.103 A 
ATOM     17  C   UNL d   1      53.935  32.706  55.113  0.00  0.00     0.021 A 
ATOM     18  N   UNL d   1      54.689  33.832  55.180  0.00  0.00    -0.148 N 
ATOM     19  C   UNL d   1      53.673  32.083  54.629  0.00  0.00     0.006 A 
ENDBRANCH   1  13
TORSDOF 4
ENDMDL
MODEL 4
REMARK VINA RESULT:      -8.1      1.531      2.877
REMARK  4 active torsions:
REMARK  status: ('A' for Active; 'I' for Inactive)
REMARK       I    between atoms: N_2  and  C_1 
REMARK    1  A    between atoms: C_3  and  C_1 
REMARK    2  A    between atoms: C_7  and  N_2 
REMARK    3  A    between atoms: O_17  and  C_9 
REMARK    4  A    between atoms: C_18  and  O_17 
ROOT
ATOM      1  C   UNL d   1      52.749  33.044  52.846  0.00  0.00     0.279 C 
ATOM      2  N   UNL d   1      52.458  32.333  52.529  0.00  0.00    -0.208 NA
ATOM      3  O   UNL d   1      52.516  33.755  52.502  0.00  0.00    -0.265 OA
ENDROOT
BRANCH   2   4
ATOM      4  C   UNL d   1      52.683  31.613  52.863  0.00  0.00     0.085 A 
ATOM      5  C   UNL d   1      53.382  31.259  52.649  0.00  0.00     0.021 A 
ATOM      6  C   UNL d   1      53.607  30.539  52.983  0.00  0.00     0.026 A 
ATOM      7  C   UNL d   1      53.132  30.173  53.531  0.00  0.00     0.100 A 
ATOM      8  C   UNL d   1      52.396  30.526  53.768  0.00  0.00     0.026 A 
ATOM      9  C   UNL d   1      52.190  31.247  53.423  0.00  0.00     0.021 A 
BRANCH   7  10
ATOM     10  O   UNL d   1      53.370  29.453  53.855  0.00  0.00    -0.305 OA
BRANCH  10  11
ATOM     11  C   UNL d   1      53.257  29.315  54.645  0.00  0.00     0.123 C 
ATOM     12  C   UNL d   1      53.506  28.598  54.966  0.00  0.00     0.029 C 
ENDBRANCH  10  11
ENDBRANCH   7  10
ENDBRANCH   2   4
BRANCH   1  13
ATOM     13  C   UNL d   1      53.266  33.034  53.499  0.00  0.00     0.058 A 
ATOM     14  C   UNL d   1      52.962  33.105  54.262  0.00  0.00     0.006 A 
ATOM     15  C   UNL d   1      53.463  33.096  54.907  0.00  0.00     0.021 A 
ATOM     16  C   UNL d   1      54.299  33.014  54.802  0.00  0.00     0.103 A 
ATOM     17  C   UNL d   1      54.585  32.945  54.031  0.00  0.00     0.021 A 
ATOM     18  N   UNL d   1      54.685  33.012  55.382  0.00  0.00    -0.148 N 
ATOM     19  C   UNL d   1      54.070  32.954  53.380  0.00  0.00     0.006 A 
ENDBRANCH   1  13
TORSDOF 4
ENDMDL
MODEL 5
REMARK VINA RESULT:      -7.6      1.198      2.448
REMARK  4 active torsions:
REMARK  status: ('A' for Active; 'I' for Inactive)
REMARK       I    between atoms: N_2  and  C_1 
REMARK    1  A    between atoms: C_3  and  C_1 
REMARK    2  A    between atoms: C_7  and  N_2 
REMARK    3  A    between atoms: O_17  and  C_9 
REMARK    4  A    between atoms: C_18  and  O_17 
ROOT
ATOM      1  C   UNL d   1      52.863  35.167  54.112  0.00  0.00     0.279 C 
ATOM      2  N   UNL d   1      52.316  34.896  53.548  0.00  0.00    -0.208 NA
ATOM      3  O   UNL d   1      52.857  35.965  54.316  0.00  0.00    -0.265 OA
ENDROOT
BRANCH   2   4
ATOM      4  C   UNL d   1      52.309  34.099  53.333  0.00  0.00     0.085 A 
ATOM      5  C   UNL d   1      52.815  33.822  52.761  0.00  0.00     0.021 A 
ATOM      6  C   UNL d   1      52.808  33.026  52.546  0.00  0.00     0.026 A 
ATOM      7  C   UNL d   1      52.295  32.507  52.903  0.00  0.00     0.100 A 
ATOM      8  C   UNL d   1      51.759  32.776  53.504  0.00  0.00     0.026 A 
ATOM      9  C   UNL d   1      51.781  33.577  53.705  0.00  0.00     0.021 A 
BRANCH   7  10
ATOM     10  O   UNL d   1      52.301  31.714  52.677  0.00  0.00    -0.305 OA
BRANCH  10  11
ATOM     11  C   UNL d   1      52.858  31.215  52.986  0.00  0.00     0.123 C 
ATOM     12  C   UNL d   1      52.800  30.406  52.839  0.00  0.00     0.029 C 
ENDBRANCH  10  11
ENDBRANCH   7  10
ENDBRANCH   2   4
BRANCH   1  13
ATOM     13  C   UNL d   1      53.404  34.640  54.461  0.00  0.00     0.058 A 
ATOM     14  C   UNL d   1      53.206  34.256  55.164  0.00  0.00     0.006 A 
ATOM     15  C   UNL d   1      53.732  33.737  55.512  0.00  0.00     0.021 A 
ATOM     16  C   UNL d   1      54.486  33.587  55.158  0.00  0.00     0.103 A 
ATOM     17  C   UNL d   1      54.668  33.980  54.456  0.00  0.00     0.021 A 
ATOM     18  N   UNL d   1      54.901  33.137  55.493  0.00  0.00    -0.148 N 
ATOM     19  C   UNL d   1      54.128  34.506  54.106  0.00  0.00     0.006 A 
ENDBRANCH   1  13
TORSDOF 4
ENDMDL
