MODEL 1
REMARK VINA RESULT:       4.2      0.000      0.000
REMARK  2 active torsions:
REMARK  status: ('A' for Active; 'I' for Inactive)
REMARK    1  A    between atoms: C_9  and  N_2 
REMARK    2  A    between atoms: C_7  and  C_4 
ROOT
ATOM      1  C   UNL d   1     -41.876-123.224 -48.821  0.00  0.00     0.136 A 
ATOM      2  N   UNL d   1     -42.330-122.933 -49.448  0.00  0.00    -0.281 N 
ATOM      3  C   UNL d   1     -42.183-123.204 -48.053  0.00  0.00     0.152 A 
ATOM      4  C   UNL d   1     -43.089-122.623 -49.303  0.00  0.00     0.175 A 
ATOM      5  N   UNL d   1     -43.389-122.607 -48.533  0.00  0.00    -0.188 NA
ATOM      6  C   UNL d   1     -42.935-122.897 -47.909  0.00  0.00     0.292 A 
ATOM      7  C   UNL d   1     -41.730-123.494 -47.429  0.00  0.00     0.108 C 
ATOM      8  N   UNL d   1     -41.276-123.786 -46.798  0.00  0.00    -0.191 NA
ATOM      9  S   UNL d   1     -41.123-123.532 -48.956  0.00  0.00    -0.058 SA
ATOM     10  O   UNL d   1     -43.234-122.882 -47.134  0.00  0.00    -0.264 OA
ENDROOT
BRANCH   2  11
ATOM     11  C   UNL d   1     -42.029-122.951 -50.211  0.00  0.00     0.066 A 
ATOM     12  C   UNL d   1     -42.120-123.631 -50.670  0.00  0.00     0.020 A 
ATOM     13  C   UNL d   1     -41.818-123.646 -51.435  0.00  0.00     0.031 A 
ATOM     14  C   UNL d   1     -41.426-122.986 -51.744  0.00  0.00     0.140 A 
ATOM     15  C   UNL d   1     -41.336-122.304 -51.281  0.00  0.00     0.031 A 
ATOM     16  F   UNL d   1     -41.125-123.008 -52.515  0.00  0.00    -0.204 F 
ATOM     17  C   UNL d   1     -41.639-122.288 -50.515  0.00  0.00     0.020 A 
ENDBRANCH   2  11
BRANCH   4  18
ATOM     18  C   UNL d   1     -43.543-122.333 -49.927  0.00  0.00     0.135 A 
ATOM     19  O   UNL d   1     -43.370-121.671 -50.381  0.00  0.00    -0.302 OA
ATOM     20  C   UNL d   1     -43.968-121.587 -50.936  0.00  0.00     0.123 A 
ATOM     21  C   UNL d   1     -44.509-122.196 -50.826  0.00  0.00     0.029 A 
ATOM     22  C   UNL d   1     -44.256-122.659 -50.209  0.00  0.00     0.030 A 
ENDBRANCH   4  18
TORSDOF 2
ENDMDL
MODEL 2
REMARK VINA RESULT:       5.1      2.603      4.326
REMARK  2 active torsions:
REMARK  status: ('A' for Active; 'I' for Inactive)
REMARK    1  A    between atoms: C_9  and  N_2 
REMARK    2  A    between atoms: C_7  and  C_4 
ROOT
ATOM      1  C   UNL d   1     -41.772-123.037 -52.989  0.00  0.00     0.136 A 
ATOM      2  N   UNL d   1     -41.668-122.564 -52.320  0.00  0.00    -0.281 N 
ATOM      3  C   UNL d   1     -41.614-122.723 -53.739  0.00  0.00     0.152 A 
ATOM      4  C   UNL d   1     -41.407-121.777 -52.403  0.00  0.00     0.175 A 
ATOM      5  N   UNL d   1     -41.251-121.471 -53.155  0.00  0.00    -0.188 NA
ATOM      6  C   UNL d   1     -41.355-121.944 -53.821  0.00  0.00     0.292 A 
ATOM      7  C   UNL d   1     -41.718-123.196 -54.405  0.00  0.00     0.108 C 
ATOM      8  N   UNL d   1     -41.821-123.669 -55.079  0.00  0.00    -0.191 NA
ATOM      9  S   UNL d   1     -42.031-123.817 -52.916  0.00  0.00    -0.058 SA
ATOM     10  O   UNL d   1     -41.199-121.638 -54.578  0.00  0.00    -0.264 OA
ENDROOT
BRANCH   2  11
ATOM     11  C   UNL d   1     -41.824-122.871 -51.575  0.00  0.00     0.066 A 
ATOM     12  C   UNL d   1     -41.248-123.320 -51.191  0.00  0.00     0.020 A 
ATOM     13  C   UNL d   1     -41.406-123.627 -50.444  0.00  0.00     0.031 A 
ATOM     14  C   UNL d   1     -42.136-123.488 -50.079  0.00  0.00     0.140 A 
ATOM     15  C   UNL d   1     -42.712-123.036 -50.468  0.00  0.00     0.031 A 
ATOM     16  F   UNL d   1     -42.288-123.800 -49.328  0.00  0.00    -0.204 F 
ATOM     17  C   UNL d   1     -42.554-122.728 -51.216  0.00  0.00     0.020 A 
ENDBRANCH   2  11
BRANCH   4  18
ATOM     18  C   UNL d   1     -41.303-121.304 -51.736  0.00  0.00     0.135 A 
ATOM     19  O   UNL d   1     -41.208-121.572 -50.966  0.00  0.00    -0.302 OA
ATOM     20  C   UNL d   1     -41.123-120.914 -50.483  0.00  0.00     0.123 A 
ATOM     21  C   UNL d   1     -41.165-120.241 -50.954  0.00  0.00     0.029 A 
ATOM     22  C   UNL d   1     -41.276-120.471 -51.725  0.00  0.00     0.030 A 
ENDBRANCH   4  18
TORSDOF 2
ENDMDL
MODEL 3
REMARK VINA RESULT:       6.7      3.147      4.853
REMARK  2 active torsions:
REMARK  status: ('A' for Active; 'I' for Inactive)
REMARK    1  A    between atoms: C_9  and  N_2 
REMARK    2  A    between atoms: C_7  and  C_4 
ROOT
ATOM      1  C   UNL d   1     -41.771-121.910 -53.872  0.00  0.00     0.136 A 
ATOM      2  N   UNL d   1     -41.759-122.192 -53.095  0.00  0.00    -0.281 N 
ATOM      3  C   UNL d   1     -41.819-122.448 -54.499  0.00  0.00     0.152 A 
ATOM      4  C   UNL d   1     -41.796-123.011 -52.948  0.00  0.00     0.175 A 
ATOM      5  N   UNL d   1     -41.843-123.542 -53.580  0.00  0.00    -0.188 NA
ATOM      6  C   UNL d   1     -41.855-123.260 -54.354  0.00  0.00     0.292 A 
ATOM      7  C   UNL d   1     -41.830-122.166 -55.273  0.00  0.00     0.108 C 
ATOM      8  N   UNL d   1     -41.842-121.886 -56.054  0.00  0.00    -0.191 NA
ATOM      9  S   UNL d   1     -41.735-121.101 -54.025  0.00  0.00    -0.058 SA
ATOM     10  O   UNL d   1     -41.903-123.791 -54.991  0.00  0.00    -0.264 OA
ENDROOT
BRANCH   2  11
ATOM     11  C   UNL d   1     -41.712-121.663 -52.469  0.00  0.00     0.066 A 
ATOM     12  C   UNL d   1     -41.168-121.043 -52.501  0.00  0.00     0.020 A 
ATOM     13  C   UNL d   1     -41.123-120.513 -51.872  0.00  0.00     0.031 A 
ATOM     14  C   UNL d   1     -41.617-120.600 -51.214  0.00  0.00     0.140 A 
ATOM     15  C   UNL d   1     -42.162-121.224 -51.186  0.00  0.00     0.031 A 
ATOM     16  F   UNL d   1     -41.566-120.063 -50.585  0.00  0.00    -0.204 F 
ATOM     17  C   UNL d   1     -42.208-121.754 -51.815  0.00  0.00     0.020 A 
ENDBRANCH   2  11
BRANCH   4  18
ATOM     18  C   UNL d   1     -41.784-123.294 -52.174  0.00  0.00     0.135 A 
ATOM     19  O   UNL d   1     -42.424-123.314 -51.660  0.00  0.00    -0.302 OA
ATOM     20  C   UNL d   1     -42.163-123.637 -50.952  0.00  0.00     0.123 A 
ATOM     21  C   UNL d   1     -41.364-123.816 -51.029  0.00  0.00     0.029 A 
ATOM     22  C   UNL d   1     -41.123-123.608 -51.776  0.00  0.00     0.030 A 
ENDBRANCH   4  18
TORSDOF 2
ENDMDL
