MODEL 1
REMARK VINA RESULT:      -8.0      0.000      0.000
REMARK  5 active torsions:
REMARK  status: ('A' for Active; 'I' for Inactive)
REMARK    1  A    between atoms: C_6  and  N_1 
REMARK    2  A    between atoms: O_9  and  C_6 
REMARK    3  A    between atoms: C_8  and  O_9 
REMARK    4  A    between atoms: C_12  and  C_8 
REMARK    5  A    between atoms: C_14  and  C_12 
ROOT
ATOM      1  N   UNL d   1      52.223  33.965  53.201  0.00  0.00    -0.150 N 
ATOM      2  N   UNL d   1      52.354  34.616  53.690  0.00  0.00    -0.055 NA
ATOM      3  C   UNL d   1      52.711  33.296  53.244  0.00  0.00     0.285 A 
ATOM      4  N   UNL d   1      52.975  34.605  54.227  0.00  0.00    -0.130 NA
ATOM      5  C   UNL d   1      53.332  33.300  53.789  0.00  0.00     0.077 A 
ATOM      6  C   UNL d   1      53.463  33.952  54.278  0.00  0.00     0.109 A 
ATOM      7  O   UNL d   1      52.581  32.651  52.760  0.00  0.00    -0.265 OA
ATOM      8  C   UNL d   1      53.823  32.641  53.840  0.00  0.00     0.006 A 
ATOM      9  C   UNL d   1      54.085  33.941  54.815  0.00  0.00     0.021 A 
ATOM     10  C   UNL d   1      54.444  32.631  54.377  0.00  0.00     0.000 A 
ATOM     11  C   UNL d   1      54.576  33.285  54.868  0.00  0.00     0.002 A 
ENDROOT
BRANCH   1  12
ATOM     12  C   UNL d   1      51.597  33.974  52.660  0.00  0.00     0.233 C 
BRANCH  12  13
ATOM     13  O   UNL d   1      50.951  34.470  52.785  0.00  0.00    -0.251 OA
BRANCH  13  14
ATOM     14  C   UNL d   1      50.297  34.423  52.289  0.00  0.00     0.302 C 
ATOM     15  O   UNL d   1      50.393  34.469  51.471  0.00  0.00    -0.259 OA
BRANCH  14  16
ATOM     16  C   UNL d   1      49.544  34.329  52.611  0.00  0.00     0.069 C 
BRANCH  16  17
ATOM     17  C   UNL d   1      49.002  34.853  52.465  0.00  0.00     0.005 A 
ATOM     18  C   UNL d   1      48.592  34.851  51.749  0.00  0.00     0.000 A 
ATOM     19  C   UNL d   1      48.005  35.417  51.590  0.00  0.00     0.000 A 
ATOM     20  C   UNL d   1      47.828  35.996  52.162  0.00  0.00     0.000 A 
ATOM     21  C   UNL d   1      48.235  36.004  52.884  0.00  0.00     0.000 A 
ATOM     22  C   UNL d   1      48.826  35.434  53.046  0.00  0.00     0.000 A 
ENDBRANCH  16  17
ENDBRANCH  14  16
ENDBRANCH  13  14
ENDBRANCH  12  13
ENDBRANCH   1  12
TORSDOF 5
ENDMDL
MODEL 2
REMARK VINA RESULT:      -8.0      1.622      5.295
REMARK  5 active torsions:
REMARK  status: ('A' for Active; 'I' for Inactive)
REMARK    1  A    between atoms: C_6  and  N_1 
REMARK    2  A    between atoms: O_9  and  C_6 
REMARK    3  A    between atoms: C_8  and  O_9 
REMARK    4  A    between atoms: C_12  and  C_8 
REMARK    5  A    between atoms: C_14  and  C_12 
ROOT
ATOM      1  N   UNL d   1      49.072  35.136  52.641  0.00  0.00    -0.150 N 
ATOM      2  N   UNL d   1      49.051  35.584  53.334  0.00  0.00    -0.055 NA
ATOM      3  C   UNL d   1      48.460  35.187  52.083  0.00  0.00     0.285 A 
ATOM      4  N   UNL d   1      48.418  36.087  53.475  0.00  0.00    -0.130 NA
ATOM      5  C   UNL d   1      47.830  35.698  52.240  0.00  0.00     0.077 A 
ATOM      6  C   UNL d   1      47.809  36.146  52.933  0.00  0.00     0.109 A 
ATOM      7  O   UNL d   1      48.481  34.744  51.397  0.00  0.00    -0.265 OA
ATOM      8  C   UNL d   1      47.218  35.756  51.692  0.00  0.00     0.006 A 
ATOM      9  C   UNL d   1      47.176  36.649  53.074  0.00  0.00     0.021 A 
ATOM     10  C   UNL d   1      46.585  36.260  51.835  0.00  0.00     0.000 A 
ATOM     11  C   UNL d   1      46.564  36.709  52.531  0.00  0.00     0.002 A 
ENDROOT
BRANCH   1  12
ATOM     12  C   UNL d   1      49.709  34.628  52.496  0.00  0.00     0.233 C 
BRANCH  12  13
ATOM     13  O   UNL d   1      50.386  34.674  52.963  0.00  0.00    -0.251 OA
BRANCH  13  14
ATOM     14  C   UNL d   1      50.957  34.084  52.915  0.00  0.00     0.302 C 
ATOM     15  O   UNL d   1      50.756  33.299  53.071  0.00  0.00    -0.259 OA
BRANCH  14  16
ATOM     16  C   UNL d   1      51.731  34.278  52.710  0.00  0.00     0.069 C 
BRANCH  16  17
ATOM     17  C   UNL d   1      52.295  34.178  53.221  0.00  0.00     0.005 A 
ATOM     18  C   UNL d   1      52.639  33.437  53.334  0.00  0.00     0.000 A 
ATOM     19  C   UNL d   1      53.249  33.328  53.886  0.00  0.00     0.000 A 
ATOM     20  C   UNL d   1      53.518  33.976  54.335  0.00  0.00     0.000 A 
ATOM     21  C   UNL d   1      53.177  34.724  54.228  0.00  0.00     0.000 A 
ATOM     22  C   UNL d   1      52.562  34.835  53.671  0.00  0.00     0.000 A 
ENDBRANCH  16  17
ENDBRANCH  14  16
ENDBRANCH  13  14
ENDBRANCH  12  13
ENDBRANCH   1  12
TORSDOF 5
ENDMDL
MODEL 3
REMARK VINA RESULT:      -7.4      1.253      5.184
REMARK  5 active torsions:
REMARK  status: ('A' for Active; 'I' for Inactive)
REMARK    1  A    between atoms: C_6  and  N_1 
REMARK    2  A    between atoms: O_9  and  C_6 
REMARK    3  A    between atoms: C_8  and  O_9 
REMARK    4  A    between atoms: C_12  and  C_8 
REMARK    5  A    between atoms: C_14  and  C_12 
ROOT
ATOM      1  N   UNL d   1      50.399  34.515  52.547  0.00  0.00    -0.150 N 
ATOM      2  N   UNL d   1      50.576  34.160  51.824  0.00  0.00    -0.055 NA
ATOM      3  C   UNL d   1      49.667  34.884  52.671  0.00  0.00     0.285 A 
ATOM      4  N   UNL d   1      50.023  34.170  51.218  0.00  0.00    -0.130 NA
ATOM      5  C   UNL d   1      49.121  34.886  52.052  0.00  0.00     0.077 A 
ATOM      6  C   UNL d   1      49.298  34.530  51.329  0.00  0.00     0.109 A 
ATOM      7  O   UNL d   1      49.492  35.236  53.387  0.00  0.00    -0.265 OA
ATOM      8  C   UNL d   1      48.390  35.250  52.165  0.00  0.00     0.006 A 
ATOM      9  C   UNL d   1      48.743  34.541  50.722  0.00  0.00     0.021 A 
ATOM     10  C   UNL d   1      47.837  35.260  51.558  0.00  0.00     0.000 A 
ATOM     11  C   UNL d   1      48.015  34.902  50.832  0.00  0.00     0.002 A 
ENDROOT
BRANCH   1  12
ATOM     12  C   UNL d   1      50.956  34.506  53.159  0.00  0.00     0.233 C 
BRANCH  12  13
ATOM     13  O   UNL d   1      51.687  34.143  53.045  0.00  0.00    -0.251 OA
BRANCH  13  14
ATOM     14  C   UNL d   1      52.276  34.223  53.614  0.00  0.00     0.302 C 
ATOM     15  O   UNL d   1      52.632  34.957  53.741  0.00  0.00    -0.259 OA
BRANCH  14  16
ATOM     16  C   UNL d   1      52.511  33.569  54.056  0.00  0.00     0.069 C 
BRANCH  16  17
ATOM     17  C   UNL d   1      53.255  33.388  54.098  0.00  0.00     0.005 A 
ATOM     18  C   UNL d   1      53.626  32.967  53.493  0.00  0.00     0.000 A 
ATOM     19  C   UNL d   1      54.431  32.770  53.537  0.00  0.00     0.000 A 
ATOM     20  C   UNL d   1      54.873  33.002  54.204  0.00  0.00     0.000 A 
ATOM     21  C   UNL d   1      54.509  33.425  54.817  0.00  0.00     0.000 A 
ATOM     22  C   UNL d   1      53.697  33.624  54.773  0.00  0.00     0.000 A 
ENDBRANCH  16  17
ENDBRANCH  14  16
ENDBRANCH  13  14
ENDBRANCH  12  13
ENDBRANCH   1  12
TORSDOF 5
ENDMDL
MODEL 4
REMARK VINA RESULT:      -5.5     10.308     11.058
REMARK  5 active torsions:
REMARK  status: ('A' for Active; 'I' for Inactive)
REMARK    1  A    between atoms: C_6  and  N_1 
REMARK    2  A    between atoms: O_9  and  C_6 
REMARK    3  A    between atoms: C_8  and  O_9 
REMARK    4  A    between atoms: C_12  and  C_8 
REMARK    5  A    between atoms: C_14  and  C_12 
ROOT
ATOM      1  N   UNL d   1      45.019  27.817  58.088  0.00  0.00    -0.150 N 
ATOM      2  N   UNL d   1      45.031  27.230  58.667  0.00  0.00    -0.055 NA
ATOM      3  C   UNL d   1      44.926  27.624  57.288  0.00  0.00     0.285 A 
ATOM      4  N   UNL d   1      44.952  26.442  58.450  0.00  0.00    -0.130 NA
ATOM      5  C   UNL d   1      44.847  26.827  57.086  0.00  0.00     0.077 A 
ATOM      6  C   UNL d   1      44.860  26.239  57.664  0.00  0.00     0.109 A 
ATOM      7  O   UNL d   1      44.914  28.206  56.714  0.00  0.00    -0.265 OA
ATOM      8  C   UNL d   1      44.754  26.624  56.293  0.00  0.00     0.006 A 
ATOM      9  C   UNL d   1      44.780  25.451  57.447  0.00  0.00     0.021 A 
ATOM     10  C   UNL d   1      44.675  25.835  56.077  0.00  0.00     0.000 A 
ATOM     11  C   UNL d   1      44.687  25.245  56.658  0.00  0.00     0.002 A 
ENDROOT
BRANCH   1  12
ATOM     12  C   UNL d   1      45.099  28.612  58.305  0.00  0.00     0.233 C 
BRANCH  12  13
ATOM     13  O   UNL d   1      44.965  28.842  59.085  0.00  0.00    -0.251 OA
BRANCH  13  14
ATOM     14  C   UNL d   1      44.958  29.641  59.280  0.00  0.00     0.302 C 
ATOM     15  O   UNL d   1      45.592  30.125  59.071  0.00  0.00    -0.259 OA
BRANCH  14  16
ATOM     16  C   UNL d   1      44.314  29.957  59.686  0.00  0.00     0.069 C 
BRANCH  16  17
ATOM     17  C   UNL d   1      44.410  30.221  60.401  0.00  0.00     0.005 A 
ATOM     18  C   UNL d   1      44.538  29.703  61.031  0.00  0.00     0.000 A 
ATOM     19  C   UNL d   1      44.642  29.987  61.804  0.00  0.00     0.000 A 
ATOM     20  C   UNL d   1      44.615  30.807  61.947  0.00  0.00     0.000 A 
ATOM     21  C   UNL d   1      44.487  31.334  61.320  0.00  0.00     0.000 A 
ATOM     22  C   UNL d   1      44.382  31.049  60.540  0.00  0.00     0.000 A 
ENDBRANCH  16  17
ENDBRANCH  14  16
ENDBRANCH  13  14
ENDBRANCH  12  13
ENDBRANCH   1  12
TORSDOF 5
ENDMDL
MODEL 5
REMARK VINA RESULT:      -5.3     10.416     11.407
REMARK  5 active torsions:
REMARK  status: ('A' for Active; 'I' for Inactive)
REMARK    1  A    between atoms: C_6  and  N_1 
REMARK    2  A    between atoms: O_9  and  C_6 
REMARK    3  A    between atoms: C_8  and  O_9 
REMARK    4  A    between atoms: C_12  and  C_8 
REMARK    5  A    between atoms: C_14  and  C_12 
ROOT
ATOM      1  N   UNL d   1      44.677  30.154  59.111  0.00  0.00    -0.150 N 
ATOM      2  N   UNL d   1      44.512  29.359  58.969  0.00  0.00    -0.055 NA
ATOM      3  C   UNL d   1      44.729  30.696  58.485  0.00  0.00     0.285 A 
ATOM      4  N   UNL d   1      44.397  29.097  58.199  0.00  0.00    -0.130 NA
ATOM      5  C   UNL d   1      44.610  30.417  57.717  0.00  0.00     0.077 A 
ATOM      6  C   UNL d   1      44.445  29.622  57.575  0.00  0.00     0.109 A 
ATOM      7  O   UNL d   1      44.892  31.484  58.626  0.00  0.00    -0.265 OA
ATOM      8  C   UNL d   1      44.660  30.948  57.088  0.00  0.00     0.006 A 
ATOM      9  C   UNL d   1      44.330  29.360  56.805  0.00  0.00     0.021 A 
ATOM     10  C   UNL d   1      44.544  30.685  56.319  0.00  0.00     0.000 A 
ATOM     11  C   UNL d   1      44.378  29.886  56.176  0.00  0.00     0.002 A 
ENDROOT
BRANCH   1  12
ATOM     12  C   UNL d   1      44.793  30.420  59.886  0.00  0.00     0.233 C 
BRANCH  12  13
ATOM     13  O   UNL d   1      44.568  29.946  60.521  0.00  0.00    -0.251 OA
BRANCH  13  14
ATOM     14  C   UNL d   1      44.695  30.208  61.292  0.00  0.00     0.302 C 
ATOM     15  O   UNL d   1      44.314  30.886  61.566  0.00  0.00    -0.259 OA
BRANCH  14  16
ATOM     16  C   UNL d   1      45.203  29.790  61.787  0.00  0.00     0.069 C 
BRANCH  16  17
ATOM     17  C   UNL d   1      44.922  29.441  62.410  0.00  0.00     0.005 A 
ATOM     18  C   UNL d   1      44.642  29.876  63.052  0.00  0.00     0.000 A 
ATOM     19  C   UNL d   1      44.337  29.499  63.726  0.00  0.00     0.000 A 
ATOM     20  C   UNL d   1      44.315  28.667  63.755  0.00  0.00     0.000 A 
ATOM     21  C   UNL d   1      44.595  28.221  63.115  0.00  0.00     0.000 A 
ATOM     22  C   UNL d   1      44.902  28.601  62.435  0.00  0.00     0.000 A 
ENDBRANCH  16  17
ENDBRANCH  14  16
ENDBRANCH  13  14
ENDBRANCH  12  13
ENDBRANCH   1  12
TORSDOF 5
ENDMDL
