MODEL 1
REMARK VINA RESULT:      72.5      0.000      0.000
REMARK  4 active torsions:
REMARK  status: ('A' for Active; 'I' for Inactive)
REMARK    1  A    between atoms: N_6  and  S_1 
REMARK    2  A    between atoms: C_10  and  S_1 
REMARK    3  A    between atoms: S_2  and  C_11 
REMARK    4  A    between atoms: N_7  and  S_2 
REMARK       I    between atoms: C_14  and  N_6 
REMARK       I    between atoms: C_15  and  N_7 
ROOT
ATOM      1  C   UNL d   1     -50.947  26.000  33.658  0.00  0.00     0.040 A 
ATOM      2  C   UNL d   1     -50.133  27.040  33.814  0.00  0.00     0.040 A 
ATOM      3  C   UNL d   1     -50.925  26.813  33.740  0.00  0.00     0.196 A 
ATOM      4  C   UNL d   1     -49.677  26.358  33.777  0.00  0.00     0.003 A 
ATOM      5  C   UNL d   1     -50.172  25.717  33.681  0.00  0.00     0.003 A 
ATOM      6  C   UNL d   1     -51.430  24.661  33.494  0.00  0.00     0.105 A 
ATOM      7  C   UNL d   1     -48.964  27.822  33.968  0.00  0.00     0.105 A 
ATOM      8  C   UNL d   1     -51.583  25.462  33.563  0.00  0.00     0.016 A 
ATOM      9  C   UNL d   1     -49.778  27.780  33.911  0.00  0.00     0.016 A 
ATOM     10  C   UNL d   1     -48.857  26.409  33.836  0.00  0.00     0.001 A 
ATOM     11  C   UNL d   1     -50.023  24.903  33.611  0.00  0.00     0.001 A 
ATOM     12  O   UNL d   1     -51.574  27.328  33.748  0.00  0.00    -0.287 OA
ATOM     13  C   UNL d   1     -48.495  27.145  33.932  0.00  0.00     0.013 A 
ATOM     14  C   UNL d   1     -50.655  24.373  33.517  0.00  0.00     0.013 A 
ENDROOT
BRANCH   6  15
ATOM     15  S   UNL d   1     -52.053  24.128  33.401  0.00  0.00     0.288 S 
ATOM     16  O   UNL d   1     -52.584  24.761  33.406  0.00  0.00    -0.198 OA
ATOM     17  O   UNL d   1     -51.529  23.485  33.394  0.00  0.00    -0.198 OA
BRANCH  15  18
ATOM     18  N   UNL d   1     -52.699  23.597  33.306  0.00  0.00    -0.118 NA
ATOM     19  C   UNL d   1     -53.425  23.771  33.659  0.00  0.00     0.289 C 
ATOM     20  O   UNL d   1     -53.515  24.468  34.106  0.00  0.00    -0.265 OA
ATOM     21  C   UNL d   1     -54.054  23.263  33.570  0.00  0.00     0.068 C 
ENDBRANCH  15  18
ENDBRANCH   6  15
BRANCH   7  22
ATOM     22  S   UNL d   1     -48.609  28.563  34.065  0.00  0.00     0.288 S 
ATOM     23  O   UNL d   1     -47.927  28.190  34.345  0.00  0.00    -0.198 OA
ATOM     24  O   UNL d   1     -49.290  28.936  33.784  0.00  0.00    -0.198 OA
BRANCH  22  25
ATOM     25  N   UNL d   1     -48.310  29.333  34.138  0.00  0.00    -0.118 NA
ATOM     26  C   UNL d   1     -47.813  29.522  34.765  0.00  0.00     0.289 C 
ATOM     27  O   UNL d   1     -47.517  30.293  34.835  0.00  0.00    -0.265 OA
ATOM     28  C   UNL d   1     -47.610  28.953  35.321  0.00  0.00     0.068 C 
ENDBRANCH  22  25
ENDBRANCH   7  22
TORSDOF 4
ENDMDL
MODEL 2
REMARK VINA RESULT:      73.8      0.678      5.418
REMARK  4 active torsions:
REMARK  status: ('A' for Active; 'I' for Inactive)
REMARK    1  A    between atoms: N_6  and  S_1 
REMARK    2  A    between atoms: C_10  and  S_1 
REMARK    3  A    between atoms: S_2  and  C_11 
REMARK    4  A    between atoms: N_7  and  S_2 
REMARK       I    between atoms: C_14  and  N_6 
REMARK       I    between atoms: C_15  and  N_7 
ROOT
ATOM      1  C   UNL d   1     -50.201  27.276  34.018  0.00  0.00     0.040 A 
ATOM      2  C   UNL d   1     -51.174  26.392  33.825  0.00  0.00     0.040 A 
ATOM      3  C   UNL d   1     -51.013  27.183  34.006  0.00  0.00     0.196 A 
ATOM      4  C   UNL d   1     -50.454  26.010  33.727  0.00  0.00     0.003 A 
ATOM      5  C   UNL d   1     -49.853  26.548  33.845  0.00  0.00     0.003 A 
ATOM      6  C   UNL d   1     -48.900  27.866  34.139  0.00  0.00     0.105 A 
ATOM      7  C   UNL d   1     -51.861  25.185  33.553  0.00  0.00     0.105 A 
ATOM      8  C   UNL d   1     -49.714  27.943  34.166  0.00  0.00     0.016 A 
ATOM      9  C   UNL d   1     -51.886  25.980  33.738  0.00  0.00     0.016 A 
ATOM     10  C   UNL d   1     -50.438  25.207  33.541  0.00  0.00     0.001 A 
ATOM     11  C   UNL d   1     -49.027  26.476  33.818  0.00  0.00     0.001 A 
ATOM     12  O   UNL d   1     -51.581  27.768  34.148  0.00  0.00    -0.287 OA
ATOM     13  C   UNL d   1     -51.145  24.789  33.453  0.00  0.00     0.013 A 
ATOM     14  C   UNL d   1     -48.548  27.138  33.966  0.00  0.00     0.013 A 
ENDROOT
BRANCH   6  15
ATOM     15  S   UNL d   1     -48.418  28.520  34.284  0.00  0.00     0.288 S 
ATOM     16  O   UNL d   1     -49.078  29.012  34.215  0.00  0.00    -0.198 OA
ATOM     17  O   UNL d   1     -47.749  28.036  34.356  0.00  0.00    -0.198 OA
BRANCH  15  18
ATOM     18  N   UNL d   1     -47.940  29.196  34.431  0.00  0.00    -0.118 NA
ATOM     19  C   UNL d   1     -47.981  29.573  35.165  0.00  0.00     0.289 C 
ATOM     20  O   UNL d   1     -48.493  29.284  35.755  0.00  0.00    -0.265 OA
ATOM     21  C   UNL d   1     -47.522  30.228  35.314  0.00  0.00     0.068 C 
ENDBRANCH  15  18
ENDBRANCH   6  15
BRANCH   7  22
ATOM     22  S   UNL d   1     -52.573  24.773  33.466  0.00  0.00     0.288 S 
ATOM     23  O   UNL d   1     -52.146  24.080  33.330  0.00  0.00    -0.198 OA
ATOM     24  O   UNL d   1     -53.001  25.467  33.603  0.00  0.00    -0.198 OA
BRANCH  22  25
ATOM     25  N   UNL d   1     -53.320  24.419  33.391  0.00  0.00    -0.118 NA
ATOM     26  C   UNL d   1     -53.422  23.630  33.600  0.00  0.00     0.289 C 
ATOM     27  O   UNL d   1     -54.169  23.280  33.523  0.00  0.00    -0.265 OA
ATOM     28  C   UNL d   1     -52.790  23.190  33.883  0.00  0.00     0.068 C 
ENDBRANCH  22  25
ENDBRANCH   7  22
TORSDOF 4
ENDMDL
