MODEL 1
REMARK VINA RESULT:      17.9      0.000      0.000
REMARK  0 active torsions:
REMARK  status: ('A' for Active; 'I' for Inactive)
REMARK       I    between atoms: C_3  and  N_1 
REMARK       I    between atoms: N_6  and  C_3 
ROOT
ATOM      1  N   UNL d   1      46.204 -18.043  43.371  0.00  0.00    -0.160 N 
ATOM      2  N   UNL d   1      46.268 -17.630  42.674  0.00  0.00    -0.056 NA
ATOM      3  C   UNL d   1      46.028 -17.682  44.119  0.00  0.00     0.357 C 
ATOM      4  N   UNL d   1      46.444 -18.174  42.080  0.00  0.00    -0.128 NA
ATOM      5  C   UNL d   1      46.336 -18.832  43.223  0.00  0.00     0.108 A 
ATOM      6  N   UNL d   1      45.908 -16.872  44.178  0.00  0.00    -0.252 N 
ATOM      7  C   UNL d   1      46.485 -18.916  42.421  0.00  0.00     0.122 A 
ATOM      8  O   UNL d   1      45.980 -18.178  44.789  0.00  0.00    -0.244 OA
ATOM      9  O   UNL d   1      45.669 -15.248  44.295  0.00  0.00    -0.300 OA
ATOM     10  C   UNL d   1      46.341 -19.484  43.709  0.00  0.00     0.021 A 
ATOM     11  C   UNL d   1      45.962 -16.395  43.490  0.00  0.00     0.111 A 
ATOM     12  C   UNL d   1      45.739 -16.533  44.896  0.00  0.00     0.111 A 
ATOM     13  C   UNL d   1      46.642 -19.663  42.096  0.00  0.00     0.022 A 
ATOM     14  C   UNL d   1      45.841 -15.577  43.549  0.00  0.00     0.142 A 
ATOM     15  C   UNL d   1      45.620 -15.719  44.955  0.00  0.00     0.142 A 
ATOM     16  C   UNL d   1      46.495 -20.233  43.397  0.00  0.00     0.002 A 
ATOM     17  C   UNL d   1      46.645 -20.330  42.598  0.00  0.00     0.002 A 
ENDROOT
TORSDOF 0
ENDMDL
MODEL 2
REMARK VINA RESULT:      18.5      1.850      2.975
REMARK  0 active torsions:
REMARK  status: ('A' for Active; 'I' for Inactive)
REMARK       I    between atoms: C_3  and  N_1 
REMARK       I    between atoms: N_6  and  C_3 
ROOT
ATOM      1  N   UNL d   1      46.568 -18.990  42.087  0.00  0.00    -0.160 N 
ATOM      2  N   UNL d   1      46.612 -19.795  41.988  0.00  0.00    -0.056 NA
ATOM      3  C   UNL d   1      46.523 -18.609  42.844  0.00  0.00     0.357 C 
ATOM      4  N   UNL d   1      46.646 -19.943  41.178  0.00  0.00    -0.128 NA
ATOM      5  C   UNL d   1      46.574 -18.634  41.355  0.00  0.00     0.108 A 
ATOM      6  N   UNL d   1      46.522 -19.049  43.537  0.00  0.00    -0.252 N 
ATOM      7  C   UNL d   1      46.623 -19.225  40.789  0.00  0.00     0.122 A 
ATOM      8  O   UNL d   1      46.481 -17.775  42.858  0.00  0.00    -0.244 OA
ATOM      9  O   UNL d   1      46.520 -19.931  44.927  0.00  0.00    -0.300 OA
ATOM     10  C   UNL d   1      46.543 -17.853  41.129  0.00  0.00     0.021 A 
ATOM     11  C   UNL d   1      46.566 -19.885  43.497  0.00  0.00     0.111 A 
ATOM     12  C   UNL d   1      46.480 -18.678  44.258  0.00  0.00     0.111 A 
ATOM     13  C   UNL d   1      46.640 -19.035  39.981  0.00  0.00     0.022 A 
ATOM     14  C   UNL d   1      46.565 -20.329  44.197  0.00  0.00     0.142 A 
ATOM     15  C   UNL d   1      46.479 -19.120  44.955  0.00  0.00     0.142 A 
ATOM     16  C   UNL d   1      46.559 -17.653  40.328  0.00  0.00     0.002 A 
ATOM     17  C   UNL d   1      46.608 -18.234  39.753  0.00  0.00     0.002 A 
ENDROOT
TORSDOF 0
ENDMDL
