MODEL 1
REMARK VINA RESULT:     -11.4      0.000      0.000
REMARK  3 active torsions:
REMARK  status: ('A' for Active; 'I' for Inactive)
REMARK    1  A    between atoms: N_10  and  C_7 
REMARK       I    between atoms: C_9  and  N_10 
REMARK    2  A    between atoms: C_12  and  C_9 
REMARK    3  A    between atoms: O_20  and  C_17 
ROOT
ATOM      1  C   UNL d   1      53.250  33.184  53.844  0.00  0.00     0.081 A 
ATOM      2  C   UNL d   1      53.875  32.894  54.286  0.00  0.00     0.301 A 
ATOM      3  C   UNL d   1      52.804  32.694  53.357  0.00  0.00     0.090 A 
ATOM      4  O   UNL d   1      54.062  32.084  54.241  0.00  0.00    -0.273 OA
ATOM      5  N   UNL d   1      52.176  32.998  52.914  0.00  0.00    -0.226 NA
ATOM      6  C   UNL d   1      52.993  31.891  53.315  0.00  0.00     0.041 A 
ATOM      7  C   UNL d   1      51.996  33.809  52.965  0.00  0.00     0.166 A 
ATOM      8  C   UNL d   1      53.065  33.993  53.890  0.00  0.00     0.010 A 
ATOM      9  C   UNL d   1      53.621  31.582  53.756  0.00  0.00     0.105 A 
ATOM     10  C   UNL d   1      52.438  34.305  53.450  0.00  0.00     0.039 A 
ATOM     11  O   UNL d   1      54.321  33.392  54.776  0.00  0.00    -0.259 OA
ATOM     12  C   UNL d   1      52.549  31.391  52.828  0.00  0.00     0.004 A 
ATOM     13  C   UNL d   1      53.514  34.482  54.379  0.00  0.00     0.000 C 
ATOM     14  C   UNL d   1      53.808  30.789  53.716  0.00  0.00     0.025 A 
ATOM     15  C   UNL d   1      52.742  30.591  52.790  0.00  0.00     0.000 A 
ATOM     16  C   UNL d   1      53.372  30.290  53.234  0.00  0.00     0.002 A 
ENDROOT
BRANCH   7  17
ATOM     17  N   UNL d   1      51.361  34.121  52.519  0.00  0.00    -0.189 NA
ATOM     18  C   UNL d   1      50.594  34.076  52.815  0.00  0.00     0.281 C 
ATOM     19  O   UNL d   1      50.453  33.723  53.554  0.00  0.00    -0.265 OA
BRANCH  18  20
ATOM     20  C   UNL d   1      49.973  34.379  52.383  0.00  0.00     0.060 A 
ATOM     21  C   UNL d   1      49.448  34.880  52.730  0.00  0.00     0.029 A 
ATOM     22  C   UNL d   1      48.814  35.189  52.289  0.00  0.00     0.094 A 
ATOM     23  C   UNL d   1      48.715  34.990  51.506  0.00  0.00     0.024 A 
ATOM     24  C   UNL d   1      49.264  34.468  51.151  0.00  0.00     0.002 A 
ATOM     25  C   UNL d   1      49.888  34.166  51.588  0.00  0.00     0.005 A 
BRANCH  22  26
ATOM     26  O   UNL d   1      48.274  35.706  52.651  0.00  0.00    -0.328 OA
ATOM     27  C   UNL d   1      47.589  35.952  52.233  0.00  0.00     0.181 C 
ENDBRANCH  22  26
ENDBRANCH  18  20
ENDBRANCH   7  17
TORSDOF 3
ENDMDL
MODEL 2
REMARK VINA RESULT:     -11.3      0.863      2.063
REMARK  3 active torsions:
REMARK  status: ('A' for Active; 'I' for Inactive)
REMARK    1  A    between atoms: N_10  and  C_7 
REMARK       I    between atoms: C_9  and  N_10 
REMARK    2  A    between atoms: C_12  and  C_9 
REMARK    3  A    between atoms: O_20  and  C_17 
ROOT
ATOM      1  C   UNL d   1      53.134  32.308  53.554  0.00  0.00     0.081 A 
ATOM      2  C   UNL d   1      53.840  31.906  53.657  0.00  0.00     0.301 A 
ATOM      3  C   UNL d   1      53.005  33.044  53.896  0.00  0.00     0.090 A 
ATOM      4  O   UNL d   1      54.440  32.252  54.119  0.00  0.00    -0.273 OA
ATOM      5  N   UNL d   1      52.288  33.441  53.785  0.00  0.00    -0.226 NA
ATOM      6  C   UNL d   1      53.603  33.384  54.354  0.00  0.00     0.041 A 
ATOM      7  C   UNL d   1      51.694  33.088  53.322  0.00  0.00     0.166 A 
ATOM      8  C   UNL d   1      52.537  31.961  53.093  0.00  0.00     0.010 A 
ATOM      9  C   UNL d   1      54.322  32.990  54.467  0.00  0.00     0.105 A 
ATOM     10  C   UNL d   1      51.816  32.351  52.976  0.00  0.00     0.039 A 
ATOM     11  O   UNL d   1      53.965  31.163  53.310  0.00  0.00    -0.259 OA
ATOM     12  C   UNL d   1      53.481  34.125  54.701  0.00  0.00     0.004 A 
ATOM     13  C   UNL d   1      52.668  31.222  52.751  0.00  0.00     0.000 C 
ATOM     14  C   UNL d   1      54.913  33.325  54.919  0.00  0.00     0.025 A 
ATOM     15  C   UNL d   1      54.081  34.459  55.156  0.00  0.00     0.000 A 
ATOM     16  C   UNL d   1      54.797  34.059  55.266  0.00  0.00     0.002 A 
ENDROOT
BRANCH   7  17
ATOM     17  N   UNL d   1      50.968  33.486  53.207  0.00  0.00    -0.189 NA
ATOM     18  C   UNL d   1      50.883  34.005  52.573  0.00  0.00     0.281 C 
ATOM     19  O   UNL d   1      51.517  34.131  52.051  0.00  0.00    -0.265 OA
BRANCH  18  20
ATOM     20  C   UNL d   1      50.177  34.394  52.458  0.00  0.00     0.060 A 
ATOM     21  C   UNL d   1      49.887  34.881  53.029  0.00  0.00     0.029 A 
ATOM     22  C   UNL d   1      49.167  35.279  52.911  0.00  0.00     0.094 A 
ATOM     23  C   UNL d   1      48.746  35.183  52.221  0.00  0.00     0.024 A 
ATOM     24  C   UNL d   1      49.052  34.675  51.631  0.00  0.00     0.002 A 
ATOM     25  C   UNL d   1      49.762  34.285  51.751  0.00  0.00     0.005 A 
BRANCH  22  26
ATOM     26  O   UNL d   1      48.871  35.781  53.503  0.00  0.00    -0.328 OA
ATOM     27  C   UNL d   1      48.089  36.079  53.445  0.00  0.00     0.181 C 
ENDBRANCH  22  26
ENDBRANCH  18  20
ENDBRANCH   7  17
TORSDOF 3
ENDMDL
MODEL 3
REMARK VINA RESULT:      -8.6      1.249      5.593
REMARK  3 active torsions:
REMARK  status: ('A' for Active; 'I' for Inactive)
REMARK    1  A    between atoms: N_10  and  C_7 
REMARK       I    between atoms: C_9  and  N_10 
REMARK    2  A    between atoms: C_12  and  C_9 
REMARK    3  A    between atoms: O_20  and  C_17 
ROOT
ATOM      1  C   UNL d   1      48.909  34.886  51.887  0.00  0.00     0.081 A 
ATOM      2  C   UNL d   1      48.254  35.090  51.440  0.00  0.00     0.301 A 
ATOM      3  C   UNL d   1      49.016  35.178  52.649  0.00  0.00     0.090 A 
ATOM      4  O   UNL d   1      47.685  35.604  51.764  0.00  0.00    -0.273 OA
ATOM      5  N   UNL d   1      49.681  34.965  53.092  0.00  0.00    -0.226 NA
ATOM      6  C   UNL d   1      48.449  35.688  52.967  0.00  0.00     0.041 A 
ATOM      7  C   UNL d   1      50.245  34.451  52.761  0.00  0.00     0.166 A 
ATOM      8  C   UNL d   1      49.475  34.373  51.563  0.00  0.00     0.010 A 
ATOM      9  C   UNL d   1      47.782  35.903  52.526  0.00  0.00     0.105 A 
ATOM     10  C   UNL d   1      50.143  34.155  51.999  0.00  0.00     0.039 A 
ATOM     11  O   UNL d   1      48.151  34.793  50.673  0.00  0.00    -0.259 OA
ATOM     12  C   UNL d   1      48.549  35.986  53.732  0.00  0.00     0.004 A 
ATOM     13  C   UNL d   1      49.365  34.082  50.799  0.00  0.00     0.000 C 
ATOM     14  C   UNL d   1      47.222  36.407  52.839  0.00  0.00     0.025 A 
ATOM     15  C   UNL d   1      47.981  36.494  54.044  0.00  0.00     0.000 A 
ATOM     16  C   UNL d   1      47.317  36.704  53.597  0.00  0.00     0.002 A 
ENDROOT
BRANCH   7  17
ATOM     17  N   UNL d   1      50.918  34.233  53.206  0.00  0.00    -0.189 NA
ATOM     18  C   UNL d   1      51.667  34.455  52.946  0.00  0.00     0.281 C 
ATOM     19  O   UNL d   1      51.752  34.894  52.245  0.00  0.00    -0.265 OA
BRANCH  18  20
ATOM     20  C   UNL d   1      52.326  34.246  53.377  0.00  0.00     0.060 A 
ATOM     21  C   UNL d   1      52.664  33.523  53.270  0.00  0.00     0.029 A 
ATOM     22  C   UNL d   1      53.336  33.310  53.710  0.00  0.00     0.094 A 
ATOM     23  C   UNL d   1      53.661  33.823  54.251  0.00  0.00     0.024 A 
ATOM     24  C   UNL d   1      53.305  34.573  54.358  0.00  0.00     0.002 A 
ATOM     25  C   UNL d   1      52.643  34.780  53.923  0.00  0.00     0.005 A 
BRANCH  22  26
ATOM     26  O   UNL d   1      53.683  32.563  53.597  0.00  0.00    -0.328 OA
ATOM     27  C   UNL d   1      54.434  32.396  53.932  0.00  0.00     0.181 C 
ENDBRANCH  22  26
ENDBRANCH  18  20
ENDBRANCH   7  17
TORSDOF 3
ENDMDL
