MODEL 1
REMARK VINA RESULT:      -9.9      0.000      0.000
REMARK  6 active torsions:
REMARK  status: ('A' for Active; 'I' for Inactive)
REMARK    1  A    between atoms: S_2  and  C_1 
REMARK    2  A    between atoms: N_3  and  S_2 
REMARK    3  A    between atoms: C_17  and  N_3 
REMARK    4  A    between atoms: C_4  and  C_12 
REMARK    5  A    between atoms: O_20  and  C_4 
REMARK    6  A    between atoms: C_23  and  O_20 
ROOT
ATOM      1  S   UNL d   1      52.968  33.652  53.974  0.00  0.00     0.153 S 
ATOM      2  O   UNL d   1      52.552  34.110  54.490  0.00  0.00    -0.232 OA
ENDROOT
BRANCH   1   3
ATOM      3  C   UNL d   1      53.556  33.659  54.373  0.00  0.00     0.108 A 
ATOM      4  C   UNL d   1      53.303  32.966  54.375  0.00  0.00     0.023 A 
ATOM      5  C   UNL d   1      53.837  32.494  54.858  0.00  0.00     0.024 A 
ATOM      6  C   UNL d   1      54.485  32.549  55.286  0.00  0.00     0.009 A 
ATOM      7  C   UNL d   1      53.627  33.133  54.554  0.00  0.00    -0.027 A 
ATOM      8  C   UNL d   1      54.775  33.338  55.284  0.00  0.00     0.024 A 
ATOM      9  C   UNL d   1      54.360  33.755  54.897  0.00  0.00     0.023 A 
ATOM     10  C   UNL d   1      54.558  34.053  54.956  0.00  0.00    -0.027 A 
ATOM     11  C   UNL d   1      53.922  33.999  54.536  0.00  0.00    -0.012 A 
ATOM     12  C   UNL d   1      53.390  34.495  54.048  0.00  0.00    -0.013 A 
ENDBRANCH   1   3
BRANCH   1  13
ATOM     13  N   UNL d   1      52.605  33.383  53.273  0.00  0.00    -0.185 NA
BRANCH  13  14
ATOM     14  C   UNL d   1      51.852  33.680  53.054  0.00  0.00     0.091 A 
ATOM     15  C   UNL d   1      51.803  34.287  52.462  0.00  0.00     0.020 A 
ATOM     16  C   UNL d   1      51.096  34.566  52.257  0.00  0.00     0.007 A 
ATOM     17  C   UNL d   1      50.410  34.275  52.610  0.00  0.00     0.064 A 
ATOM     18  C   UNL d   1      50.445  33.685  53.187  0.00  0.00     0.007 A 
ATOM     19  C   UNL d   1      51.179  33.395  53.400  0.00  0.00     0.020 A 
BRANCH  17  20
ATOM     20  C   UNL d   1      49.653  34.585  52.378  0.00  0.00     0.300 C 
ATOM     21  O   UNL d   1      49.344  34.383  51.644  0.00  0.00    -0.259 OA
BRANCH  20  22
ATOM     22  O   UNL d   1      49.254  35.079  52.899  0.00  0.00    -0.271 OA
BRANCH  22  23
ATOM     23  C   UNL d   1      48.544  35.422  52.637  0.00  0.00     0.126 C 
ATOM     24  C   UNL d   1      48.141  35.936  53.152  0.00  0.00     0.029 C 
ENDBRANCH  22  23
ENDBRANCH  20  22
ENDBRANCH  17  20
ENDBRANCH  13  14
ENDBRANCH   1  13
TORSDOF 6
ENDMDL
MODEL 2
REMARK VINA RESULT:      -9.7      0.647      1.157
REMARK  6 active torsions:
REMARK  status: ('A' for Active; 'I' for Inactive)
REMARK    1  A    between atoms: S_2  and  C_1 
REMARK    2  A    between atoms: N_3  and  S_2 
REMARK    3  A    between atoms: C_17  and  N_3 
REMARK    4  A    between atoms: C_4  and  C_12 
REMARK    5  A    between atoms: O_20  and  C_4 
REMARK    6  A    between atoms: C_23  and  O_20 
ROOT
ATOM      1  S   UNL d   1      53.137  33.336  53.969  0.00  0.00     0.153 S 
ATOM      2  O   UNL d   1      52.632  33.579  54.548  0.00  0.00    -0.232 OA
ENDROOT
BRANCH   1   3
ATOM      3  C   UNL d   1      53.668  33.212  54.423  0.00  0.00     0.108 A 
ATOM      4  C   UNL d   1      53.698  33.928  54.250  0.00  0.00     0.023 A 
ATOM      5  C   UNL d   1      54.359  34.275  54.677  0.00  0.00     0.024 A 
ATOM      6  C   UNL d   1      54.928  34.092  55.177  0.00  0.00     0.009 A 
ATOM      7  C   UNL d   1      53.930  33.702  54.495  0.00  0.00    -0.027 A 
ATOM      8  C   UNL d   1      54.896  33.276  55.376  0.00  0.00     0.024 A 
ATOM      9  C   UNL d   1      54.363  32.958  55.042  0.00  0.00     0.023 A 
ATOM     10  C   UNL d   1      54.432  32.633  55.185  0.00  0.00    -0.027 A 
ATOM     11  C   UNL d   1      53.874  32.812  54.695  0.00  0.00    -0.012 A 
ATOM     12  C   UNL d   1      53.205  32.442  54.268  0.00  0.00    -0.013 A 
ENDBRANCH   1   3
BRANCH   1  13
ATOM     13  N   UNL d   1      52.882  33.325  53.175  0.00  0.00    -0.185 NA
BRANCH  13  14
ATOM     14  C   UNL d   1      52.120  33.615  52.979  0.00  0.00     0.091 A 
ATOM     15  C   UNL d   1      52.051  34.361  52.578  0.00  0.00     0.020 A 
ATOM     16  C   UNL d   1      51.336  34.633  52.394  0.00  0.00     0.007 A 
ATOM     17  C   UNL d   1      50.660  34.202  52.586  0.00  0.00     0.064 A 
ATOM     18  C   UNL d   1      50.713  33.475  52.975  0.00  0.00     0.007 A 
ATOM     19  C   UNL d   1      51.456  33.193  53.166  0.00  0.00     0.020 A 
BRANCH  17  20
ATOM     20  C   UNL d   1      49.893  34.508  52.381  0.00  0.00     0.300 C 
ATOM     21  O   UNL d   1      49.456  34.909  52.949  0.00  0.00    -0.259 OA
BRANCH  20  22
ATOM     22  O   UNL d   1      49.614  34.391  51.618  0.00  0.00    -0.271 OA
BRANCH  22  23
ATOM     23  C   UNL d   1      48.847  34.659  51.442  0.00  0.00     0.126 C 
ATOM     24  C   UNL d   1      48.552  34.537  50.674  0.00  0.00     0.029 C 
ENDBRANCH  22  23
ENDBRANCH  20  22
ENDBRANCH  17  20
ENDBRANCH  13  14
ENDBRANCH   1  13
TORSDOF 6
ENDMDL
MODEL 3
REMARK VINA RESULT:      -9.5      2.293      4.201
REMARK  6 active torsions:
REMARK  status: ('A' for Active; 'I' for Inactive)
REMARK    1  A    between atoms: S_2  and  C_1 
REMARK    2  A    between atoms: N_3  and  S_2 
REMARK    3  A    between atoms: C_17  and  N_3 
REMARK    4  A    between atoms: C_4  and  C_12 
REMARK    5  A    between atoms: O_20  and  C_4 
REMARK    6  A    between atoms: C_23  and  O_20 
ROOT
ATOM      1  S   UNL d   1      52.971  33.489  53.518  0.00  0.00     0.153 S 
ATOM      2  O   UNL d   1      52.398  33.225  54.020  0.00  0.00    -0.232 OA
ENDROOT
BRANCH   1   3
ATOM      3  C   UNL d   1      52.856  34.172  53.675  0.00  0.00     0.108 A 
ATOM      4  C   UNL d   1      53.364  33.926  54.149  0.00  0.00     0.023 A 
ATOM      5  C   UNL d   1      53.578  34.578  54.667  0.00  0.00     0.024 A 
ATOM      6  C   UNL d   1      53.420  35.329  54.803  0.00  0.00     0.009 A 
ATOM      7  C   UNL d   1      53.192  34.291  54.107  0.00  0.00    -0.027 A 
ATOM      8  C   UNL d   1      52.840  35.612  54.264  0.00  0.00     0.024 A 
ATOM      9  C   UNL d   1      52.641  35.101  53.822  0.00  0.00     0.023 A 
ATOM     10  C   UNL d   1      52.406  35.310  53.643  0.00  0.00    -0.027 A 
ATOM     11  C   UNL d   1      52.561  34.574  53.509  0.00  0.00    -0.012 A 
ATOM     12  C   UNL d   1      52.331  33.921  52.973  0.00  0.00    -0.013 A 
ENDBRANCH   1   3
BRANCH   1  13
ATOM     13  N   UNL d   1      53.414  32.941  53.072  0.00  0.00    -0.185 NA
BRANCH  13  14
ATOM     14  C   UNL d   1      53.327  32.120  53.216  0.00  0.00     0.091 A 
ATOM     15  C   UNL d   1      53.893  31.725  53.711  0.00  0.00     0.020 A 
ATOM     16  C   UNL d   1      53.812  30.954  53.847  0.00  0.00     0.007 A 
ATOM     17  C   UNL d   1      53.187  30.532  53.513  0.00  0.00     0.064 A 
ATOM     18  C   UNL d   1      52.630  30.905  53.030  0.00  0.00     0.007 A 
ATOM     19  C   UNL d   1      52.715  31.705  52.890  0.00  0.00     0.020 A 
BRANCH  17  20
ATOM     20  C   UNL d   1      53.111  29.699  53.668  0.00  0.00     0.300 C 
ATOM     21  O   UNL d   1      52.720  29.224  53.124  0.00  0.00    -0.259 OA
BRANCH  20  22
ATOM     22  O   UNL d   1      53.433  29.396  54.359  0.00  0.00    -0.271 OA
BRANCH  22  23
ATOM     23  C   UNL d   1      53.268  28.604  54.547  0.00  0.00     0.126 C 
ATOM     24  C   UNL d   1      53.526  28.310  55.281  0.00  0.00     0.029 C 
ENDBRANCH  22  23
ENDBRANCH  20  22
ENDBRANCH  17  20
ENDBRANCH  13  14
ENDBRANCH   1  13
TORSDOF 6
ENDMDL
