MODEL 1
REMARK VINA RESULT:      -8.8      0.000      0.000
REMARK  12 active torsions:
REMARK  status: ('A' for Active; 'I' for Inactive)
REMARK    1  A    between atoms: C_18  and  N_1 
REMARK    2  A    between atoms: C_9  and  N_3 
REMARK    3  A    between atoms: C_12  and  C_9 
REMARK       I    between atoms: N_19  and  C_12 
REMARK    4  A    between atoms: C_14  and  C_22 
REMARK       I    between atoms: N_15  and  C_14 
REMARK    5  A    between atoms: C_20  and  N_15 
REMARK    6  A    between atoms: C_27  and  C_18 
REMARK    7  A    between atoms: C_23  and  N_19 
REMARK    8  A    between atoms: O_21  and  C_24 
REMARK    9  A    between atoms: C_22  and  C_29 
REMARK   10  A    between atoms: C_24  and  C_23 
REMARK   11  A    between atoms: C_30  and  C_27 
REMARK   12  A    between atoms: C_29  and  C_30 
ROOT
ATOM      1  N   UNL d   1      52.614  33.930  53.159  0.00  0.00    -0.225 N 
ATOM      2  C   UNL d   1      52.879  33.184  52.931  0.00  0.00     0.342 A 
ATOM      3  N   UNL d   1      53.441  32.774  53.390  0.00  0.00    -0.253 N 
ATOM      4  C   UNL d   1      53.459  33.880  54.305  0.00  0.00     0.102 A 
ATOM      5  C   UNL d   1      52.906  34.272  53.845  0.00  0.00     0.276 A 
ATOM      6  C   UNL d   1      53.736  33.122  54.084  0.00  0.00     0.080 A 
ATOM      7  S   UNL d   1      53.847  34.094  55.023  0.00  0.00    -0.080 SA
ATOM      8  C   UNL d   1      54.293  32.861  54.656  0.00  0.00     0.025 A 
ATOM      9  O   UNL d   1      52.595  32.827  52.245  0.00  0.00    -0.245 OA
ATOM     10  C   UNL d   1      54.363  33.462  55.237  0.00  0.00     0.037 A 
ATOM     11  O   UNL d   1      52.637  35.015  54.064  0.00  0.00    -0.266 OA
ENDROOT
BRANCH   1  12
ATOM     12  C   UNL d   1      52.065  34.317  52.700  0.00  0.00     0.087 C 
BRANCH  12  13
ATOM     13  C   UNL d   1      51.257  34.223  52.860  0.00  0.00     0.019 C 
BRANCH  13  14
ATOM     14  C   UNL d   1      50.700  34.461  52.303  0.00  0.00     0.002 C 
BRANCH  14  15
ATOM     15  C   UNL d   1      49.921  34.593  52.527  0.00  0.00     0.005 C 
BRANCH  15  16
ATOM     16  C   UNL d   1      49.353  34.782  51.966  0.00  0.00     0.062 C 
BRANCH  16  17
ATOM     17  C   UNL d   1      48.643  35.138  52.195  0.00  0.00     0.279 C 
ATOM     18  N   UNL d   1      48.086  35.356  51.622  0.00  0.00    -0.208 NA
ATOM     19  O   UNL d   1      48.494  35.274  52.996  0.00  0.00    -0.265 OA
BRANCH  18  20
ATOM     20  C   UNL d   1      47.383  35.710  51.853  0.00  0.00     0.085 A 
ATOM     21  C   UNL d   1      46.672  35.411  51.572  0.00  0.00     0.019 A 
ATOM     22  C   UNL d   1      45.961  35.766  51.803  0.00  0.00     0.002 A 
ATOM     23  C   UNL d   1      45.973  36.418  52.315  0.00  0.00     0.000 A 
ATOM     24  C   UNL d   1      46.689  36.709  52.591  0.00  0.00     0.002 A 
ATOM     25  C   UNL d   1      47.396  36.359  52.362  0.00  0.00     0.019 A 
ENDBRANCH  18  20
ENDBRANCH  16  17
ENDBRANCH  15  16
ENDBRANCH  14  15
ENDBRANCH  13  14
ENDBRANCH  12  13
ENDBRANCH   1  12
BRANCH   3  26
ATOM     26  C   UNL d   1      53.699  32.028  53.152  0.00  0.00     0.147 C 
BRANCH  26  27
ATOM     27  C   UNL d   1      53.254  31.354  53.345  0.00  0.00     0.297 C 
ATOM     28  O   UNL d   1      52.439  31.356  53.276  0.00  0.00    -0.264 OA
ATOM     29  N   UNL d   1      53.642  30.664  53.615  0.00  0.00    -0.203 NA
BRANCH  29  30
ATOM     30  C   UNL d   1      53.198  29.982  53.811  0.00  0.00     0.129 C 
BRANCH  30  31
ATOM     31  C   UNL d   1      53.582  29.296  54.062  0.00  0.00     0.137 C 
BRANCH  31  32
ATOM     32  O   UNL d   1      53.157  28.687  54.413  0.00  0.00    -0.325 OA
ATOM     33  C   UNL d   1      53.238  28.544  55.221  0.00  0.00     0.182 C 
ENDBRANCH  31  32
ENDBRANCH  30  31
ENDBRANCH  29  30
ENDBRANCH  26  27
ENDBRANCH   3  26
TORSDOF 12
ENDMDL
MODEL 2
REMARK VINA RESULT:      -7.7      2.348      7.437
REMARK  12 active torsions:
REMARK  status: ('A' for Active; 'I' for Inactive)
REMARK    1  A    between atoms: C_18  and  N_1 
REMARK    2  A    between atoms: C_9  and  N_3 
REMARK    3  A    between atoms: C_12  and  C_9 
REMARK       I    between atoms: N_19  and  C_12 
REMARK    4  A    between atoms: C_14  and  C_22 
REMARK       I    between atoms: N_15  and  C_14 
REMARK    5  A    between atoms: C_20  and  N_15 
REMARK    6  A    between atoms: C_27  and  C_18 
REMARK    7  A    between atoms: C_23  and  N_19 
REMARK    8  A    between atoms: O_21  and  C_24 
REMARK    9  A    between atoms: C_22  and  C_29 
REMARK   10  A    between atoms: C_24  and  C_23 
REMARK   11  A    between atoms: C_30  and  C_27 
REMARK   12  A    between atoms: C_29  and  C_30 
ROOT
ATOM      1  N   UNL d   1      48.440  35.557  52.301  0.00  0.00    -0.225 N 
ATOM      2  C   UNL d   1      48.116  36.028  52.894  0.00  0.00     0.342 A 
ATOM      3  N   UNL d   1      47.309  36.237  52.877  0.00  0.00    -0.253 N 
ATOM      4  C   UNL d   1      47.170  35.491  51.658  0.00  0.00     0.102 A 
ATOM      5  C   UNL d   1      47.965  35.292  51.688  0.00  0.00     0.276 A 
ATOM      6  C   UNL d   1      46.830  35.969  52.255  0.00  0.00     0.080 A 
ATOM      7  S   UNL d   1      46.563  35.301  51.105  0.00  0.00    -0.080 SA
ATOM      8  C   UNL d   1      46.015  36.079  52.080  0.00  0.00     0.025 A 
ATOM      9  O   UNL d   1      48.581  36.301  53.517  0.00  0.00    -0.245 OA
ATOM     10  C   UNL d   1      45.849  35.666  51.368  0.00  0.00     0.037 A 
ATOM     11  O   UNL d   1      48.296  34.824  51.102  0.00  0.00    -0.266 OA
ENDROOT
BRANCH   1  12
ATOM     12  C   UNL d   1      49.229  35.361  52.332  0.00  0.00     0.087 C 
BRANCH  12  13
ATOM     13  C   UNL d   1      49.465  34.666  52.718  0.00  0.00     0.019 C 
BRANCH  13  14
ATOM     14  C   UNL d   1      50.197  34.332  52.548  0.00  0.00     0.002 C 
BRANCH  14  15
ATOM     15  C   UNL d   1      50.753  34.229  53.143  0.00  0.00     0.005 C 
BRANCH  15  16
ATOM     16  C   UNL d   1      51.217  33.552  53.166  0.00  0.00     0.062 C 
BRANCH  16  17
ATOM     17  C   UNL d   1      51.981  33.582  53.482  0.00  0.00     0.279 C 
ATOM     18  N   UNL d   1      52.452  32.900  53.488  0.00  0.00    -0.208 NA
ATOM     19  O   UNL d   1      52.269  34.291  53.789  0.00  0.00    -0.265 OA
BRANCH  18  20
ATOM     20  C   UNL d   1      53.209  32.932  53.802  0.00  0.00     0.085 A 
ATOM     21  C   UNL d   1      53.306  32.960  54.616  0.00  0.00     0.019 A 
ATOM     22  C   UNL d   1      54.068  32.993  54.936  0.00  0.00     0.002 A 
ATOM     23  C   UNL d   1      54.726  32.997  54.431  0.00  0.00     0.000 A 
ATOM     24  C   UNL d   1      54.619  32.969  53.618  0.00  0.00     0.002 A 
ATOM     25  C   UNL d   1      53.863  32.937  53.299  0.00  0.00     0.019 A 
ENDBRANCH  18  20
ENDBRANCH  16  17
ENDBRANCH  15  16
ENDBRANCH  14  15
ENDBRANCH  13  14
ENDBRANCH  12  13
ENDBRANCH   1  12
BRANCH   3  26
ATOM     26  C   UNL d   1      46.996  36.709  53.476  0.00  0.00     0.147 C 
BRANCH  26  27
ATOM     27  C   UNL d   1      46.673  36.356  54.155  0.00  0.00     0.297 C 
ATOM     28  O   UNL d   1      46.998  35.676  54.469  0.00  0.00    -0.264 OA
ATOM     29  N   UNL d   1      46.005  36.701  54.523  0.00  0.00    -0.203 NA
BRANCH  29  30
ATOM     30  C   UNL d   1      45.676  36.350  55.208  0.00  0.00     0.129 C 
BRANCH  30  31
ATOM     31  C   UNL d   1      44.939  36.596  55.486  0.00  0.00     0.137 C 
BRANCH  31  32
ATOM     32  O   UNL d   1      44.629  36.280  56.177  0.00  0.00    -0.325 OA
ATOM     33  C   UNL d   1      44.672  36.709  56.879  0.00  0.00     0.182 C 
ENDBRANCH  31  32
ENDBRANCH  30  31
ENDBRANCH  29  30
ENDBRANCH  26  27
ENDBRANCH   3  26
TORSDOF 12
ENDMDL
