MODEL 1
REMARK VINA RESULT:      50.2      0.000      0.000
REMARK  6 active torsions:
REMARK  status: ('A' for Active; 'I' for Inactive)
REMARK    1  A    between atoms: C_9  and  N_1 
REMARK    2  A    between atoms: C_2  and  C_3 
REMARK    3  A    between atoms: C_4  and  C_6 
REMARK    4  A    between atoms: C_7  and  C_5 
REMARK       I    between atoms: C_6  and  N_8 
REMARK    5  A    between atoms: N_8  and  N_12 
REMARK    6  A    between atoms: N_12  and  C_17 
ROOT
ATOM      1  C   UNL d   1      14.160  12.370  -2.138  0.00  0.00     0.005 A 
ATOM      2  C   UNL d   1      14.059  13.153  -2.375  0.00  0.00     0.059 A 
ATOM      3  C   UNL d   1      13.835  11.780  -2.613  0.00  0.00     0.000 A 
ATOM      4  C   UNL d   1      13.655  13.337  -3.053  0.00  0.00     0.005 A 
ATOM      5  C   UNL d   1      13.422  11.967  -3.306  0.00  0.00     0.000 A 
ATOM      6  C   UNL d   1      13.342  12.741  -3.510  0.00  0.00     0.000 A 
ENDROOT
BRANCH   2   7
ATOM      7  C   UNL d   1      14.387  13.762  -1.897  0.00  0.00     0.297 C 
ATOM      8  N   UNL d   1      14.498  14.508  -2.231  0.00  0.00    -0.106 NA
ATOM      9  O   UNL d   1      14.593  13.612  -1.106  0.00  0.00    -0.264 OA
BRANCH   8  10
ATOM     10  N   UNL d   1      14.292  14.658  -3.019  0.00  0.00    -0.145 NA
BRANCH  10  11
ATOM     11  C   UNL d   1      14.526  15.353  -3.376  0.00  0.00     0.103 A 
ATOM     12  C   UNL d   1      14.860  15.948  -2.930  0.00  0.00     0.023 A 
ATOM     13  C   UNL d   1      15.100  16.657  -3.286  0.00  0.00     0.025 A 
ATOM     14  C   UNL d   1      14.999  16.757  -4.091  0.00  0.00     0.127 A 
ATOM     15  C   UNL d   1      14.664  16.163  -4.548  0.00  0.00     0.025 A 
ATOM     16  C   UNL d   1      14.424  15.454  -4.192  0.00  0.00     0.023 A 
BRANCH  14  17
ATOM     17  N   UNL d   1      15.242  17.467  -4.436  0.00  0.00    -0.114 N 
ATOM     18  O   UNL d   1      16.001  17.741  -4.365  0.00  0.00    -0.532 OA
ATOM     19  O   UNL d   1      14.693  17.926  -4.873  0.00  0.00    -0.532 OA
ENDBRANCH  14  17
ENDBRANCH  10  11
ENDBRANCH   8  10
ENDBRANCH   2   7
BRANCH   1  20
ATOM     20  C   UNL d   1      14.563  12.187  -1.461  0.00  0.00     0.006 A 
ATOM     21  C   UNL d   1      14.156  11.966  -0.789  0.00  0.00     0.064 A 
ATOM     22  C   UNL d   1      14.569  11.779  -0.097  0.00  0.00     0.006 A 
ATOM     23  C   UNL d   1      15.383  11.815  -0.086  0.00  0.00     0.000 A 
ATOM     24  C   UNL d   1      15.783  12.027  -0.728  0.00  0.00     0.000 A 
ATOM     25  C   UNL d   1      15.387  12.219  -1.433  0.00  0.00     0.000 A 
BRANCH  21  26
ATOM     26  C   UNL d   1      13.322  11.926  -0.791  0.00  0.00     0.211 C 
ATOM     27  O   UNL d   1      12.895  12.036  -0.079  0.00  0.00    -0.644 OA
ATOM     28  O   UNL d   1      12.906  11.780  -1.491  0.00  0.00    -0.644 OA
ENDBRANCH  21  26
ENDBRANCH   1  20
TORSDOF 6
ENDMDL
MODEL 2
REMARK VINA RESULT:      52.7      1.526      2.391
REMARK  6 active torsions:
REMARK  status: ('A' for Active; 'I' for Inactive)
REMARK    1  A    between atoms: C_9  and  N_1 
REMARK    2  A    between atoms: C_2  and  C_3 
REMARK    3  A    between atoms: C_4  and  C_6 
REMARK    4  A    between atoms: C_7  and  C_5 
REMARK       I    between atoms: C_6  and  N_8 
REMARK    5  A    between atoms: N_8  and  N_12 
REMARK    6  A    between atoms: N_12  and  C_17 
ROOT
ATOM      1  C   UNL d   1      15.181  13.609  -0.231  0.00  0.00     0.005 A 
ATOM      2  C   UNL d   1      15.090  14.410  -0.406  0.00  0.00     0.059 A 
ATOM      3  C   UNL d   1      15.937  13.343  -0.036  0.00  0.00     0.000 A 
ATOM      4  C   UNL d   1      15.721  14.917  -0.388  0.00  0.00     0.005 A 
ATOM      5  C   UNL d   1      16.582  13.861  -0.017  0.00  0.00     0.000 A 
ATOM      6  C   UNL d   1      16.459  14.637  -0.193  0.00  0.00     0.000 A 
ENDROOT
BRANCH   2   7
ATOM      7  C   UNL d   1      14.323  14.691  -0.606  0.00  0.00     0.297 C 
ATOM      8  N   UNL d   1      14.220  15.071  -1.330  0.00  0.00    -0.106 NA
ATOM      9  O   UNL d   1      13.686  14.586  -0.082  0.00  0.00    -0.264 OA
BRANCH   8  10
ATOM     10  N   UNL d   1      14.854  15.175  -1.852  0.00  0.00    -0.145 NA
BRANCH  10  11
ATOM     11  C   UNL d   1      14.721  15.467  -2.602  0.00  0.00     0.103 A 
ATOM     12  C   UNL d   1      14.987  16.211  -2.803  0.00  0.00     0.023 A 
ATOM     13  C   UNL d   1      14.855  16.513  -3.563  0.00  0.00     0.025 A 
ATOM     14  C   UNL d   1      14.457  16.060  -4.113  0.00  0.00     0.127 A 
ATOM     15  C   UNL d   1      14.186  15.309  -3.920  0.00  0.00     0.025 A 
ATOM     16  C   UNL d   1      14.317  15.007  -3.160  0.00  0.00     0.023 A 
BRANCH  14  17
ATOM     17  N   UNL d   1      14.331  16.371  -4.868  0.00  0.00    -0.114 N 
ATOM     18  O   UNL d   1      13.796  16.964  -5.004  0.00  0.00    -0.532 OA
ATOM     19  O   UNL d   1      14.765  16.070  -5.519  0.00  0.00    -0.532 OA
ENDBRANCH  14  17
ENDBRANCH  10  11
ENDBRANCH   8  10
ENDBRANCH   2   7
BRANCH   1  20
ATOM     20  C   UNL d   1      14.551  13.103  -0.249  0.00  0.00     0.006 A 
ATOM     21  C   UNL d   1      14.652  12.334  -0.502  0.00  0.00     0.064 A 
ATOM     22  C   UNL d   1      14.007  11.816  -0.521  0.00  0.00     0.006 A 
ATOM     23  C   UNL d   1      13.270  12.073  -0.286  0.00  0.00     0.000 A 
ATOM     24  C   UNL d   1      13.164  12.811  -0.041  0.00  0.00     0.000 A 
ATOM     25  C   UNL d   1      13.799  13.348  -0.014  0.00  0.00     0.000 A 
BRANCH  21  26
ATOM     26  C   UNL d   1      15.403  12.061  -0.745  0.00  0.00     0.211 C 
ATOM     27  O   UNL d   1      15.590  12.018  -1.561  0.00  0.00    -0.644 OA
ATOM     28  O   UNL d   1      15.970  11.831  -0.189  0.00  0.00    -0.644 OA
ENDBRANCH  21  26
ENDBRANCH   1  20
TORSDOF 6
ENDMDL
