MODEL 1
REMARK VINA RESULT:      20.9      0.000      0.000
REMARK  2 active torsions:
REMARK  status: ('A' for Active; 'I' for Inactive)
REMARK    1  A    between atoms: C_4  and  N_1 
REMARK    2  A    between atoms: C_7  and  C_9 
ROOT
ATOM      1  C   UNL d   1     -55.033-101.764 -37.402  0.00  0.00     0.070 A 
ATOM      2  C   UNL d   1     -54.858-101.338 -38.090  0.00  0.00     0.024 A 
ATOM      3  C   UNL d   1     -54.976-101.679 -38.824  0.00  0.00     0.066 A 
ATOM      4  C   UNL d   1     -55.327-102.530 -37.447  0.00  0.00     0.018 A 
ATOM      5  C   UNL d   1     -55.273-102.452 -38.874  0.00  0.00     0.006 A 
ATOM      6  C   UNL d   1     -55.448-102.879 -38.185  0.00  0.00     0.002 A 
ENDROOT
BRANCH   1   7
ATOM      7  N   UNL d   1     -54.915-101.424 -36.660  0.00  0.00    -0.242 N 
ATOM      8  C   UNL d   1     -54.878-101.837 -35.936  0.00  0.00     0.267 A 
ATOM      9  C   UNL d   1     -54.753-101.291 -35.331  0.00  0.00     0.066 A 
ATOM     10  O   UNL d   1     -54.948-102.651 -35.805  0.00  0.00    -0.267 OA
ATOM     11  C   UNL d   1     -54.713-100.538 -35.675  0.00  0.00     0.066 A 
ATOM     12  C   UNL d   1     -54.812-100.621 -36.484  0.00  0.00     0.267 A 
ATOM     13  O   UNL d   1     -54.802 -99.970 -37.004  0.00  0.00    -0.267 OA
ENDBRANCH   1   7
BRANCH   3  14
ATOM     14  C   UNL d   1     -54.806-101.268 -39.514  0.00  0.00     0.211 C 
ATOM     15  O   UNL d   1     -54.728-101.661 -40.228  0.00  0.00    -0.644 OA
ATOM     16  O   UNL d   1     -54.714-100.444 -39.480  0.00  0.00    -0.644 OA
ENDBRANCH   3  14
TORSDOF 2
ENDMDL
MODEL 2
REMARK VINA RESULT:      21.4      5.987      7.277
REMARK  2 active torsions:
REMARK  status: ('A' for Active; 'I' for Inactive)
REMARK    1  A    between atoms: C_4  and  N_1 
REMARK    2  A    between atoms: C_7  and  C_9 
ROOT
ATOM      1  C   UNL d   1     -55.281-100.299 -44.350  0.00  0.00     0.070 A 
ATOM      2  C   UNL d   1     -56.062-100.045 -44.240  0.00  0.00     0.024 A 
ATOM      3  C   UNL d   1     -56.273 -99.278 -44.427  0.00  0.00     0.066 A 
ATOM      4  C   UNL d   1     -54.711 -99.785 -44.647  0.00  0.00     0.018 A 
ATOM      5  C   UNL d   1     -55.701 -98.756 -44.727  0.00  0.00     0.006 A 
ATOM      6  C   UNL d   1     -54.920 -99.009 -44.837  0.00  0.00     0.002 A 
ENDROOT
BRANCH   1   7
ATOM      7  N   UNL d   1     -55.064-101.072 -44.163  0.00  0.00    -0.242 N 
ATOM      8  C   UNL d   1     -54.910-101.361 -43.395  0.00  0.00     0.267 A 
ATOM      9  C   UNL d   1     -54.712-102.159 -43.453  0.00  0.00     0.066 A 
ATOM     10  O   UNL d   1     -54.939-100.952 -42.677  0.00  0.00    -0.267 OA
ATOM     11  C   UNL d   1     -54.741-102.370 -44.254  0.00  0.00     0.066 A 
ATOM     12  C   UNL d   1     -54.956-101.706 -44.685  0.00  0.00     0.267 A 
ATOM     13  O   UNL d   1     -55.039-101.719 -45.513  0.00  0.00    -0.267 OA
ENDBRANCH   1   7
BRANCH   3  14
ATOM     14  C   UNL d   1     -57.043 -99.014 -44.323  0.00  0.00     0.211 C 
ATOM     15  O   UNL d   1     -57.342 -98.876 -43.573  0.00  0.00    -0.644 OA
ATOM     16  O   UNL d   1     -57.520 -98.887 -44.991  0.00  0.00    -0.644 OA
ENDBRANCH   3  14
TORSDOF 2
ENDMDL
MODEL 3
REMARK VINA RESULT:      22.7      7.063      8.313
REMARK  2 active torsions:
REMARK  status: ('A' for Active; 'I' for Inactive)
REMARK    1  A    between atoms: C_4  and  N_1 
REMARK    2  A    between atoms: C_7  and  C_9 
ROOT
ATOM      1  C   UNL d   1     -57.825 -98.790 -44.200  0.00  0.00     0.070 A 
ATOM      2  C   UNL d   1     -57.190 -98.834 -44.731  0.00  0.00     0.024 A 
ATOM      3  C   UNL d   1     -56.422 -98.846 -44.451  0.00  0.00     0.066 A 
ATOM      4  C   UNL d   1     -57.692 -98.756 -43.390  0.00  0.00     0.018 A 
ATOM      5  C   UNL d   1     -56.284 -98.813 -43.633  0.00  0.00     0.006 A 
ATOM      6  C   UNL d   1     -56.918 -98.768 -43.101  0.00  0.00     0.002 A 
ENDROOT
BRANCH   1   7
ATOM      7  N   UNL d   1     -58.601 -98.778 -44.479  0.00  0.00    -0.242 N 
ATOM      8  C   UNL d   1     -58.829 -98.765 -45.281  0.00  0.00     0.267 A 
ATOM      9  C   UNL d   1     -59.652 -98.755 -45.317  0.00  0.00     0.066 A 
ATOM     10  O   UNL d   1     -58.346 -98.761 -45.953  0.00  0.00    -0.267 OA
ATOM     11  C   UNL d   1     -59.940 -98.762 -44.540  0.00  0.00     0.066 A 
ATOM     12  C   UNL d   1     -59.298 -98.776 -44.030  0.00  0.00     0.267 A 
ATOM     13  O   UNL d   1     -59.385 -98.786 -43.202  0.00  0.00    -0.267 OA
ENDBRANCH   1   7
BRANCH   3  14
ATOM     14  C   UNL d   1     -55.785 -98.890 -44.965  0.00  0.00     0.211 C 
ATOM     15  O   UNL d   1     -55.883 -98.756 -45.768  0.00  0.00    -0.644 OA
ATOM     16  O   UNL d   1     -55.034 -99.074 -44.663  0.00  0.00    -0.644 OA
ENDBRANCH   3  14
TORSDOF 2
ENDMDL
