MODEL 1
REMARK VINA RESULT:      11.7      0.000      0.000
REMARK  3 active torsions:
REMARK  status: ('A' for Active; 'I' for Inactive)
REMARK    1  A    between atoms: N_5  and  C_2 
REMARK    2  A    between atoms: C_9  and  C_3 
REMARK       I    between atoms: C_7  and  N_5 
REMARK    3  A    between atoms: C_8  and  C_7 
ROOT
ATOM      1  N   UNL d   1      46.373 -17.328  43.598  0.00  0.00    -0.200 NA
ATOM      2  C   UNL d   1      46.194 -16.946  44.298  0.00  0.00     0.216 A 
ATOM      3  C   UNL d   1      46.250 -18.138  43.705  0.00  0.00     0.172 A 
ATOM      4  N   UNL d   1      45.993 -18.250  44.481  0.00  0.00    -0.187 NA
ATOM      5  S   UNL d   1      45.956 -17.511  44.855  0.00  0.00     0.054 SA
ENDROOT
BRANCH   2   6
ATOM      6  N   UNL d   1      46.241 -16.134  44.432  0.00  0.00    -0.181 NA
ATOM      7  C   UNL d   1      45.591 -15.660  44.279  0.00  0.00     0.281 C 
ATOM      8  O   UNL d   1      44.893 -15.992  43.994  0.00  0.00    -0.265 OA
BRANCH   7   9
ATOM      9  C   UNL d   1      45.638 -14.847  44.413  0.00  0.00     0.058 A 
ATOM     10  C   UNL d   1      46.288 -14.532  44.809  0.00  0.00     0.006 A 
ATOM     11  C   UNL d   1      46.335 -13.719  44.942  0.00  0.00     0.012 A 
ATOM     12  C   UNL d   1      45.732 -13.222  44.681  0.00  0.00     0.058 A 
ATOM     13  C   UNL d   1      45.083 -13.539  44.286  0.00  0.00     0.012 A 
ATOM     14 CL   UNL d   1      45.779 -12.409  44.815  0.00  0.00    -0.082 Cl
ATOM     15  C   UNL d   1      45.036 -14.351  44.152  0.00  0.00     0.006 A 
ENDBRANCH   7   9
ENDBRANCH   2   6
BRANCH   3  16
ATOM     16  C   UNL d   1      46.362 -18.725  43.146  0.00  0.00     0.036 A 
ATOM     17  C   UNL d   1      46.366 -19.516  43.379  0.00  0.00     0.003 A 
ATOM     18  C   UNL d   1      46.480 -20.114  42.810  0.00  0.00     0.000 A 
ATOM     19  C   UNL d   1      46.590 -19.913  42.011  0.00  0.00     0.000 A 
ATOM     20  C   UNL d   1      46.585 -19.116  41.786  0.00  0.00     0.000 A 
ATOM     21  C   UNL d   1      46.472 -18.525  42.348  0.00  0.00     0.003 A 
ENDBRANCH   3  16
TORSDOF 3
ENDMDL
MODEL 2
REMARK VINA RESULT:      13.3      1.963      4.991
REMARK  3 active torsions:
REMARK  status: ('A' for Active; 'I' for Inactive)
REMARK    1  A    between atoms: N_5  and  C_2 
REMARK    2  A    between atoms: C_9  and  C_3 
REMARK       I    between atoms: C_7  and  N_5 
REMARK    3  A    between atoms: C_8  and  C_7 
ROOT
ATOM      1  N   UNL d   1      46.014 -15.131  44.105  0.00  0.00    -0.200 NA
ATOM      2  C   UNL d   1      45.724 -15.850  44.364  0.00  0.00     0.216 A 
ATOM      3  C   UNL d   1      45.579 -14.530  44.469  0.00  0.00     0.172 A 
ATOM      4  N   UNL d   1      45.017 -14.887  44.955  0.00  0.00    -0.187 NA
ATOM      5  S   UNL d   1      45.102 -15.710  44.893  0.00  0.00     0.054 SA
ENDROOT
BRANCH   2   6
ATOM      6  N   UNL d   1      46.000 -16.593  44.138  0.00  0.00    -0.181 NA
ATOM      7  C   UNL d   1      45.539 -17.066  43.654  0.00  0.00     0.281 C 
ATOM      8  O   UNL d   1      44.803 -16.803  43.394  0.00  0.00    -0.265 OA
BRANCH   7   9
ATOM      9  C   UNL d   1      45.816 -17.810  43.428  0.00  0.00     0.058 A 
ATOM     10  C   UNL d   1      45.981 -18.380  43.999  0.00  0.00     0.006 A 
ATOM     11  C   UNL d   1      46.258 -19.123  43.773  0.00  0.00     0.012 A 
ATOM     12  C   UNL d   1      46.370 -19.297  42.975  0.00  0.00     0.058 A 
ATOM     13  C   UNL d   1      46.205 -18.727  42.405  0.00  0.00     0.012 A 
ATOM     14 CL   UNL d   1      46.647 -20.040  42.749  0.00  0.00    -0.082 Cl
ATOM     15  C   UNL d   1      45.928 -17.983  42.631  0.00  0.00     0.006 A 
ENDBRANCH   7   9
ENDBRANCH   2   6
BRANCH   3  16
ATOM     16  C   UNL d   1      45.684 -13.724  44.368  0.00  0.00     0.036 A 
ATOM     17  C   UNL d   1      46.174 -13.307  44.883  0.00  0.00     0.003 A 
ATOM     18  C   UNL d   1      46.280 -12.487  44.780  0.00  0.00     0.000 A 
ATOM     19  C   UNL d   1      45.894 -12.092  44.160  0.00  0.00     0.000 A 
ATOM     20  C   UNL d   1      45.404 -12.519  43.646  0.00  0.00     0.000 A 
ATOM     21  C   UNL d   1      45.298 -13.329  43.748  0.00  0.00     0.003 A 
ENDBRANCH   3  16
TORSDOF 3
ENDMDL
