MODEL 1
REMARK VINA RESULT:      -4.4      0.000      0.000
REMARK  6 active torsions:
REMARK  status: ('A' for Active; 'I' for Inactive)
REMARK       I    between atoms: N_2  and  C_1 
REMARK       I    between atoms: N_7  and  C_1 
REMARK    1  A    between atoms: C_4  and  N_2 
REMARK       I    between atoms: C_3  and  N_8 
REMARK    2  A    between atoms: C_6  and  C_3 
REMARK    3  A    between atoms: N_5  and  C_12 
REMARK    4  A    between atoms: C_12  and  C_6 
REMARK    5  A    between atoms: N_8  and  N_7 
REMARK    6  A    between atoms: O_14  and  C_10 
ROOT
ATOM      1  C   UNL d   1      58.087  -0.511  30.323  0.00  0.00     0.387 C 
ATOM      2  N   UNL d   1      58.510  -0.976  29.784  0.00  0.00    -0.188 NA
ATOM      3  N   UNL d   1      57.482  -0.838  30.756  0.00  0.00    -0.085 NA
ATOM      4  O   UNL d   1      58.285   0.288  30.415  0.00  0.00    -0.241 OA
ENDROOT
BRANCH   3   5
ATOM      5  N   UNL d   1      57.060  -0.372  31.294  0.00  0.00    -0.101 NA
ATOM      6  C   UNL d   1      56.635  -0.726  31.906  0.00  0.00     0.298 C 
ATOM      7  O   UNL d   1      56.633  -1.549  31.978  0.00  0.00    -0.264 OA
BRANCH   6   8
ATOM      8  C   UNL d   1      56.218  -0.259  32.437  0.00  0.00     0.083 C 
BRANCH   8   9
ATOM      9  C   UNL d   1      56.114  -0.516  33.210  0.00  0.00     0.085 C 
BRANCH   9  10
ATOM     10  N   UNL d   1      55.600  -0.115  33.716  0.00  0.00    -0.299 N 
ATOM     11  C   UNL d   1      54.892   0.175  33.430  0.00  0.00     0.107 A 
ATOM     12  C   UNL d   1      54.379   0.576  33.935  0.00  0.00     0.142 A 
ATOM     13  O   UNL d   1      54.584   0.682  34.730  0.00  0.00    -0.300 OA
ATOM     14  C   UNL d   1      55.299   0.389  35.018  0.00  0.00     0.142 A 
ATOM     15  C   UNL d   1      55.805  -0.009  34.510  0.00  0.00     0.107 A 
ENDBRANCH   9  10
ENDBRANCH   8   9
ENDBRANCH   6   8
ENDBRANCH   3   5
BRANCH   2  16
ATOM     16  C   UNL d   1      59.124  -0.646  29.344  0.00  0.00     0.108 A 
ATOM     17  C   UNL d   1      59.700  -1.127  29.014  0.00  0.00     0.112 A 
ATOM     18  C   UNL d   1      60.309  -0.806  28.578  0.00  0.00     0.026 A 
ATOM     19  C   UNL d   1      60.350   0.013  28.464  0.00  0.00     0.002 A 
ATOM     20  C   UNL d   1      59.771   0.501  28.795  0.00  0.00     0.002 A 
ATOM     21  C   UNL d   1      59.157   0.171  29.235  0.00  0.00     0.021 A 
BRANCH  17  22
ATOM     22  O   UNL d   1      59.660  -1.941  29.127  0.00  0.00    -0.327 OA
ATOM     23  C   UNL d   1      60.008  -2.447  28.571  0.00  0.00     0.181 C 
ENDBRANCH  17  22
ENDBRANCH   2  16
TORSDOF 6
ENDMDL
MODEL 2
REMARK VINA RESULT:      -3.3      1.165      6.021
REMARK  6 active torsions:
REMARK  status: ('A' for Active; 'I' for Inactive)
REMARK       I    between atoms: N_2  and  C_1 
REMARK       I    between atoms: N_7  and  C_1 
REMARK    1  A    between atoms: C_4  and  N_2 
REMARK       I    between atoms: C_3  and  N_8 
REMARK    2  A    between atoms: C_6  and  C_3 
REMARK    3  A    between atoms: N_5  and  C_12 
REMARK    4  A    between atoms: C_12  and  C_6 
REMARK    5  A    between atoms: N_8  and  N_7 
REMARK    6  A    between atoms: O_14  and  C_10 
ROOT
ATOM      1  C   UNL d   1      56.882   0.393  32.540  0.00  0.00     0.387 C 
ATOM      2  N   UNL d   1      56.120   0.370  32.862  0.00  0.00    -0.188 NA
ATOM      3  N   UNL d   1      56.988   0.290  31.741  0.00  0.00    -0.085 NA
ATOM      4  O   UNL d   1      57.532   0.520  33.037  0.00  0.00    -0.241 OA
ENDROOT
BRANCH   3   5
ATOM      5  N   UNL d   1      57.750   0.313  31.419  0.00  0.00    -0.101 NA
ATOM      6  C   UNL d   1      57.855   0.319  30.601  0.00  0.00     0.298 C 
ATOM      7  O   UNL d   1      57.196   0.303  30.104  0.00  0.00    -0.264 OA
BRANCH   6   8
ATOM      8  C   UNL d   1      58.614   0.342  30.286  0.00  0.00     0.083 C 
BRANCH   8   9
ATOM      9  C   UNL d   1      58.756   0.022  29.544  0.00  0.00     0.085 C 
BRANCH   9  10
ATOM     10  N   UNL d   1      59.530  -0.069  29.271  0.00  0.00    -0.299 N 
ATOM     11  C   UNL d   1      59.985   0.591  29.114  0.00  0.00     0.107 A 
ATOM     12  C   UNL d   1      60.758   0.500  28.842  0.00  0.00     0.142 A 
ATOM     13  O   UNL d   1      61.068  -0.260  28.730  0.00  0.00    -0.300 OA
ATOM     14  C   UNL d   1      60.607  -0.925  28.890  0.00  0.00     0.142 A 
ATOM     15  C   UNL d   1      59.840  -0.828  29.160  0.00  0.00     0.107 A 
ENDBRANCH   9  10
ENDBRANCH   8   9
ENDBRANCH   6   8
ENDBRANCH   3   5
BRANCH   2  16
ATOM     16  C   UNL d   1      56.010   0.474  33.673  0.00  0.00     0.108 A 
ATOM     17  C   UNL d   1      55.255   0.573  33.978  0.00  0.00     0.112 A 
ATOM     18  C   UNL d   1      55.141   0.676  34.778  0.00  0.00     0.026 A 
ATOM     19  C   UNL d   1      55.789   0.681  35.291  0.00  0.00     0.002 A 
ATOM     20  C   UNL d   1      56.551   0.581  34.989  0.00  0.00     0.002 A 
ATOM     21  C   UNL d   1      56.662   0.478  34.178  0.00  0.00     0.021 A 
BRANCH  17  22
ATOM     22  O   UNL d   1      54.610   0.568  33.467  0.00  0.00    -0.327 OA
ATOM     23  C   UNL d   1      53.849   0.682  33.772  0.00  0.00     0.181 C 
ENDBRANCH  17  22
ENDBRANCH   2  16
TORSDOF 6
ENDMDL
