MODEL 1
REMARK VINA RESULT:      40.4      0.000      0.000
REMARK  5 active torsions:
REMARK  status: ('A' for Active; 'I' for Inactive)
REMARK    1  A    between atoms: C_10  and  C_3 
REMARK    2  A    between atoms: N_12  and  C_4 
REMARK    3  A    between atoms: N_11  and  C_15 
REMARK    4  A    between atoms: C_14  and  N_12 
REMARK    5  A    between atoms: C_15  and  C_14 
ROOT
ATOM      1  C   UNL d   1      46.481 -18.719  42.087  0.00  0.00     0.167 A 
ATOM      2  N   UNL d   1      46.501 -18.057  41.588  0.00  0.00    -0.195 N 
ATOM      3  C   UNL d   1      46.411 -18.447  42.854  0.00  0.00     0.057 A 
ATOM      4  C   UNL d   1      46.569 -18.161  40.777  0.00  0.00     0.167 A 
ATOM      5  N   UNL d   1      46.444 -17.392  42.059  0.00  0.00    -0.161 NA
ATOM      6  N   UNL d   1      46.529 -19.472  41.766  0.00  0.00    -0.227 NA
ATOM      7  C   UNL d   1      46.617 -18.924  40.458  0.00  0.00     0.058 A 
ATOM      8  C   UNL d   1      46.389 -17.622  42.830  0.00  0.00     0.124 A 
ATOM      9  C   UNL d   1      46.597 -19.571  40.947  0.00  0.00     0.086 A 
ATOM     10  C   UNL d   1      46.646 -20.330  40.612  0.00  0.00     0.021 C 
ENDROOT
BRANCH   4  11
ATOM     11  N   UNL d   1      46.589 -17.500  40.279  0.00  0.00    -0.224 NA
BRANCH  11  12
ATOM     12  C   UNL d   1      46.027 -17.418  39.686  0.00  0.00     0.120 C 
BRANCH  12  13
ATOM     13  C   UNL d   1      46.211 -16.993  39.000  0.00  0.00     0.101 C 
BRANCH  13  14
ATOM     14  N   UNL d   1      45.610 -16.710  38.511  0.00  0.00    -0.298 N 
ATOM     15  C   UNL d   1      44.838 -16.982  38.621  0.00  0.00     0.107 A 
ATOM     16  C   UNL d   1      44.228 -16.699  38.130  0.00  0.00     0.142 A 
ATOM     17  O   UNL d   1      44.395 -16.154  37.541  0.00  0.00    -0.300 OA
ATOM     18  C   UNL d   1      45.175 -15.883  37.433  0.00  0.00     0.142 A 
ATOM     19  C   UNL d   1      45.778 -16.163  37.919  0.00  0.00     0.107 A 
ENDBRANCH  13  14
ENDBRANCH  12  13
ENDBRANCH  11  12
ENDBRANCH   4  11
BRANCH   3  20
ATOM     20  C   UNL d   1      46.377 -18.979  43.485  0.00  0.00     0.004 A 
ATOM     21  C   UNL d   1      46.156 -19.768  43.344  0.00  0.00     0.000 A 
ATOM     22  C   UNL d   1      46.120 -20.298  43.963  0.00  0.00     0.000 A 
ATOM     23  C   UNL d   1      46.303 -20.053  44.736  0.00  0.00     0.000 A 
ATOM     24  C   UNL d   1      46.521 -19.277  44.876  0.00  0.00     0.000 A 
ATOM     25  C   UNL d   1      46.557 -18.741  44.248  0.00  0.00     0.000 A 
ENDBRANCH   3  20
TORSDOF 5
ENDMDL
