MODEL 1
REMARK VINA RESULT:      91.1      0.000      0.000
REMARK  5 active torsions:
REMARK  status: ('A' for Active; 'I' for Inactive)
REMARK    1  A    between atoms: C_2  and  C_1 
REMARK    2  A    between atoms: C_6  and  C_2 
REMARK    3  A    between atoms: S_3  and  C_11 
REMARK    4  A    between atoms: N_7  and  S_3 
REMARK    5  A    between atoms: C_15  and  C_6 
ROOT
ATOM      1  C   UNL d   1     -55.231-101.486 -42.389  0.00  0.00     0.141 C 
ATOM      2  C   UNL d   1     -55.063-100.811 -41.924  0.00  0.00     0.107 C 
ATOM      3  N   UNL d   1     -54.901-100.166 -41.463  0.00  0.00    -0.191 NA
ENDROOT
BRANCH   1   4
ATOM      4  C   UNL d   1     -55.250-101.417 -43.210  0.00  0.00     0.161 A 
ATOM      5  N   UNL d   1     -55.591-100.793 -43.638  0.00  0.00    -0.287 N 
ATOM      6  C   UNL d   1     -55.490-100.938 -44.441  0.00  0.00     0.083 A 
ATOM      7  C   UNL d   1     -55.980-100.116 -43.309  0.00  0.00     0.101 C 
ATOM      8  C   UNL d   1     -55.712-100.515 -45.101  0.00  0.00     0.019 A 
ATOM      9  C   UNL d   1     -55.074-101.675 -44.512  0.00  0.00     0.099 A 
ATOM     10  C   UNL d   1     -55.523-100.820 -45.847  0.00  0.00     0.002 A 
ATOM     11  C   UNL d   1     -55.106-101.558 -45.919  0.00  0.00     0.002 A 
ATOM     12  C   UNL d   1     -54.889-101.973 -45.242  0.00  0.00     0.021 A 
ATOM     13  N   UNL d   1     -54.936-101.952 -43.750  0.00  0.00    -0.226 NA
ENDBRANCH   1   4
BRANCH   1  14
ATOM     14  C   UNL d   1     -55.376-102.209 -42.034  0.00  0.00     0.208 C 
ATOM     15  O   UNL d   1     -55.460-102.875 -42.496  0.00  0.00    -0.286 OA
BRANCH  14  16
ATOM     16  C   UNL d   1     -55.437-102.262 -41.208  0.00  0.00     0.040 A 
ATOM     17  C   UNL d   1     -54.774-102.514 -40.764  0.00  0.00     0.004 A 
ATOM     18  C   UNL d   1     -54.835-102.568 -39.943  0.00  0.00     0.013 A 
ATOM     19  C   UNL d   1     -55.537-102.375 -39.571  0.00  0.00     0.104 A 
ATOM     20  C   UNL d   1     -56.199-102.123 -40.014  0.00  0.00     0.013 A 
ATOM     21  C   UNL d   1     -56.139-102.070 -40.835  0.00  0.00     0.004 A 
BRANCH  19  22
ATOM     22  S   UNL d   1     -55.598-102.429 -38.744  0.00  0.00     0.271 S 
ATOM     23  O   UNL d   1     -54.804-102.732 -38.705  0.00  0.00    -0.200 OA
ATOM     24  O   UNL d   1     -56.372-102.133 -38.782  0.00  0.00    -0.200 OA
BRANCH  22  25
ATOM     25  N   UNL d   1     -55.658-102.482 -37.923  0.00  0.00    -0.229 N 
ATOM     26  C   UNL d   1     -55.061-102.187 -37.449  0.00  0.00     0.092 A 
ATOM     27  C   UNL d   1     -55.122-102.240 -36.623  0.00  0.00     0.020 A 
ATOM     28  C   UNL d   1     -55.779-102.589 -36.277  0.00  0.00     0.003 A 
ATOM     29  C   UNL d   1     -56.368-102.879 -36.756  0.00  0.00     0.020 A 
ATOM     30  C   UNL d   1     -56.307-102.826 -37.582  0.00  0.00     0.092 A 
ENDBRANCH  22  25
ENDBRANCH  19  22
ENDBRANCH  14  16
ENDBRANCH   1  14
TORSDOF 5
ENDMDL
