MODEL 1
REMARK VINA RESULT:      74.7      0.000      0.000
REMARK  8 active torsions:
REMARK  status: ('A' for Active; 'I' for Inactive)
REMARK    1  A    between atoms: C_16  and  N_1 
REMARK    2  A    between atoms: S_7  and  C_2 
REMARK       I    between atoms: C_6  and  N_12 
REMARK    3  A    between atoms: C_9  and  C_6 
REMARK    4  A    between atoms: C_13  and  S_7 
REMARK    5  A    between atoms: C_8  and  C_13 
REMARK    6  A    between atoms: N_12  and  C_22 
REMARK    7  A    between atoms: C_22  and  C_16 
REMARK    8  A    between atoms: O_24  and  C_18 
ROOT
ATOM      1  N   UNL d   1      58.678  49.701  51.556  0.00  0.00    -0.302 N 
ATOM      2  C   UNL d   1      57.633  49.699  50.718  0.00  0.00     0.049 A 
ATOM      3  C   UNL d   1      58.459  49.701  50.753  0.00  0.00     0.087 A 
ATOM      4  C   UNL d   1      57.335  49.699  51.496  0.00  0.00     0.024 A 
ATOM      5  C   UNL d   1      57.988  49.700  52.014  0.00  0.00     0.065 A 
ATOM      6  C   UNL d   1      56.574  49.697  51.806  0.00  0.00     0.002 A 
ATOM      7  C   UNL d   1      57.865  49.700  52.837  0.00  0.00     0.018 A 
ATOM      8  C   UNL d   1      56.450  49.697  52.616  0.00  0.00     0.000 A 
ATOM      9  C   UNL d   1      57.103  49.698  53.134  0.00  0.00     0.002 A 
ENDROOT
BRANCH   1  10
ATOM     10  C   UNL d   1      59.451  49.703  51.844  0.00  0.00     0.101 C 
BRANCH  10  11
ATOM     11  C   UNL d   1      59.837  48.991  51.999  0.00  0.00     0.121 C 
BRANCH  11  12
ATOM     12  N   UNL d   1      60.119  48.526  51.378  0.00  0.00    -0.205 NA
ATOM     13  C   UNL d   1      60.644  47.912  51.529  0.00  0.00     0.279 C 
ATOM     14  O   UNL d   1      60.892  47.756  52.301  0.00  0.00    -0.265 OA
BRANCH  13  15
ATOM     15  C   UNL d   1      60.926  47.448  50.908  0.00  0.00     0.058 A 
ATOM     16  C   UNL d   1      60.493  46.777  50.659  0.00  0.00     0.007 A 
ATOM     17  C   UNL d   1      60.774  46.312  50.038  0.00  0.00     0.024 A 
ATOM     18  C   UNL d   1      61.488  46.520  49.670  0.00  0.00     0.094 A 
ATOM     19  C   UNL d   1      61.913  47.182  49.917  0.00  0.00     0.024 A 
ATOM     20  C   UNL d   1      61.631  47.639  50.532  0.00  0.00     0.007 A 
BRANCH  18  21
ATOM     21  O   UNL d   1      61.784  46.056  49.038  0.00  0.00    -0.328 OA
ATOM     22  C   UNL d   1      61.463  45.313  48.858  0.00  0.00     0.181 C 
ENDBRANCH  18  21
ENDBRANCH  13  15
ENDBRANCH  11  12
ENDBRANCH  10  11
ENDBRANCH   1  10
BRANCH   2  23
ATOM     23  S   UNL d   1      57.173  49.698  50.033  0.00  0.00    -0.080 SA
BRANCH  23  24
ATOM     24  C   UNL d   1      57.346  49.168  49.420  0.00  0.00     0.100 C 
BRANCH  24  25
ATOM     25  C   UNL d   1      56.843  48.539  49.258  0.00  0.00     0.303 C 
ATOM     26  O   UNL d   1      57.042  47.781  49.513  0.00  0.00    -0.263 OA
ATOM     27  N   UNL d   1      56.142  48.664  48.841  0.00  0.00    -0.102 N 
ENDBRANCH  24  25
ENDBRANCH  23  24
ENDBRANCH   2  23
TORSDOF 8
ENDMDL
