MODEL 1
REMARK VINA RESULT:      76.0      0.000      0.000
REMARK  5 active torsions:
REMARK  status: ('A' for Active; 'I' for Inactive)
REMARK    1  A    between atoms: O_8  and  C_2 
REMARK    2  A    between atoms: C_9  and  C_5 
REMARK    3  A    between atoms: C_14  and  O_8 
REMARK    4  A    between atoms: N_11  and  C_9 
REMARK    5  A    between atoms: O_21  and  C_18 
ROOT
ATOM      1  C   UNL d   1     -54.716-101.071 -40.665  0.00  0.00     0.108 A 
ATOM      2  C   UNL d   1     -54.715-100.098 -42.016  0.00  0.00     0.161 A 
ATOM      3  C   UNL d   1     -54.715-101.413 -41.427  0.00  0.00     0.064 A 
ATOM      4  C   UNL d   1     -54.714-100.930 -42.091  0.00  0.00     0.222 A 
ATOM      5  C   UNL d   1     -54.717-101.557 -39.990  0.00  0.00     0.079 A 
ATOM      6  O   UNL d   1     -54.717-100.245 -40.573  0.00  0.00    -0.305 OA
ATOM      7  C   UNL d   1     -54.717 -99.754 -41.250  0.00  0.00     0.126 A 
ATOM      8  C   UNL d   1     -54.714-102.241 -41.495  0.00  0.00     0.009 A 
ATOM      9  C   UNL d   1     -54.716-102.378 -40.071  0.00  0.00     0.199 A 
ATOM     10  O   UNL d   1     -54.712-101.264 -42.847  0.00  0.00    -0.284 OA
ATOM     11  C   UNL d   1     -54.714-102.720 -40.824  0.00  0.00     0.042 A 
ATOM     12  O   UNL d   1     -54.717-102.857 -39.399  0.00  0.00    -0.286 OA
ATOM     13  C   UNL d   1     -54.718 -98.933 -41.169  0.00  0.00     0.029 C 
ENDROOT
BRANCH   2  14
ATOM     14  O   UNL d   1     -54.714 -99.617 -42.684  0.00  0.00    -0.302 OA
BRANCH  14  15
ATOM     15  C   UNL d   1     -55.201 -99.798 -43.325  0.00  0.00     0.102 A 
ATOM     16  C   UNL d   1     -55.042-100.465 -43.784  0.00  0.00     0.049 A 
ATOM     17  C   UNL d   1     -55.529-100.647 -44.426  0.00  0.00     0.096 A 
ATOM     18  C   UNL d   1     -56.173-100.163 -44.607  0.00  0.00     0.024 A 
ATOM     19  C   UNL d   1     -56.329 -99.488 -44.138  0.00  0.00     0.004 A 
ATOM     20  C   UNL d   1     -55.841 -99.314 -43.503  0.00  0.00     0.025 A 
BRANCH  17  21
ATOM     21  O   UNL d   1     -55.370-101.314 -44.885  0.00  0.00    -0.328 OA
ATOM     22  C   UNL d   1     -54.993-101.229 -45.614  0.00  0.00     0.181 C 
ENDBRANCH  17  21
ENDBRANCH  14  15
ENDBRANCH   2  14
BRANCH   5  23
ATOM     23  C   UNL d   1     -54.719-101.219 -39.245  0.00  0.00     0.086 C 
BRANCH  23  24
ATOM     24  N   UNL d   1     -55.097-101.604 -38.617  0.00  0.00    -0.299 N 
ATOM     25  C   UNL d   1     -55.792-102.030 -38.758  0.00  0.00     0.107 A 
ATOM     26  C   UNL d   1     -56.170-102.415 -38.133  0.00  0.00     0.142 A 
ATOM     27  O   UNL d   1     -55.854-102.374 -37.369  0.00  0.00    -0.300 OA
ATOM     28  C   UNL d   1     -55.159-101.947 -37.232  0.00  0.00     0.142 A 
ATOM     29  C   UNL d   1     -54.777-101.560 -37.859  0.00  0.00     0.107 A 
ENDBRANCH  23  24
ENDBRANCH   5  23
TORSDOF 5
ENDMDL
MODEL 2
REMARK VINA RESULT:      76.7      2.778      5.076
REMARK  5 active torsions:
REMARK  status: ('A' for Active; 'I' for Inactive)
REMARK    1  A    between atoms: O_8  and  C_2 
REMARK    2  A    between atoms: C_9  and  C_5 
REMARK    3  A    between atoms: C_14  and  O_8 
REMARK    4  A    between atoms: N_11  and  C_9 
REMARK    5  A    between atoms: O_21  and  C_18 
ROOT
ATOM      1  C   UNL d   1     -57.937 -99.090 -44.377  0.00  0.00     0.108 A 
ATOM      2  C   UNL d   1     -56.307 -99.421 -44.297  0.00  0.00     0.161 A 
ATOM      3  C   UNL d   1     -57.511 -99.263 -45.074  0.00  0.00     0.064 A 
ATOM      4  C   UNL d   1     -56.707 -99.426 -45.031  0.00  0.00     0.222 A 
ATOM      5  C   UNL d   1     -58.752 -98.925 -44.416  0.00  0.00     0.079 A 
ATOM      6  O   UNL d   1     -57.555 -99.082 -43.639  0.00  0.00    -0.305 OA
ATOM      7  C   UNL d   1     -56.736 -99.248 -43.596  0.00  0.00     0.126 A 
ATOM      8  C   UNL d   1     -57.914 -99.266 -45.801  0.00  0.00     0.009 A 
ATOM      9  C   UNL d   1     -59.141 -98.931 -45.144  0.00  0.00     0.199 A 
ATOM     10  O   UNL d   1     -56.282 -99.597 -45.718  0.00  0.00    -0.284 OA
ATOM     11  C   UNL d   1     -58.722 -99.101 -45.836  0.00  0.00     0.042 A 
ATOM     12  O   UNL d   1     -59.949 -98.766 -45.179  0.00  0.00    -0.286 OA
ATOM     13  C   UNL d   1     -56.347 -99.242 -42.869  0.00  0.00     0.029 C 
ENDROOT
BRANCH   2  14
ATOM     14  O   UNL d   1     -55.502 -99.585 -44.258  0.00  0.00    -0.302 OA
BRANCH  14  15
ATOM     15  C   UNL d   1     -55.243-100.355 -44.115  0.00  0.00     0.102 A 
ATOM     16  C   UNL d   1     -55.115-100.607 -43.339  0.00  0.00     0.049 A 
ATOM     17  C   UNL d   1     -54.856-101.377 -43.195  0.00  0.00     0.096 A 
ATOM     18  C   UNL d   1     -54.724-101.894 -43.826  0.00  0.00     0.024 A 
ATOM     19  C   UNL d   1     -54.855-101.633 -44.610  0.00  0.00     0.004 A 
ATOM     20  C   UNL d   1     -55.113-100.867 -44.745  0.00  0.00     0.025 A 
BRANCH  17  21
ATOM     21  O   UNL d   1     -54.729-101.629 -42.420  0.00  0.00    -0.328 OA
ATOM     22  C   UNL d   1     -54.783-102.432 -42.235  0.00  0.00     0.181 C 
ENDBRANCH  17  21
ENDBRANCH  14  15
ENDBRANCH   2  14
BRANCH   5  23
ATOM     23  C   UNL d   1     -59.166 -98.756 -43.731  0.00  0.00     0.086 C 
BRANCH  23  24
ATOM     24  N   UNL d   1     -59.403 -99.372 -43.230  0.00  0.00    -0.299 N 
ATOM     25  C   UNL d   1     -59.719-100.064 -43.554  0.00  0.00     0.107 A 
ATOM     26  C   UNL d   1     -59.956-100.678 -43.056  0.00  0.00     0.142 A 
ATOM     27  O   UNL d   1     -59.877-100.600 -42.235  0.00  0.00    -0.300 OA
ATOM     28  C   UNL d   1     -59.561 -99.906 -41.915  0.00  0.00     0.142 A 
ATOM     29  C   UNL d   1     -59.323 -99.288 -42.415  0.00  0.00     0.107 A 
ENDBRANCH  23  24
ENDBRANCH   5  23
TORSDOF 5
ENDMDL
