MODEL 1
REMARK VINA RESULT:      37.4      0.000      0.000
REMARK  4 active torsions:
REMARK  status: ('A' for Active; 'I' for Inactive)
REMARK    1  A    between atoms: C_2  and  C_1 
REMARK    2  A    between atoms: C_6  and  C_2 
REMARK    3  A    between atoms: C_9  and  C_6 
REMARK    4  A    between atoms: O_18  and  C_12 
ROOT
ATOM      1  C   UNL d   1     -51.769  26.031  33.445  0.00  0.00     0.199 C 
ATOM      2  O   UNL d   1     -52.181  26.681  33.616  0.00  0.00    -0.286 OA
ENDROOT
BRANCH   1   3
ATOM      3  C   UNL d   1     -52.267  25.274  33.429  0.00  0.00     0.078 A 
ATOM      4  C   UNL d   1     -53.084  25.368  33.359  0.00  0.00     0.202 A 
ATOM      5  C   UNL d   1     -53.587  24.646  33.341  0.00  0.00     0.084 A 
ATOM      6  O   UNL d   1     -53.419  26.117  33.306  0.00  0.00    -0.286 OA
ATOM      7  C   UNL d   1     -53.230  23.882  33.397  0.00  0.00     0.199 A 
ATOM      8  C   UNL d   1     -52.418  23.822  33.466  0.00  0.00     0.042 A 
ATOM      9  O   UNL d   1     -53.732  23.190  33.378  0.00  0.00    -0.286 OA
ATOM     10  C   UNL d   1     -51.919  24.527  33.484  0.00  0.00     0.010 A 
ENDBRANCH   1   3
BRANCH   1  11
ATOM     11  C   UNL d   1     -51.060  25.999  33.307  0.00  0.00     0.042 C 
BRANCH  11  12
ATOM     12  C   UNL d   1     -50.619  26.669  33.365  0.00  0.00     0.003 A 
ATOM     13  C   UNL d   1     -49.825  26.623  33.467  0.00  0.00     0.002 A 
ATOM     14  C   UNL d   1     -49.359  27.325  33.529  0.00  0.00     0.024 A 
ATOM     15  C   UNL d   1     -49.702  28.069  33.486  0.00  0.00     0.094 A 
ATOM     16  C   UNL d   1     -50.505  28.120  33.383  0.00  0.00     0.024 A 
ATOM     17  C   UNL d   1     -50.971  27.447  33.322  0.00  0.00     0.002 A 
BRANCH  15  18
ATOM     18  O   UNL d   1     -49.234  28.780  33.548  0.00  0.00    -0.328 OA
ATOM     19  C   UNL d   1     -49.587  29.520  33.499  0.00  0.00     0.181 C 
ENDBRANCH  15  18
ENDBRANCH  11  12
ENDBRANCH   1  11
TORSDOF 4
ENDMDL
MODEL 2
REMARK VINA RESULT:      39.2      1.154      1.439
REMARK  4 active torsions:
REMARK  status: ('A' for Active; 'I' for Inactive)
REMARK    1  A    between atoms: C_2  and  C_1 
REMARK    2  A    between atoms: C_6  and  C_2 
REMARK    3  A    between atoms: C_9  and  C_6 
REMARK    4  A    between atoms: O_18  and  C_12 
ROOT
ATOM      1  C   UNL d   1     -50.739  26.396  33.311  0.00  0.00     0.199 C 
ATOM      2  O   UNL d   1     -51.269  26.978  33.306  0.00  0.00    -0.286 OA
ENDROOT
BRANCH   1   3
ATOM      3  C   UNL d   1     -51.104  25.565  33.321  0.00  0.00     0.078 A 
ATOM      4  C   UNL d   1     -51.927  25.522  33.345  0.00  0.00     0.202 A 
ATOM      5  C   UNL d   1     -52.304  24.727  33.356  0.00  0.00     0.084 A 
ATOM      6  O   UNL d   1     -52.385  26.206  33.358  0.00  0.00    -0.286 OA
ATOM      7  C   UNL d   1     -51.821  24.033  33.342  0.00  0.00     0.199 A 
ATOM      8  C   UNL d   1     -51.008  24.109  33.318  0.00  0.00     0.042 A 
ATOM      9  O   UNL d   1     -52.202  23.267  33.353  0.00  0.00    -0.286 OA
ATOM     10  C   UNL d   1     -50.633  24.887  33.307  0.00  0.00     0.010 A 
ENDBRANCH   1   3
BRANCH   1  11
ATOM     11  C   UNL d   1     -50.020  26.473  33.307  0.00  0.00     0.042 C 
BRANCH  11  12
ATOM     12  C   UNL d   1     -49.679  26.990  33.819  0.00  0.00     0.003 A 
ATOM     13  C   UNL d   1     -49.234  26.722  34.430  0.00  0.00     0.002 A 
ATOM     14  C   UNL d   1     -48.875  27.264  34.969  0.00  0.00     0.024 A 
ATOM     15  C   UNL d   1     -48.969  28.074  34.886  0.00  0.00     0.094 A 
ATOM     16  C   UNL d   1     -49.418  28.350  34.269  0.00  0.00     0.024 A 
ATOM     17  C   UNL d   1     -49.774  27.837  33.737  0.00  0.00     0.002 A 
BRANCH  15  18
ATOM     18  O   UNL d   1     -48.607  28.624  35.429  0.00  0.00    -0.328 OA
ATOM     19  C   UNL d   1     -47.820  28.842  35.344  0.00  0.00     0.181 C 
ENDBRANCH  15  18
ENDBRANCH  11  12
ENDBRANCH   1  11
TORSDOF 4
ENDMDL
