MODEL 1
REMARK VINA RESULT:      -2.6      0.000      0.000
REMARK  4 active torsions:
REMARK  status: ('A' for Active; 'I' for Inactive)
REMARK    1  A    between atoms: S_9  and  C_3 
REMARK    2  A    between atoms: C_12  and  S_9 
REMARK    3  A    between atoms: C_11  and  C_12 
REMARK    4  A    between atoms: O_16  and  C_11 
ROOT
ATOM      1  C   UNL d   1      30.930  16.386 -23.586  0.00  0.00     0.155 A 
ATOM      2  C   UNL d   1      30.820  17.076 -24.031  0.00  0.00     0.107 A 
ATOM      3  C   UNL d   1      32.212  17.366 -23.913  0.00  0.00     0.182 A 
ATOM      4  N   UNL d   1      32.323  16.685 -23.472  0.00  0.00    -0.250 N 
ATOM      5  N   UNL d   1      31.466  17.570 -24.196  0.00  0.00    -0.220 NA
ATOM      6  C   UNL d   1      31.677  16.191 -23.308  0.00  0.00     0.285 A 
ATOM      7  N   UNL d   1      30.201  16.010 -23.511  0.00  0.00    -0.239 NA
ATOM      8  C   UNL d   1      30.026  17.131 -24.234  0.00  0.00     0.037 A 
ATOM      9  C   UNL d   1      29.636  16.467 -23.911  0.00  0.00     0.083 A 
ATOM     10  O   UNL d   1      31.795  15.501 -22.861  0.00  0.00    -0.265 OA
ATOM     11  C   UNL d   1      33.078  16.490 -23.192  0.00  0.00     0.104 C 
ATOM     12  C   UNL d   1      29.599  17.686 -24.664  0.00  0.00     0.003 A 
ATOM     13  C   UNL d   1      28.822  16.368 -24.023  0.00  0.00     0.019 A 
ATOM     14  C   UNL d   1      28.785  17.587 -24.777  0.00  0.00     0.000 A 
ATOM     15  C   UNL d   1      28.402  16.931 -24.457  0.00  0.00     0.002 A 
ENDROOT
BRANCH   3  16
ATOM     16  S   UNL d   1      32.857  17.857 -24.075  0.00  0.00    -0.044 SA
BRANCH  16  17
ATOM     17  C   UNL d   1      32.867  18.636 -23.804  0.00  0.00     0.095 C 
ATOM     18  C   UNL d   1      32.629  18.808 -23.036  0.00  0.00     0.013 C 
BRANCH  17  19
ATOM     19  C   UNL d   1      33.116  19.237 -24.310  0.00  0.00     0.302 C 
ATOM     20  O   UNL d   1      33.241  19.086 -25.097  0.00  0.00    -0.259 OA
BRANCH  19  21
ATOM     21  O   UNL d   1      33.241  20.003 -24.016  0.00  0.00    -0.295 OA
ATOM     22  C   UNL d   1      33.234  20.653 -24.532  0.00  0.00     0.185 C 
ENDBRANCH  19  21
ENDBRANCH  17  19
ENDBRANCH  16  17
ENDBRANCH   3  16
TORSDOF 4
ENDMDL
MODEL 2
REMARK VINA RESULT:      -1.7      2.348      4.766
REMARK  4 active torsions:
REMARK  status: ('A' for Active; 'I' for Inactive)
REMARK    1  A    between atoms: S_9  and  C_3 
REMARK    2  A    between atoms: C_12  and  S_9 
REMARK    3  A    between atoms: C_11  and  C_12 
REMARK    4  A    between atoms: O_16  and  C_11 
ROOT
ATOM      1  C   UNL d   1      33.128  21.007 -23.165  0.00  0.00     0.155 A 
ATOM      2  C   UNL d   1      33.078  20.378 -22.628  0.00  0.00     0.107 A 
ATOM      3  C   UNL d   1      33.120  19.455 -23.714  0.00  0.00     0.182 A 
ATOM      4  N   UNL d   1      33.169  20.074 -24.248  0.00  0.00    -0.250 N 
ATOM      5  N   UNL d   1      33.074  19.597 -22.905  0.00  0.00    -0.220 NA
ATOM      6  C   UNL d   1      33.173  20.857 -23.970  0.00  0.00     0.285 A 
ATOM      7  N   UNL d   1      33.121  21.711 -22.737  0.00  0.00    -0.239 NA
ATOM      8  C   UNL d   1      33.041  20.689 -21.868  0.00  0.00     0.037 A 
ATOM      9  C   UNL d   1      33.067  21.520 -21.932  0.00  0.00     0.083 A 
ATOM     10  O   UNL d   1      33.223  21.481 -24.515  0.00  0.00    -0.265 OA
ATOM     11  C   UNL d   1      33.214  19.921 -25.061  0.00  0.00     0.104 C 
ATOM     12  C   UNL d   1      32.986  20.338 -21.126  0.00  0.00     0.003 A 
ATOM     13  C   UNL d   1      33.038  21.991 -21.252  0.00  0.00     0.019 A 
ATOM     14  C   UNL d   1      32.957  20.808 -20.446  0.00  0.00     0.000 A 
ATOM     15  C   UNL d   1      32.983  21.630 -20.512  0.00  0.00     0.002 A 
ENDROOT
BRANCH   3  16
ATOM     16  S   UNL d   1      33.116  18.677 -23.992  0.00  0.00    -0.044 SA
BRANCH  16  17
ATOM     17  C   UNL d   1      32.520  18.155 -23.762  0.00  0.00     0.095 C 
ATOM     18  C   UNL d   1      31.774  18.442 -23.567  0.00  0.00     0.013 C 
BRANCH  17  19
ATOM     19  C   UNL d   1      32.679  17.347 -23.730  0.00  0.00     0.302 C 
ATOM     20  O   UNL d   1      32.699  16.905 -24.409  0.00  0.00    -0.259 OA
BRANCH  19  21
ATOM     21  O   UNL d   1      32.821  16.980 -23.000  0.00  0.00    -0.295 OA
ATOM     22  C   UNL d   1      32.812  16.152 -22.941  0.00  0.00     0.185 C 
ENDBRANCH  19  21
ENDBRANCH  17  19
ENDBRANCH  16  17
ENDBRANCH   3  16
TORSDOF 4
ENDMDL
MODEL 3
REMARK VINA RESULT:      -0.7      2.242      4.507
REMARK  4 active torsions:
REMARK  status: ('A' for Active; 'I' for Inactive)
REMARK    1  A    between atoms: S_9  and  C_3 
REMARK    2  A    between atoms: C_12  and  S_9 
REMARK    3  A    between atoms: C_11  and  C_12 
REMARK    4  A    between atoms: O_16  and  C_11 
ROOT
ATOM      1  C   UNL d   1      33.226  20.544 -23.013  0.00  0.00     0.155 A 
ATOM      2  C   UNL d   1      33.214  20.494 -23.840  0.00  0.00     0.107 A 
ATOM      3  C   UNL d   1      33.199  19.071 -23.748  0.00  0.00     0.182 A 
ATOM      4  N   UNL d   1      33.212  19.117 -22.931  0.00  0.00    -0.250 N 
ATOM      5  N   UNL d   1      33.200  19.752 -24.210  0.00  0.00    -0.220 NA
ATOM      6  C   UNL d   1      33.225  19.860 -22.561  0.00  0.00     0.285 A 
ATOM      7  N   UNL d   1      33.239  21.341 -22.804  0.00  0.00    -0.239 NA
ATOM      8  C   UNL d   1      33.218  21.257 -24.146  0.00  0.00     0.037 A 
ATOM      9  C   UNL d   1      33.233  21.788 -23.503  0.00  0.00     0.083 A 
ATOM     10  O   UNL d   1      33.238  19.901 -21.732  0.00  0.00    -0.265 OA
ATOM     11  C   UNL d   1      33.211  18.425 -22.475  0.00  0.00     0.104 C 
ATOM     12  C   UNL d   1      33.210  21.548 -24.916  0.00  0.00     0.003 A 
ATOM     13  C   UNL d   1      33.240  22.604 -23.638  0.00  0.00     0.019 A 
ATOM     14  C   UNL d   1      33.217  22.364 -25.050  0.00  0.00     0.000 A 
ATOM     15  C   UNL d   1      33.232  22.887 -24.413  0.00  0.00     0.002 A 
ENDROOT
BRANCH   3  16
ATOM     16  S   UNL d   1      33.185  18.331 -24.115  0.00  0.00    -0.044 SA
BRANCH  16  17
ATOM     17  C   UNL d   1      32.522  18.089 -24.540  0.00  0.00     0.095 C 
ATOM     18  C   UNL d   1      31.942  18.635 -24.746  0.00  0.00     0.013 C 
BRANCH  17  19
ATOM     19  C   UNL d   1      32.446  17.296 -24.756  0.00  0.00     0.302 C 
ATOM     20  O   UNL d   1      33.104  16.835 -24.861  0.00  0.00    -0.259 OA
BRANCH  19  21
ATOM     21  O   UNL d   1      31.693  16.966 -24.868  0.00  0.00    -0.295 OA
ATOM     22  C   UNL d   1      31.615  16.160 -25.050  0.00  0.00     0.185 C 
ENDBRANCH  19  21
ENDBRANCH  17  19
ENDBRANCH  16  17
ENDBRANCH   3  16
TORSDOF 4
ENDMDL
MODEL 4
REMARK VINA RESULT:      -0.7      1.796      3.894
REMARK  4 active torsions:
REMARK  status: ('A' for Active; 'I' for Inactive)
REMARK    1  A    between atoms: S_9  and  C_3 
REMARK    2  A    between atoms: C_12  and  S_9 
REMARK    3  A    between atoms: C_11  and  C_12 
REMARK    4  A    between atoms: O_16  and  C_11 
ROOT
ATOM      1  C   UNL d   1      32.006  17.104 -24.467  0.00  0.00     0.155 A 
ATOM      2  C   UNL d   1      31.469  17.635 -24.127  0.00  0.00     0.107 A 
ATOM      3  C   UNL d   1      30.411  16.708 -24.368  0.00  0.00     0.182 A 
ATOM      4  N   UNL d   1      30.940  16.182 -24.705  0.00  0.00    -0.250 N 
ATOM      5  N   UNL d   1      30.665  17.435 -24.078  0.00  0.00    -0.220 NA
ATOM      6  C   UNL d   1      31.745  16.382 -24.755  0.00  0.00     0.285 A 
ATOM      7  N   UNL d   1      32.756  17.446 -24.442  0.00  0.00    -0.239 NA
ATOM      8  C   UNL d   1      31.881  18.305 -23.890  0.00  0.00     0.037 A 
ATOM      9  C   UNL d   1      32.684  18.191 -24.085  0.00  0.00     0.083 A 
ATOM     10  O   UNL d   1      32.277  15.844 -25.097  0.00  0.00    -0.265 OA
ATOM     11  C   UNL d   1      30.674  15.453 -24.995  0.00  0.00     0.104 C 
ATOM     12  C   UNL d   1      31.643  19.004 -23.526  0.00  0.00     0.003 A 
ATOM     13  C   UNL d   1      33.241  18.778 -23.912  0.00  0.00     0.019 A 
ATOM     14  C   UNL d   1      32.200  19.591 -23.353  0.00  0.00     0.000 A 
ATOM     15  C   UNL d   1      32.993  19.476 -23.546  0.00  0.00     0.002 A 
ENDROOT
BRANCH   3  16
ATOM     16  S   UNL d   1      29.611  16.507 -24.320  0.00  0.00    -0.044 SA
BRANCH  16  17
ATOM     17  C   UNL d   1      29.031  17.089 -24.390  0.00  0.00     0.095 C 
ATOM     18  C   UNL d   1      29.068  17.638 -25.002  0.00  0.00     0.013 C 
BRANCH  17  19
ATOM     19  C   UNL d   1      28.415  17.114 -23.842  0.00  0.00     0.302 C 
ATOM     20  O   UNL d   1      28.201  17.816 -23.497  0.00  0.00    -0.259 OA
BRANCH  19  21
ATOM     21  O   UNL d   1      28.009  16.419 -23.641  0.00  0.00    -0.295 OA
ATOM     22  C   UNL d   1      27.272  16.463 -23.262  0.00  0.00     0.185 C 
ENDBRANCH  19  21
ENDBRANCH  17  19
ENDBRANCH  16  17
ENDBRANCH   3  16
TORSDOF 4
ENDMDL
MODEL 5
REMARK VINA RESULT:      -0.7      3.963      6.272
REMARK  4 active torsions:
REMARK  status: ('A' for Active; 'I' for Inactive)
REMARK    1  A    between atoms: S_9  and  C_3 
REMARK    2  A    between atoms: C_12  and  S_9 
REMARK    3  A    between atoms: C_11  and  C_12 
REMARK    4  A    between atoms: O_16  and  C_11 
ROOT
ATOM      1  C   UNL d   1      33.180  22.989 -21.666  0.00  0.00     0.155 A 
ATOM      2  C   UNL d   1      33.180  22.278 -21.241  0.00  0.00     0.107 A 
ATOM      3  C   UNL d   1      33.220  21.552 -22.468  0.00  0.00     0.182 A 
ATOM      4  N   UNL d   1      33.220  22.253 -22.891  0.00  0.00    -0.250 N 
ATOM      5  N   UNL d   1      33.200  21.554 -21.646  0.00  0.00    -0.220 NA
ATOM      6  C   UNL d   1      33.200  22.977 -22.486  0.00  0.00     0.285 A 
ATOM      7  N   UNL d   1      33.158  23.611 -21.126  0.00  0.00    -0.239 NA
ATOM      8  C   UNL d   1      33.158  22.454 -20.439  0.00  0.00     0.037 A 
ATOM      9  C   UNL d   1      33.144  23.285 -20.363  0.00  0.00     0.083 A 
ATOM     10  O   UNL d   1      33.200  23.686 -22.919  0.00  0.00    -0.265 OA
ATOM     11  C   UNL d   1      33.240  22.240 -23.719  0.00  0.00     0.104 C 
ATOM     12  C   UNL d   1      33.149  21.982 -19.766  0.00  0.00     0.003 A 
ATOM     13  C   UNL d   1      33.121  23.634 -19.613  0.00  0.00     0.019 A 
ATOM     14  C   UNL d   1      33.126  22.331 -19.015  0.00  0.00     0.000 A 
ATOM     15  C   UNL d   1      33.112  23.152 -18.943  0.00  0.00     0.002 A 
ENDROOT
BRANCH   3  16
ATOM     16  S   UNL d   1      33.240  20.832 -22.874  0.00  0.00    -0.044 SA
BRANCH  16  17
ATOM     17  C   UNL d   1      32.960  20.144 -22.515  0.00  0.00     0.095 C 
ATOM     18  C   UNL d   1      32.704  20.161 -21.733  0.00  0.00     0.013 C 
BRANCH  17  19
ATOM     19  C   UNL d   1      32.939  19.442 -22.947  0.00  0.00     0.302 C 
ATOM     20  O   UNL d   1      33.211  19.421 -23.710  0.00  0.00    -0.259 OA
BRANCH  19  21
ATOM     21  O   UNL d   1      32.638  18.750 -22.602  0.00  0.00    -0.295 OA
ATOM     22  C   UNL d   1      32.807  18.010 -22.937  0.00  0.00     0.185 C 
ENDBRANCH  19  21
ENDBRANCH  17  19
ENDBRANCH  16  17
ENDBRANCH   3  16
TORSDOF 4
ENDMDL
MODEL 6
REMARK VINA RESULT:       0.2      2.048      4.552
REMARK  4 active torsions:
REMARK  status: ('A' for Active; 'I' for Inactive)
REMARK    1  A    between atoms: S_9  and  C_3 
REMARK    2  A    between atoms: C_12  and  S_9 
REMARK    3  A    between atoms: C_11  and  C_12 
REMARK    4  A    between atoms: O_16  and  C_11 
ROOT
ATOM      1  C   UNL d   1      30.866  17.362 -24.400  0.00  0.00     0.155 A 
ATOM      2  C   UNL d   1      30.905  16.588 -24.106  0.00  0.00     0.107 A 
ATOM      3  C   UNL d   1      29.541  16.388 -24.472  0.00  0.00     0.182 A 
ATOM      4  N   UNL d   1      29.500  17.152 -24.763  0.00  0.00    -0.250 N 
ATOM      5  N   UNL d   1      30.237  16.098 -24.143  0.00  0.00    -0.220 NA
ATOM      6  C   UNL d   1      30.169  17.643 -24.726  0.00  0.00     0.285 A 
ATOM      7  N   UNL d   1      31.603  17.715 -24.291  0.00  0.00    -0.239 NA
ATOM      8  C   UNL d   1      31.662  16.458 -23.815  0.00  0.00     0.037 A 
ATOM      9  C   UNL d   1      32.101  17.159 -23.929  0.00  0.00     0.083 A 
ATOM     10  O   UNL d   1      30.121  18.417 -25.023  0.00  0.00    -0.265 OA
ATOM     11  C   UNL d   1      28.794  17.434 -25.093  0.00  0.00     0.104 C 
ATOM     12  C   UNL d   1      32.018  15.805 -23.463  0.00  0.00     0.003 A 
ATOM     13  C   UNL d   1      32.892  17.198 -23.688  0.00  0.00     0.019 A 
ATOM     14  C   UNL d   1      32.809  15.844 -23.223  0.00  0.00     0.000 A 
ATOM     15  C   UNL d   1      33.241  16.537 -23.336  0.00  0.00     0.002 A 
ENDROOT
BRANCH   3  16
ATOM     16  S   UNL d   1      28.874  15.901 -24.510  0.00  0.00    -0.044 SA
BRANCH  16  17
ATOM     17  C   UNL d   1      28.488  15.669 -23.819  0.00  0.00     0.095 C 
ATOM     18  C   UNL d   1      28.915  15.569 -23.122  0.00  0.00     0.013 C 
BRANCH  17  19
ATOM     19  C   UNL d   1      27.674  15.539 -23.834  0.00  0.00     0.302 C 
ATOM     20  O   UNL d   1      27.282  15.473 -24.540  0.00  0.00    -0.259 OA
BRANCH  19  21
ATOM     21  O   UNL d   1      27.250  15.475 -23.124  0.00  0.00    -0.295 OA
ATOM     22  C   UNL d   1      26.421  15.496 -23.131  0.00  0.00     0.185 C 
ENDBRANCH  19  21
ENDBRANCH  17  19
ENDBRANCH  16  17
ENDBRANCH   3  16
TORSDOF 4
ENDMDL
