MODEL 1
REMARK VINA RESULT:      22.0      0.000      0.000
REMARK  4 active torsions:
REMARK  status: ('A' for Active; 'I' for Inactive)
REMARK    1  A    between atoms: S_2  and  N_1 
REMARK    2  A    between atoms: C_6  and  S_2 
REMARK    3  A    between atoms: C_10  and  C_6 
REMARK    4  A    between atoms: C_11  and  C_10 
ROOT
ATOM      1  S   UNL d   1      44.251 -15.541  37.078  0.00  0.00     0.287 S 
ATOM      2  O   UNL d   1      44.027 -15.193  37.794  0.00  0.00    -0.198 OA
ATOM      3  O   UNL d   1      44.458 -15.890  36.366  0.00  0.00    -0.198 OA
ENDROOT
BRANCH   1   4
ATOM      4  N   UNL d   1      45.015 -15.253  37.153  0.00  0.00    -0.152 N 
ATOM      5  N   UNL d   1      45.333 -14.619  36.722  0.00  0.00    -0.155 NA
ATOM      6  C   UNL d   1      46.116 -14.517  36.974  0.00  0.00     0.104 A 
ATOM      7  C   UNL d   1      46.645 -13.949  36.693  0.00  0.00     0.022 C 
ATOM      8  C   UNL d   1      46.269 -15.087  37.555  0.00  0.00     0.041 A 
ATOM      9  C   UNL d   1      45.590 -15.540  37.665  0.00  0.00     0.096 A 
ATOM     10  C   UNL d   1      45.505 -16.165  38.192  0.00  0.00     0.022 C 
ENDBRANCH   1   4
BRANCH   1  11
ATOM     11  C   UNL d   1      43.484 -15.840  36.984  0.00  0.00     0.117 C 
BRANCH  11  12
ATOM     12  C   UNL d   1      42.996 -15.540  36.384  0.00  0.00     0.014 C 
BRANCH  12  13
ATOM     13  C   UNL d   1      42.195 -15.729  36.367  0.00  0.00     0.001 A 
ATOM     14  C   UNL d   1      41.962 -16.509  36.366  0.00  0.00     0.000 A 
ATOM     15  C   UNL d   1      41.161 -16.699  36.349  0.00  0.00     0.000 A 
ATOM     16  C   UNL d   1      40.595 -16.098  36.335  0.00  0.00     0.000 A 
ATOM     17  C   UNL d   1      40.836 -15.309  36.337  0.00  0.00     0.000 A 
ATOM     18  C   UNL d   1      41.638 -15.120  36.353  0.00  0.00     0.000 A 
ENDBRANCH  12  13
ENDBRANCH  11  12
ENDBRANCH   1  11
TORSDOF 4
ENDMDL
MODEL 2
REMARK VINA RESULT:      22.8      1.384      4.245
REMARK  4 active torsions:
REMARK  status: ('A' for Active; 'I' for Inactive)
REMARK    1  A    between atoms: S_2  and  N_1 
REMARK    2  A    between atoms: C_6  and  S_2 
REMARK    3  A    between atoms: C_10  and  C_6 
REMARK    4  A    between atoms: C_11  and  C_10 
ROOT
ATOM      1  S   UNL d   1      43.038 -15.492  36.381  0.00  0.00     0.287 S 
ATOM      2  O   UNL d   1      43.350 -16.256  36.337  0.00  0.00    -0.198 OA
ATOM      3  O   UNL d   1      42.743 -14.728  36.426  0.00  0.00    -0.198 OA
ENDROOT
BRANCH   1   4
ATOM      4  N   UNL d   1      42.271 -15.782  36.370  0.00  0.00    -0.152 N 
ATOM      5  N   UNL d   1      42.062 -16.585  36.354  0.00  0.00    -0.155 NA
ATOM      6  C   UNL d   1      41.235 -16.626  36.347  0.00  0.00     0.104 A 
ATOM      7  C   UNL d   1      40.783 -17.317  36.331  0.00  0.00     0.022 C 
ATOM      8  C   UNL d   1      40.945 -15.850  36.357  0.00  0.00     0.041 A 
ATOM      9  C   UNL d   1      41.584 -15.330  36.372  0.00  0.00     0.096 A 
ATOM     10  C   UNL d   1      41.540 -14.510  36.385  0.00  0.00     0.022 C 
ENDBRANCH   1   4
BRANCH   1  11
ATOM     11  C   UNL d   1      43.805 -15.180  36.394  0.00  0.00     0.117 C 
BRANCH  11  12
ATOM     12  C   UNL d   1      44.353 -15.459  36.952  0.00  0.00     0.014 C 
BRANCH  12  13
ATOM     13  C   UNL d   1      45.118 -15.155  36.970  0.00  0.00     0.001 A 
ATOM     14  C   UNL d   1      45.334 -14.634  37.557  0.00  0.00     0.000 A 
ATOM     15  C   UNL d   1      46.099 -14.331  37.574  0.00  0.00     0.000 A 
ATOM     16  C   UNL d   1      46.646 -14.554  36.997  0.00  0.00     0.000 A 
ATOM     17  C   UNL d   1      46.421 -15.082  36.404  0.00  0.00     0.000 A 
ATOM     18  C   UNL d   1      45.655 -15.386  36.387  0.00  0.00     0.000 A 
ENDBRANCH  12  13
ENDBRANCH  11  12
ENDBRANCH   1  11
TORSDOF 4
ENDMDL
