MODEL 1
REMARK VINA RESULT:      50.7      0.000      0.000
REMARK  4 active torsions:
REMARK  status: ('A' for Active; 'I' for Inactive)
REMARK    1  A    between atoms: N_4  and  C_1 
REMARK    2  A    between atoms: N_9  and  N_4 
REMARK    3  A    between atoms: C_8  and  C_7 
REMARK    4  A    between atoms: C_10  and  N_9 
ROOT
ATOM      1  N   UNL d   1      58.976  48.807  50.835  0.00  0.00    -0.146 NA
ENDROOT
BRANCH   1   2
ATOM      2  C   UNL d   1      58.355  48.886  50.297  0.00  0.00     0.122 A 
ATOM      3  C   UNL d   1      58.356  48.699  49.485  0.00  0.00     0.101 A 
ATOM      4  N   UNL d   1      57.641  48.858  49.166  0.00  0.00    -0.244 NA
ATOM      5  C   UNL d   1      58.970  48.404  49.077  0.00  0.00     0.022 C 
ATOM      6  C   UNL d   1      57.160  49.148  49.746  0.00  0.00     0.083 A 
ATOM      7  C   UNL d   1      57.602  49.172  50.475  0.00  0.00     0.039 A 
ATOM      8  C   UNL d   1      56.387  49.404  49.765  0.00  0.00     0.019 A 
ATOM      9  C   UNL d   1      57.241  49.452  51.182  0.00  0.00     0.003 A 
ATOM     10  C   UNL d   1      56.445  49.708  51.166  0.00  0.00     0.000 A 
ATOM     11  C   UNL d   1      56.039  49.675  50.449  0.00  0.00     0.002 A 
ENDBRANCH   1   2
BRANCH   1  12
ATOM     12  N   UNL d   1      59.692  49.218  50.708  0.00  0.00    -0.148 NA
BRANCH  12  13
ATOM     13  C   UNL d   1      60.241  49.373  51.322  0.00  0.00     0.109 A 
ATOM     14  C   UNL d   1      61.040  49.367  51.184  0.00  0.00     0.084 A 
ATOM     15  C   UNL d   1      61.569  49.522  51.799  0.00  0.00     0.008 A 
ATOM     16  C   UNL d   1      61.260  49.685  52.575  0.00  0.00     0.000 A 
ATOM     17  C   UNL d   1      60.427  49.685  52.697  0.00  0.00     0.002 A 
ATOM     18  C   UNL d   1      59.936  49.525  52.048  0.00  0.00     0.021 A 
BRANCH  14  19
ATOM     19  C   UNL d   1      61.323  49.209  50.434  0.00  0.00     0.212 C 
ATOM     20  O   UNL d   1      61.831  48.582  50.295  0.00  0.00    -0.644 OA
ATOM     21  O   UNL d   1      61.112  49.673  49.781  0.00  0.00    -0.644 OA
ENDBRANCH  14  19
ENDBRANCH  12  13
ENDBRANCH   1  12
TORSDOF 4
ENDMDL
