MODEL 1
REMARK VINA RESULT:      -2.4      0.000      0.000
REMARK  6 active torsions:
REMARK  status: ('A' for Active; 'I' for Inactive)
REMARK    1  A    between atoms: C_6  and  C_1 
REMARK    2  A    between atoms: C_7  and  C_3 
REMARK    3  A    between atoms: O_11  and  C_6 
REMARK    4  A    between atoms: O_12  and  C_7 
REMARK    5  A    between atoms: C_14  and  O_11 
REMARK    6  A    between atoms: C_15  and  O_12 
ROOT
ATOM      1  C   UNL d   1      32.116  17.047 -23.774  0.00  0.00     0.083 A 
ATOM      2  C   UNL d   1      31.351  17.116 -24.111  0.00  0.00     0.030 A 
ATOM      3  C   UNL d   1      30.997  16.371 -24.046  0.00  0.00     0.145 A 
ATOM      4  N   UNL d   1      31.512  15.854 -23.686  0.00  0.00    -0.240 NA
ATOM      5  C   UNL d   1      32.209  16.277 -23.517  0.00  0.00     0.087 A 
ATOM      6  C   UNL d   1      31.037  17.788 -24.432  0.00  0.00     0.002 C 
ATOM      7  C   UNL d   1      32.891  15.985 -23.151  0.00  0.00     0.021 C 
ENDROOT
BRANCH   1   8
ATOM      8  C   UNL d   1      32.684  17.639 -23.707  0.00  0.00     0.302 C 
ATOM      9  O   UNL d   1      33.233  17.732 -24.280  0.00  0.00    -0.259 OA
BRANCH   8  10
ATOM     10  O   UNL d   1      32.674  18.137 -23.029  0.00  0.00    -0.271 OA
BRANCH  10  11
ATOM     11  C   UNL d   1      33.200  18.732 -22.944  0.00  0.00     0.126 C 
ATOM     12  C   UNL d   1      33.192  19.216 -22.274  0.00  0.00     0.029 C 
ENDBRANCH  10  11
ENDBRANCH   8  10
ENDBRANCH   1   8
BRANCH   3  13
ATOM     13  C   UNL d   1      30.231  16.209 -24.318  0.00  0.00     0.318 C 
ATOM     14  O   UNL d   1      30.062  16.183 -25.097  0.00  0.00    -0.257 OA
BRANCH  13  15
ATOM     15  O   UNL d   1      29.640  16.075 -23.777  0.00  0.00    -0.270 OA
BRANCH  15  16
ATOM     16  C   UNL d   1      28.916  15.767 -24.008  0.00  0.00     0.126 C 
ATOM     17  C   UNL d   1      28.320  15.654 -23.469  0.00  0.00     0.029 C 
ENDBRANCH  15  16
ENDBRANCH  13  15
ENDBRANCH   3  13
TORSDOF 6
ENDMDL
MODEL 2
REMARK VINA RESULT:      -2.4      3.713      5.825
REMARK  6 active torsions:
REMARK  status: ('A' for Active; 'I' for Inactive)
REMARK    1  A    between atoms: C_6  and  C_1 
REMARK    2  A    between atoms: C_7  and  C_3 
REMARK    3  A    between atoms: O_11  and  C_6 
REMARK    4  A    between atoms: O_12  and  C_7 
REMARK    5  A    between atoms: C_14  and  O_11 
REMARK    6  A    between atoms: C_15  and  O_12 
ROOT
ATOM      1  C   UNL d   1      32.550  22.194 -21.378  0.00  0.00     0.083 A 
ATOM      2  C   UNL d   1      32.543  21.358 -21.303  0.00  0.00     0.030 A 
ATOM      3  C   UNL d   1      32.971  21.061 -21.946  0.00  0.00     0.145 A 
ATOM      4  N   UNL d   1      33.236  21.677 -22.407  0.00  0.00    -0.240 NA
ATOM      5  C   UNL d   1      32.973  22.383 -22.051  0.00  0.00     0.087 A 
ATOM      6  C   UNL d   1      32.184  20.942 -20.711  0.00  0.00     0.002 C 
ATOM      7  C   UNL d   1      33.106  23.154 -22.319  0.00  0.00     0.021 C 
ENDROOT
BRANCH   1   8
ATOM      8  C   UNL d   1      32.198  22.740 -20.873  0.00  0.00     0.302 C 
ATOM      9  O   UNL d   1      31.493  23.064 -21.064  0.00  0.00    -0.259 OA
BRANCH   8  10
ATOM     10  O   UNL d   1      32.594  22.947 -20.160  0.00  0.00    -0.271 OA
BRANCH  10  11
ATOM     11  C   UNL d   1      32.263  23.449 -19.633  0.00  0.00     0.126 C 
ATOM     12  C   UNL d   1      32.675  23.693 -18.959  0.00  0.00     0.029 C 
ENDBRANCH  10  11
ENDBRANCH   8  10
ENDBRANCH   1   8
BRANCH   3  13
ATOM     13  C   UNL d   1      33.092  20.252 -22.072  0.00  0.00     0.318 C 
ATOM     14  O   UNL d   1      33.224  19.750 -21.466  0.00  0.00    -0.257 OA
BRANCH  13  15
ATOM     15  O   UNL d   1      33.076  19.963 -22.832  0.00  0.00    -0.270 OA
BRANCH  15  16
ATOM     16  C   UNL d   1      33.171  19.163 -22.983  0.00  0.00     0.126 C 
ATOM     17  C   UNL d   1      33.188  18.882 -23.745  0.00  0.00     0.029 C 
ENDBRANCH  15  16
ENDBRANCH  13  15
ENDBRANCH   3  13
TORSDOF 6
ENDMDL
MODEL 3
REMARK VINA RESULT:      -1.4      2.087      4.313
REMARK  6 active torsions:
REMARK  status: ('A' for Active; 'I' for Inactive)
REMARK    1  A    between atoms: C_6  and  C_1 
REMARK    2  A    between atoms: C_7  and  C_3 
REMARK    3  A    between atoms: O_11  and  C_6 
REMARK    4  A    between atoms: O_12  and  C_7 
REMARK    5  A    between atoms: C_14  and  O_11 
REMARK    6  A    between atoms: C_15  and  O_12 
ROOT
ATOM      1  C   UNL d   1      32.847  18.719 -23.927  0.00  0.00     0.083 A 
ATOM      2  C   UNL d   1      32.796  18.810 -23.095  0.00  0.00     0.030 A 
ATOM      3  C   UNL d   1      33.041  19.583 -22.928  0.00  0.00     0.145 A 
ATOM      4  N   UNL d   1      33.237  19.963 -23.620  0.00  0.00    -0.240 NA
ATOM      5  C   UNL d   1      33.115  19.423 -24.242  0.00  0.00     0.087 A 
ATOM      6  C   UNL d   1      32.553  18.243 -22.573  0.00  0.00     0.002 C 
ATOM      7  C   UNL d   1      33.240  19.557 -25.049  0.00  0.00     0.021 C 
ENDROOT
BRANCH   1   8
ATOM      8  C   UNL d   1      32.663  18.046 -24.364  0.00  0.00     0.302 C 
ATOM      9  O   UNL d   1      33.238  17.526 -24.558  0.00  0.00    -0.259 OA
BRANCH   8  10
ATOM     10  O   UNL d   1      31.865  17.920 -24.599  0.00  0.00    -0.271 OA
BRANCH  10  11
ATOM     11  C   UNL d   1      31.667  17.323 -25.093  0.00  0.00     0.126 C 
ATOM     12  C   UNL d   1      30.905  17.003 -25.092  0.00  0.00     0.029 C 
ENDBRANCH  10  11
ENDBRANCH   8  10
ENDBRANCH   1   8
BRANCH   3  13
ATOM     13  C   UNL d   1      33.070  19.891 -22.160  0.00  0.00     0.318 C 
ATOM     14  O   UNL d   1      33.237  19.430 -21.531  0.00  0.00    -0.257 OA
BRANCH  13  15
ATOM     15  O   UNL d   1      32.924  20.683 -22.046  0.00  0.00    -0.270 OA
BRANCH  15  16
ATOM     16  C   UNL d   1      32.764  20.981 -21.300  0.00  0.00     0.126 C 
ATOM     17  C   UNL d   1      32.777  21.780 -21.158  0.00  0.00     0.029 C 
ENDBRANCH  15  16
ENDBRANCH  13  15
ENDBRANCH   3  13
TORSDOF 6
ENDMDL
MODEL 4
REMARK VINA RESULT:      -0.7      0.666      3.549
REMARK  6 active torsions:
REMARK  status: ('A' for Active; 'I' for Inactive)
REMARK    1  A    between atoms: C_6  and  C_1 
REMARK    2  A    between atoms: C_7  and  C_3 
REMARK    3  A    between atoms: O_11  and  C_6 
REMARK    4  A    between atoms: O_12  and  C_7 
REMARK    5  A    between atoms: C_14  and  O_11 
REMARK    6  A    between atoms: C_15  and  O_12 
ROOT
ATOM      1  C   UNL d   1      30.836  16.564 -24.052  0.00  0.00     0.083 A 
ATOM      2  C   UNL d   1      31.141  17.317 -24.261  0.00  0.00     0.030 A 
ATOM      3  C   UNL d   1      31.868  17.392 -23.874  0.00  0.00     0.145 A 
ATOM      4  N   UNL d   1      32.018  16.720 -23.441  0.00  0.00    -0.240 NA
ATOM      5  C   UNL d   1      31.374  16.205 -23.552  0.00  0.00     0.087 A 
ATOM      6  C   UNL d   1      30.780  17.852 -24.748  0.00  0.00     0.002 C 
ATOM      7  C   UNL d   1      31.276  15.452 -23.222  0.00  0.00     0.021 C 
ENDROOT
BRANCH   1   8
ATOM      8  C   UNL d   1      30.124  16.231 -24.297  0.00  0.00     0.302 C 
ATOM      9  O   UNL d   1      30.099  15.790 -24.963  0.00  0.00    -0.259 OA
BRANCH   8  10
ATOM     10  O   UNL d   1      29.433  16.364 -23.836  0.00  0.00    -0.271 OA
BRANCH  10  11
ATOM     11  C   UNL d   1      28.724  16.070 -24.058  0.00  0.00     0.126 C 
ATOM     12  C   UNL d   1      28.044  16.212 -23.609  0.00  0.00     0.029 C 
ENDBRANCH  10  11
ENDBRANCH   8  10
ENDBRANCH   1   8
BRANCH   3  13
ATOM     13  C   UNL d   1      32.347  18.065 -23.940  0.00  0.00     0.318 C 
ATOM     14  O   UNL d   1      32.657  18.290 -24.640  0.00  0.00    -0.257 OA
BRANCH  13  15
ATOM     15  O   UNL d   1      32.505  18.505 -23.275  0.00  0.00    -0.270 OA
BRANCH  15  16
ATOM     16  C   UNL d   1      33.035  19.129 -23.296  0.00  0.00     0.126 C 
ATOM     17  C   UNL d   1      33.240  19.525 -22.618  0.00  0.00     0.029 C 
ENDBRANCH  15  16
ENDBRANCH  13  15
ENDBRANCH   3  13
TORSDOF 6
ENDMDL
MODEL 5
REMARK VINA RESULT:      -0.4      1.502      2.020
REMARK  6 active torsions:
REMARK  status: ('A' for Active; 'I' for Inactive)
REMARK    1  A    between atoms: C_6  and  C_1 
REMARK    2  A    between atoms: C_7  and  C_3 
REMARK    3  A    between atoms: O_11  and  C_6 
REMARK    4  A    between atoms: O_12  and  C_7 
REMARK    5  A    between atoms: C_14  and  O_11 
REMARK    6  A    between atoms: C_15  and  O_12 
ROOT
ATOM      1  C   UNL d   1      31.273  16.716 -24.490  0.00  0.00     0.083 A 
ATOM      2  C   UNL d   1      30.572  16.255 -24.469  0.00  0.00     0.030 A 
ATOM      3  C   UNL d   1      29.942  16.782 -24.566  0.00  0.00     0.145 A 
ATOM      4  N   UNL d   1      30.228  17.539 -24.645  0.00  0.00    -0.240 NA
ATOM      5  C   UNL d   1      31.059  17.496 -24.597  0.00  0.00     0.087 A 
ATOM      6  C   UNL d   1      30.538  15.453 -24.371  0.00  0.00     0.002 C 
ATOM      7  C   UNL d   1      31.593  18.126 -24.647  0.00  0.00     0.021 C 
ENDROOT
BRANCH   1   8
ATOM      8  C   UNL d   1      32.047  16.445 -24.417  0.00  0.00     0.302 C 
ATOM      9  O   UNL d   1      32.584  16.613 -24.984  0.00  0.00    -0.259 OA
BRANCH   8  10
ATOM     10  O   UNL d   1      32.257  15.992 -23.739  0.00  0.00    -0.271 OA
BRANCH  10  11
ATOM     11  C   UNL d   1      33.020  15.823 -23.574  0.00  0.00     0.126 C 
ATOM     12  C   UNL d   1      33.232  15.454 -22.865  0.00  0.00     0.029 C 
ENDBRANCH  10  11
ENDBRANCH   8  10
ENDBRANCH   1   8
BRANCH   3  13
ATOM     13  C   UNL d   1      29.150  16.541 -24.577  0.00  0.00     0.318 C 
ATOM     14  O   UNL d   1      28.903  15.938 -25.037  0.00  0.00    -0.257 OA
BRANCH  13  15
ATOM     15  O   UNL d   1      28.612  16.930 -24.108  0.00  0.00    -0.270 OA
BRANCH  15  16
ATOM     16  C   UNL d   1      28.062  16.517 -23.662  0.00  0.00     0.126 C 
ATOM     17  C   UNL d   1      27.625  16.889 -23.088  0.00  0.00     0.029 C 
ENDBRANCH  15  16
ENDBRANCH  13  15
ENDBRANCH   3  13
TORSDOF 6
ENDMDL
MODEL 6
REMARK VINA RESULT:       0.4      1.625      2.164
REMARK  6 active torsions:
REMARK  status: ('A' for Active; 'I' for Inactive)
REMARK    1  A    between atoms: C_6  and  C_1 
REMARK    2  A    between atoms: C_7  and  C_3 
REMARK    3  A    between atoms: O_11  and  C_6 
REMARK    4  A    between atoms: O_12  and  C_7 
REMARK    5  A    between atoms: C_14  and  O_11 
REMARK    6  A    between atoms: C_15  and  O_12 
ROOT
ATOM      1  C   UNL d   1      32.674  18.884 -23.972  0.00  0.00     0.083 A 
ATOM      2  C   UNL d   1      32.265  18.245 -24.330  0.00  0.00     0.030 A 
ATOM      3  C   UNL d   1      32.195  17.658 -23.752  0.00  0.00     0.145 A 
ATOM      4  N   UNL d   1      32.542  17.911 -23.061  0.00  0.00    -0.240 NA
ATOM      5  C   UNL d   1      32.841  18.676 -23.200  0.00  0.00     0.087 A 
ATOM      6  C   UNL d   1      31.998  18.225 -25.093  0.00  0.00     0.002 C 
ATOM      7  C   UNL d   1      33.241  19.159 -22.661  0.00  0.00     0.021 C 
ENDROOT
BRANCH   1   8
ATOM      8  C   UNL d   1      32.880  19.600 -24.323  0.00  0.00     0.302 C 
ATOM      9  O   UNL d   1      33.241  19.606 -25.036  0.00  0.00    -0.259 OA
BRANCH   8  10
ATOM     10  O   UNL d   1      32.703  20.316 -23.918  0.00  0.00    -0.271 OA
BRANCH  10  11
ATOM     11  C   UNL d   1      33.006  21.015 -24.160  0.00  0.00     0.126 C 
ATOM     12  C   UNL d   1      32.806  21.722 -23.781  0.00  0.00     0.029 C 
ENDBRANCH  10  11
ENDBRANCH   8  10
ENDBRANCH   1   8
BRANCH   3  13
ATOM     13  C   UNL d   1      31.820  16.932 -23.889  0.00  0.00     0.318 C 
ATOM     14  O   UNL d   1      32.214  16.311 -24.198  0.00  0.00    -0.257 OA
BRANCH  13  15
ATOM     15  O   UNL d   1      31.033  16.851 -23.703  0.00  0.00    -0.270 OA
BRANCH  15  16
ATOM     16  C   UNL d   1      30.695  16.112 -23.603  0.00  0.00     0.126 C 
ATOM     17  C   UNL d   1      29.899  16.032 -23.465  0.00  0.00     0.029 C 
ENDBRANCH  15  16
ENDBRANCH  13  15
ENDBRANCH   3  13
TORSDOF 6
ENDMDL
