MODEL 1
REMARK VINA RESULT:      11.4      0.000      0.000
REMARK  5 active torsions:
REMARK  status: ('A' for Active; 'I' for Inactive)
REMARK    1  A    between atoms: C_12  and  N_1 
REMARK    2  A    between atoms: C_6  and  C_5 
REMARK    3  A    between atoms: C_7  and  C_6 
REMARK       I    between atoms: N_9  and  C_7 
REMARK    4  A    between atoms: C_13  and  N_9 
REMARK    5  A    between atoms: C_16  and  C_12 
ROOT
ATOM      1  N   UNL d   1      45.235 -13.848  44.228  0.00  0.00    -0.235 N 
ATOM      2  C   UNL d   1      46.051 -13.970  44.274  0.00  0.00     0.298 A 
ATOM      3  C   UNL d   1      44.853 -14.527  44.473  0.00  0.00     0.274 A 
ATOM      4  S   UNL d   1      46.171 -14.739  44.554  0.00  0.00    -0.022 SA
ATOM      5  C   UNL d   1      45.432 -15.083  44.676  0.00  0.00     0.095 A 
ATOM      6  O   UNL d   1      46.646 -13.432  44.080  0.00  0.00    -0.259 OA
ATOM      7  O   UNL d   1      44.044 -14.641  44.513  0.00  0.00    -0.266 OA
ENDROOT
BRANCH   5   8
ATOM      8  C   UNL d   1      45.293 -15.850  44.955  0.00  0.00     0.074 C 
BRANCH   8   9
ATOM      9  C   UNL d   1      45.597 -16.498  44.543  0.00  0.00     0.280 C 
ATOM     10  N   UNL d   1      45.715 -17.216  44.931  0.00  0.00    -0.208 NA
ATOM     11  O   UNL d   1      45.784 -16.427  43.739  0.00  0.00    -0.265 OA
BRANCH  10  12
ATOM     12  C   UNL d   1      46.018 -17.861  44.519  0.00  0.00     0.085 A 
ATOM     13  C   UNL d   1      46.137 -17.814  43.706  0.00  0.00     0.019 A 
ATOM     14  C   UNL d   1      46.441 -18.462  43.293  0.00  0.00     0.002 A 
ATOM     15  C   UNL d   1      46.626 -19.158  43.696  0.00  0.00     0.000 A 
ATOM     16  C   UNL d   1      46.506 -19.203  44.516  0.00  0.00     0.002 A 
ATOM     17  C   UNL d   1      46.203 -18.555  44.919  0.00  0.00     0.019 A 
ENDBRANCH  10  12
ENDBRANCH   8   9
ENDBRANCH   5   8
BRANCH   1  18
ATOM     18  C   UNL d   1      44.871 -13.156  43.975  0.00  0.00     0.086 C 
BRANCH  18  19
ATOM     19  C   UNL d   1      45.043 -12.833  43.239  0.00  0.00     0.019 C 
ATOM     20  C   UNL d   1      44.499 -12.345  42.864  0.00  0.00     0.002 C 
ENDBRANCH  18  19
ENDBRANCH   1  18
TORSDOF 5
ENDMDL
MODEL 2
REMARK VINA RESULT:      13.0      1.493      4.625
REMARK  5 active torsions:
REMARK  status: ('A' for Active; 'I' for Inactive)
REMARK    1  A    between atoms: C_12  and  N_1 
REMARK    2  A    between atoms: C_6  and  C_5 
REMARK    3  A    between atoms: C_7  and  C_6 
REMARK       I    between atoms: N_9  and  C_7 
REMARK    4  A    between atoms: C_13  and  N_9 
REMARK    5  A    between atoms: C_16  and  C_12 
ROOT
ATOM      1  N   UNL d   1      46.399 -18.775  43.494  0.00  0.00    -0.235 N 
ATOM      2  C   UNL d   1      46.233 -18.167  42.959  0.00  0.00     0.298 A 
ATOM      3  C   UNL d   1      46.277 -18.499  44.252  0.00  0.00     0.274 A 
ATOM      4  S   UNL d   1      46.005 -17.505  43.399  0.00  0.00    -0.022 SA
ATOM      5  C   UNL d   1      46.032 -17.710  44.196  0.00  0.00     0.095 A 
ATOM      6  O   UNL d   1      46.283 -18.202  42.135  0.00  0.00    -0.259 OA
ATOM      7  O   UNL d   1      46.378 -18.922  44.945  0.00  0.00    -0.266 OA
ENDROOT
BRANCH   5   8
ATOM      8  C   UNL d   1      45.845 -17.212  44.832  0.00  0.00     0.074 C 
BRANCH   8   9
ATOM      9  C   UNL d   1      45.917 -16.394  44.749  0.00  0.00     0.280 C 
ATOM     10  N   UNL d   1      45.265 -15.906  44.878  0.00  0.00    -0.208 NA
ATOM     11  O   UNL d   1      46.647 -16.062  44.535  0.00  0.00    -0.265 OA
BRANCH  10  12
ATOM     12  C   UNL d   1      45.339 -15.091  44.794  0.00  0.00     0.085 A 
ATOM     13  C   UNL d   1      46.079 -14.735  44.848  0.00  0.00     0.019 A 
ATOM     14  C   UNL d   1      46.153 -13.916  44.763  0.00  0.00     0.002 A 
ATOM     15  C   UNL d   1      45.483 -13.454  44.625  0.00  0.00     0.000 A 
ATOM     16  C   UNL d   1      44.738 -13.815  44.571  0.00  0.00     0.002 A 
ATOM     17  C   UNL d   1      44.673 -14.629  44.656  0.00  0.00     0.019 A 
ENDBRANCH  10  12
ENDBRANCH   8   9
ENDBRANCH   5   8
BRANCH   1  18
ATOM     18  C   UNL d   1      46.647 -19.532  43.291  0.00  0.00     0.086 C 
BRANCH  18  19
ATOM     19  C   UNL d   1      46.109 -20.095  43.025  0.00  0.00     0.019 C 
ATOM     20  C   UNL d   1      46.114 -20.330  42.238  0.00  0.00     0.002 C 
ENDBRANCH  18  19
ENDBRANCH   1  18
TORSDOF 5
ENDMDL
