MODEL 1
REMARK VINA RESULT:      40.4      0.000      0.000
REMARK  3 active torsions:
REMARK  status: ('A' for Active; 'I' for Inactive)
REMARK    1  A    between atoms: C_4  and  C_1 
REMARK    2  A    between atoms: N_2  and  C_9 
REMARK       I    between atoms: N_7  and  C_4 
REMARK    3  A    between atoms: C_11  and  N_7 
ROOT
ATOM      1  C   UNL d   1      14.440  13.758  -2.058  0.00  0.00     0.087 A 
ATOM      2  S   UNL d   1      14.689  13.593  -1.289  0.00  0.00    -0.082 SA
ATOM      3  C   UNL d   1      14.537  14.556  -2.195  0.00  0.00     0.012 A 
ATOM      4  C   UNL d   1      14.850  14.906  -1.510  0.00  0.00     0.008 A 
ATOM      5  C   UNL d   1      14.946  14.292  -0.933  0.00  0.00     0.030 A 
ATOM      6  C   UNL d   1      15.357  15.850  -0.590  0.00  0.00     0.127 A 
ATOM      7  C   UNL d   1      15.056  15.668  -1.326  0.00  0.00     0.024 A 
ATOM      8  C   UNL d   1      15.244  14.477  -0.206  0.00  0.00     0.008 A 
ATOM      9  C   UNL d   1      15.453  15.237  -0.014  0.00  0.00     0.024 A 
ENDROOT
BRANCH   1  10
ATOM     10  C   UNL d   1      14.143  13.206  -2.595  0.00  0.00     0.286 C 
ATOM     11  N   UNL d   1      13.899  13.438  -3.347  0.00  0.00    -0.189 NA
ATOM     12  O   UNL d   1      14.088  12.396  -2.381  0.00  0.00    -0.265 OA
BRANCH  11  13
ATOM     13  C   UNL d   1      13.600  12.900  -3.897  0.00  0.00     0.166 A 
ATOM     14  N   UNL d   1      13.852  12.961  -4.691  0.00  0.00    -0.225 NA
ATOM     15  C   UNL d   1      13.563  12.430  -5.253  0.00  0.00     0.101 A 
ATOM     16  C   UNL d   1      13.020  11.834  -5.025  0.00  0.00     0.021 A 
ATOM     17  C   UNL d   1      12.778  11.779  -4.251  0.00  0.00     0.005 A 
ATOM     18  C   UNL d   1      13.070  12.317  -3.682  0.00  0.00     0.039 A 
ENDBRANCH  11  13
ENDBRANCH   1  10
BRANCH   6  19
ATOM     19  N   UNL d   1      15.578  16.639  -0.380  0.00  0.00    -0.114 N 
ATOM     20  O   UNL d   1      16.349  16.841  -0.229  0.00  0.00    -0.532 OA
ATOM     21  O   UNL d   1      14.984  17.215  -0.329  0.00  0.00    -0.532 OA
ENDBRANCH   6  19
TORSDOF 3
ENDMDL
