MODEL 1
REMARK VINA RESULT:      -3.1      0.000      0.000
REMARK  6 active torsions:
REMARK  status: ('A' for Active; 'I' for Inactive)
REMARK    1  A    between atoms: C_5  and  N_1 
REMARK    2  A    between atoms: C_7  and  C_5 
REMARK    3  A    between atoms: O_14  and  C_10 
REMARK    4  A    between atoms: C_18  and  O_14 
REMARK    5  A    between atoms: C_19  and  C_18 
REMARK    6  A    between atoms: C_20  and  C_19 
ROOT
ATOM      1  C   UNL d   1      59.104  -1.205  29.928  0.00  0.00     0.087 C 
ENDROOT
BRANCH   1   2
ATOM      2  N   UNL d   1      59.805  -1.488  29.595  0.00  0.00    -0.251 N 
ATOM      3  C   UNL d   1      60.543  -1.117  29.558  0.00  0.00     0.378 A 
ATOM      4  O   UNL d   1      61.064  -1.628  29.169  0.00  0.00    -0.258 OA
ATOM      5  O   UNL d   1      60.731  -0.372  29.854  0.00  0.00    -0.237 OA
ATOM      6  C   UNL d   1      60.647  -2.313  28.967  0.00  0.00     0.121 A 
ATOM      7  C   UNL d   1      59.868  -2.226  29.230  0.00  0.00     0.092 A 
ATOM      8  C   UNL d   1      60.866  -3.010  28.577  0.00  0.00     0.026 A 
ATOM      9  C   UNL d   1      59.316  -2.823  29.108  0.00  0.00     0.020 A 
ATOM     10  C   UNL d   1      59.538  -3.511  28.721  0.00  0.00     0.002 A 
ATOM     11  C   UNL d   1      60.315  -3.606  28.455  0.00  0.00     0.002 A 
ATOM     12  C   UNL d   1      58.986  -4.110  28.598  0.00  0.00     0.000 C 
ENDBRANCH   1   2
BRANCH   1  13
ATOM     13  C   UNL d   1      58.702  -0.572  29.580  0.00  0.00     0.041 A 
ATOM     14  C   UNL d   1      58.122  -0.179  29.991  0.00  0.00     0.102 A 
ATOM     15  C   UNL d   1      57.725   0.447  29.644  0.00  0.00     0.025 A 
ATOM     16  C   UNL d   1      57.912   0.680  28.877  0.00  0.00     0.002 A 
ATOM     17  C   UNL d   1      58.501   0.280  28.461  0.00  0.00     0.000 A 
ATOM     18  C   UNL d   1      58.898  -0.350  28.815  0.00  0.00     0.004 A 
BRANCH  14  19
ATOM     19  O   UNL d   1      57.930  -0.410  30.762  0.00  0.00    -0.305 OA
BRANCH  19  20
ATOM     20  C   UNL d   1      57.216  -0.173  31.100  0.00  0.00     0.123 C 
BRANCH  20  21
ATOM     21  C   UNL d   1      56.969  -0.499  31.808  0.00  0.00     0.027 C 
BRANCH  21  22
ATOM     22  C   UNL d   1      56.344  -0.160  32.226  0.00  0.00     0.002 C 
ATOM     23  C   UNL d   1      56.102  -0.481  32.950  0.00  0.00     0.000 C 
ENDBRANCH  21  22
ENDBRANCH  20  21
ENDBRANCH  19  20
ENDBRANCH  14  19
ENDBRANCH   1  13
TORSDOF 6
ENDMDL
MODEL 2
REMARK VINA RESULT:      -2.8      1.265      4.235
REMARK  6 active torsions:
REMARK  status: ('A' for Active; 'I' for Inactive)
REMARK    1  A    between atoms: C_5  and  N_1 
REMARK    2  A    between atoms: C_7  and  C_5 
REMARK    3  A    between atoms: O_14  and  C_10 
REMARK    4  A    between atoms: C_18  and  O_14 
REMARK    5  A    between atoms: C_19  and  C_18 
REMARK    6  A    between atoms: C_20  and  C_19 
ROOT
ATOM      1  C   UNL d   1      58.048  -0.744  30.848  0.00  0.00     0.087 C 
ENDROOT
BRANCH   1   2
ATOM      2  N   UNL d   1      57.903  -0.261  31.502  0.00  0.00    -0.251 N 
ATOM      3  C   UNL d   1      58.343   0.385  31.772  0.00  0.00     0.378 A 
ATOM      4  O   UNL d   1      57.968   0.682  32.447  0.00  0.00    -0.258 OA
ATOM      5  O   UNL d   1      59.032   0.682  31.434  0.00  0.00    -0.237 OA
ATOM      6  C   UNL d   1      57.298   0.220  32.592  0.00  0.00     0.121 A 
ATOM      7  C   UNL d   1      57.257  -0.364  32.007  0.00  0.00     0.092 A 
ATOM      8  C   UNL d   1      56.713   0.246  33.178  0.00  0.00     0.026 A 
ATOM      9  C   UNL d   1      56.645  -0.912  32.005  0.00  0.00     0.020 A 
ATOM     10  C   UNL d   1      56.068  -0.882  32.587  0.00  0.00     0.002 A 
ATOM     11  C   UNL d   1      56.102  -0.301  33.175  0.00  0.00     0.002 A 
ATOM     12  C   UNL d   1      55.453  -1.431  32.586  0.00  0.00     0.000 C 
ENDBRANCH   1   2
BRANCH   1  13
ATOM     13  C   UNL d   1      58.087  -0.418  30.089  0.00  0.00     0.041 A 
ATOM     14  C   UNL d   1      58.381  -0.855  29.471  0.00  0.00     0.102 A 
ATOM     15  C   UNL d   1      58.419  -0.531  28.721  0.00  0.00     0.025 A 
ATOM     16  C   UNL d   1      58.159   0.239  28.590  0.00  0.00     0.002 A 
ATOM     17  C   UNL d   1      57.859   0.681  29.218  0.00  0.00     0.000 A 
ATOM     18  C   UNL d   1      57.824   0.350  29.972  0.00  0.00     0.004 A 
BRANCH  14  19
ATOM     19  O   UNL d   1      58.645  -1.629  29.597  0.00  0.00    -0.305 OA
BRANCH  19  20
ATOM     20  C   UNL d   1      59.020  -2.043  28.990  0.00  0.00     0.123 C 
BRANCH  20  21
ATOM     21  C   UNL d   1      59.278  -2.810  29.114  0.00  0.00     0.027 C 
BRANCH  21  22
ATOM     22  C   UNL d   1      59.435  -3.304  28.473  0.00  0.00     0.002 C 
ATOM     23  C   UNL d   1      59.881  -3.994  28.577  0.00  0.00     0.000 C 
ENDBRANCH  21  22
ENDBRANCH  20  21
ENDBRANCH  19  20
ENDBRANCH  14  19
ENDBRANCH   1  13
TORSDOF 6
ENDMDL
MODEL 3
REMARK VINA RESULT:      -1.3      1.092      4.211
REMARK  6 active torsions:
REMARK  status: ('A' for Active; 'I' for Inactive)
REMARK    1  A    between atoms: C_5  and  N_1 
REMARK    2  A    between atoms: C_7  and  C_5 
REMARK    3  A    between atoms: O_14  and  C_10 
REMARK    4  A    between atoms: C_18  and  O_14 
REMARK    5  A    between atoms: C_19  and  C_18 
REMARK    6  A    between atoms: C_20  and  C_19 
ROOT
ATOM      1  C   UNL d   1      58.786  -0.851  29.730  0.00  0.00     0.087 C 
ENDROOT
BRANCH   1   2
ATOM      2  N   UNL d   1      58.181  -0.292  29.793  0.00  0.00    -0.251 N 
ATOM      3  C   UNL d   1      57.912   0.243  29.222  0.00  0.00     0.378 A 
ATOM      4  O   UNL d   1      57.296   0.682  29.558  0.00  0.00    -0.258 OA
ATOM      5  O   UNL d   1      58.201   0.326  28.456  0.00  0.00    -0.237 OA
ATOM      6  C   UNL d   1      57.187   0.418  30.334  0.00  0.00     0.121 A 
ATOM      7  C   UNL d   1      57.734  -0.184  30.480  0.00  0.00     0.092 A 
ATOM      8  C   UNL d   1      56.662   0.642  30.935  0.00  0.00     0.026 A 
ATOM      9  C   UNL d   1      57.760  -0.558  31.211  0.00  0.00     0.020 A 
ATOM     10  C   UNL d   1      57.238  -0.333  31.803  0.00  0.00     0.002 A 
ATOM     11  C   UNL d   1      56.688   0.269  31.665  0.00  0.00     0.002 A 
ATOM     12  C   UNL d   1      57.263  -0.707  32.537  0.00  0.00     0.000 C 
ENDBRANCH   1   2
BRANCH   1  13
ATOM     13  C   UNL d   1      59.574  -0.607  29.668  0.00  0.00     0.041 A 
ATOM     14  C   UNL d   1      60.132  -1.103  29.348  0.00  0.00     0.102 A 
ATOM     15  C   UNL d   1      60.911  -0.861  29.288  0.00  0.00     0.025 A 
ATOM     16  C   UNL d   1      61.132  -0.113  29.552  0.00  0.00     0.002 A 
ATOM     17  C   UNL d   1      60.564   0.390  29.876  0.00  0.00     0.000 A 
ATOM     18  C   UNL d   1      59.781   0.141  29.935  0.00  0.00     0.004 A 
BRANCH  14  19
ATOM     19  O   UNL d   1      59.915  -1.856  29.082  0.00  0.00    -0.305 OA
BRANCH  19  20
ATOM     20  C   UNL d   1      60.451  -2.482  29.125  0.00  0.00     0.123 C 
BRANCH  20  21
ATOM     21  C   UNL d   1      60.263  -3.206  28.795  0.00  0.00     0.027 C 
BRANCH  21  22
ATOM     22  C   UNL d   1      60.713  -3.874  28.976  0.00  0.00     0.002 C 
ATOM     23  C   UNL d   1      60.525  -4.607  28.642  0.00  0.00     0.000 C 
ENDBRANCH  21  22
ENDBRANCH  20  21
ENDBRANCH  19  20
ENDBRANCH  14  19
ENDBRANCH   1  13
TORSDOF 6
ENDMDL
