MODEL 1
REMARK VINA RESULT:      43.7      0.000      0.000
REMARK  1 active torsions:
REMARK  status: ('A' for Active; 'I' for Inactive)
REMARK    1  A    between atoms: C_10  and  C_4 
ROOT
ATOM      1  C   UNL d   1     -54.820-101.016 -37.938  0.00  0.00     0.186 A 
ATOM      2  N   UNL d   1     -54.810-101.108 -37.107  0.00  0.00    -0.193 N 
ATOM      3  N   UNL d   1     -54.800-100.259 -38.267  0.00  0.00    -0.214 NA
ATOM      4  C   UNL d   1     -54.851-101.778 -38.267  0.00  0.00     0.140 A 
ATOM      5  N   UNL d   1     -54.834-101.921 -36.934  0.00  0.00    -0.058 NA
ATOM      6  N   UNL d   1     -54.860-102.326 -37.656  0.00  0.00    -0.127 NA
ATOM      7  C   UNL d   1     -54.770 -99.591 -37.782  0.00  0.00     0.142 A 
ATOM      8  C   UNL d   1     -54.760 -99.689 -36.958  0.00  0.00     0.046 A 
ATOM      9  C   UNL d   1     -54.780-100.442 -36.625  0.00  0.00     0.088 A 
ATOM     10 CL   UNL d   1     -54.750 -98.836 -38.111  0.00  0.00    -0.061 Cl
ATOM     11  C   UNL d   1     -54.730 -99.022 -36.477  0.00  0.00     0.004 A 
ATOM     12  C   UNL d   1     -54.769-100.526 -35.804  0.00  0.00     0.019 A 
ATOM     13  C   UNL d   1     -54.719 -99.107 -35.659  0.00  0.00     0.000 A 
ATOM     14  C   UNL d   1     -54.739 -99.859 -35.322  0.00  0.00     0.002 A 
ENDROOT
BRANCH   4  15
ATOM     15  C   UNL d   1     -54.870-101.945 -39.067  0.00  0.00     0.022 A 
ATOM     16  C   UNL d   1     -55.047-102.709 -39.323  0.00  0.00     0.002 A 
ATOM     17  C   UNL d   1     -55.066-102.879 -40.132  0.00  0.00     0.000 A 
ATOM     18  C   UNL d   1     -54.908-102.283 -40.681  0.00  0.00     0.000 A 
ATOM     19  C   UNL d   1     -54.731-101.517 -40.421  0.00  0.00     0.000 A 
ATOM     20  C   UNL d   1     -54.927-102.452 -41.486  0.00  0.00     0.000 C 
ATOM     21  C   UNL d   1     -54.712-101.348 -39.616  0.00  0.00     0.002 A 
ENDBRANCH   4  15
TORSDOF 1
ENDMDL
