MODEL 1
REMARK VINA RESULT:      -2.8      0.000      0.000
REMARK  2 active torsions:
REMARK  status: ('A' for Active; 'I' for Inactive)
REMARK    1  A    between atoms: C_6  and  C_1 
REMARK    2  A    between atoms: C_8  and  C_6 
ROOT
ATOM      1  C   UNL d   1     -41.666-122.637 -52.178  0.00  0.00     0.141 A 
ATOM      2  C   UNL d   1     -42.092-122.857 -50.925  0.00  0.00     0.064 A 
ATOM      3  C   UNL d   1     -41.601-123.141 -51.527  0.00  0.00     0.220 A 
ATOM      4  C   UNL d   1     -42.462-122.175 -51.206  0.00  0.00     0.106 A 
ATOM      5  O   UNL d   1     -42.203-122.034 -51.979  0.00  0.00    -0.304 OA
ATOM      6  C   UNL d   1     -42.248-123.134 -50.159  0.00  0.00     0.008 A 
ATOM      7  C   UNL d   1     -42.992-121.763 -50.723  0.00  0.00     0.067 A 
ATOM      8  C   UNL d   1     -42.776-122.723 -49.678  0.00  0.00     0.042 A 
ATOM      9  C   UNL d   1     -43.146-122.041 -49.958  0.00  0.00     0.198 A 
ATOM     10  O   UNL d   1     -41.123-123.817 -51.487  0.00  0.00    -0.284 OA
ATOM     11  O   UNL d   1     -43.673-121.630 -49.478  0.00  0.00    -0.286 OA
ATOM     12  C   UNL d   1     -41.876-123.817 -49.881  0.00  0.00     0.000 C 
ENDROOT
BRANCH   1  13
ATOM     13  C   UNL d   1     -41.273-122.711 -52.900  0.00  0.00     0.053 C 
BRANCH  13  14
ATOM     14  C   UNL d   1     -41.644-122.492 -53.600  0.00  0.00     0.102 A 
ATOM     15  O   UNL d   1     -41.843-121.719 -53.814  0.00  0.00    -0.305 OA
ATOM     16  C   UNL d   1     -42.204-121.754 -54.556  0.00  0.00     0.123 A 
ATOM     17  C   UNL d   1     -42.226-122.538 -54.795  0.00  0.00     0.029 A 
ATOM     18  C   UNL d   1     -41.878-123.000 -54.201  0.00  0.00     0.027 A 
ENDBRANCH  13  14
ENDBRANCH   1  13
TORSDOF 2
ENDMDL
MODEL 2
REMARK VINA RESULT:      -2.6      1.674      2.698
REMARK  2 active torsions:
REMARK  status: ('A' for Active; 'I' for Inactive)
REMARK    1  A    between atoms: C_6  and  C_1 
REMARK    2  A    between atoms: C_8  and  C_6 
ROOT
ATOM      1  C   UNL d   1     -42.008-123.366 -50.167  0.00  0.00     0.141 A 
ATOM      2  C   UNL d   1     -42.391-123.287 -48.883  0.00  0.00     0.064 A 
ATOM      3  C   UNL d   1     -42.657-123.266 -49.666  0.00  0.00     0.220 A 
ATOM      4  C   UNL d   1     -41.574-123.400 -48.901  0.00  0.00     0.106 A 
ATOM      5  O   UNL d   1     -41.332-123.450 -49.690  0.00  0.00    -0.304 OA
ATOM      6  C   UNL d   1     -42.790-123.217 -48.159  0.00  0.00     0.008 A 
ATOM      7  C   UNL d   1     -41.148-123.445 -48.194  0.00  0.00     0.067 A 
ATOM      8  C   UNL d   1     -42.365-123.261 -47.455  0.00  0.00     0.042 A 
ATOM      9  C   UNL d   1     -41.548-123.375 -47.472  0.00  0.00     0.198 A 
ATOM     10  O   UNL d   1     -43.443-123.162 -49.911  0.00  0.00    -0.284 OA
ATOM     11  O   UNL d   1     -41.123-123.420 -46.769  0.00  0.00    -0.286 OA
ATOM     12  C   UNL d   1     -43.608-123.103 -48.146  0.00  0.00     0.000 C 
ENDROOT
BRANCH   1  13
ATOM     13  C   UNL d   1     -42.019-123.381 -50.991  0.00  0.00     0.053 C 
BRANCH  13  14
ATOM     14  C   UNL d   1     -41.690-122.764 -51.423  0.00  0.00     0.102 A 
ATOM     15  O   UNL d   1     -41.503-122.017 -51.124  0.00  0.00    -0.305 OA
ATOM     16  C   UNL d   1     -41.187-121.575 -51.745  0.00  0.00     0.123 A 
ATOM     17  C   UNL d   1     -41.180-122.043 -52.418  0.00  0.00     0.029 A 
ATOM     18  C   UNL d   1     -41.494-122.785 -52.220  0.00  0.00     0.027 A 
ENDBRANCH  13  14
ENDBRANCH   1  13
TORSDOF 2
ENDMDL
MODEL 3
REMARK VINA RESULT:      -1.8      1.325      4.047
REMARK  2 active torsions:
REMARK  status: ('A' for Active; 'I' for Inactive)
REMARK    1  A    between atoms: C_6  and  C_1 
REMARK    2  A    between atoms: C_8  and  C_6 
ROOT
ATOM      1  C   UNL d   1     -41.447-122.616 -53.520  0.00  0.00     0.141 A 
ATOM      2  C   UNL d   1     -42.149-122.708 -54.660  0.00  0.00     0.064 A 
ATOM      3  C   UNL d   1     -41.980-123.085 -53.943  0.00  0.00     0.220 A 
ATOM      4  C   UNL d   1     -41.718-122.005 -54.680  0.00  0.00     0.106 A 
ATOM      5  O   UNL d   1     -41.283-121.943 -53.980  0.00  0.00    -0.304 OA
ATOM      6  C   UNL d   1     -42.640-122.919 -55.295  0.00  0.00     0.008 A 
ATOM      7  C   UNL d   1     -41.775-121.505 -55.335  0.00  0.00     0.067 A 
ATOM      8  C   UNL d   1     -42.697-122.420 -55.948  0.00  0.00     0.042 A 
ATOM      9  C   UNL d   1     -42.266-121.716 -55.968  0.00  0.00     0.198 A 
ATOM     10  O   UNL d   1     -42.291-123.810 -53.687  0.00  0.00    -0.284 OA
ATOM     11  O   UNL d   1     -42.321-121.217 -56.620  0.00  0.00    -0.286 OA
ATOM     12  C   UNL d   1     -43.070-123.624 -55.271  0.00  0.00     0.000 C 
ENDROOT
BRANCH   1  13
ATOM     13  C   UNL d   1     -41.129-122.780 -52.777  0.00  0.00     0.053 C 
BRANCH  13  14
ATOM     14  C   UNL d   1     -41.403-122.385 -52.111  0.00  0.00     0.102 A 
ATOM     15  O   UNL d   1     -41.357-121.570 -51.985  0.00  0.00    -0.305 OA
ATOM     16  C   UNL d   1     -41.697-121.414 -51.250  0.00  0.00     0.123 A 
ATOM     17  C   UNL d   1     -41.951-122.123 -50.927  0.00  0.00     0.029 A 
ATOM     18  C   UNL d   1     -41.769-122.730 -51.462  0.00  0.00     0.027 A 
ENDBRANCH  13  14
ENDBRANCH   1  13
TORSDOF 2
ENDMDL
MODEL 4
REMARK VINA RESULT:      -1.0      1.509      2.001
REMARK  2 active torsions:
REMARK  status: ('A' for Active; 'I' for Inactive)
REMARK    1  A    between atoms: C_6  and  C_1 
REMARK    2  A    between atoms: C_8  and  C_6 
ROOT
ATOM      1  C   UNL d   1     -42.371-122.213 -53.802  0.00  0.00     0.141 A 
ATOM      2  C   UNL d   1     -41.823-122.521 -52.617  0.00  0.00     0.064 A 
ATOM      3  C   UNL d   1     -42.084-122.832 -53.337  0.00  0.00     0.220 A 
ATOM      4  C   UNL d   1     -41.950-121.706 -52.636  0.00  0.00     0.106 A 
ATOM      5  O   UNL d   1     -42.288-121.510 -53.365  0.00  0.00    -0.304 OA
ATOM      6  C   UNL d   1     -41.487-122.878 -51.947  0.00  0.00     0.008 A 
ATOM      7  C   UNL d   1     -41.742-121.240 -51.986  0.00  0.00     0.067 A 
ATOM      8  C   UNL d   1     -41.280-122.414 -51.300  0.00  0.00     0.042 A 
ATOM      9  C   UNL d   1     -41.406-121.599 -51.319  0.00  0.00     0.198 A 
ATOM     10  O   UNL d   1     -42.063-123.631 -53.560  0.00  0.00    -0.284 OA
ATOM     11  O   UNL d   1     -41.200-121.133 -50.673  0.00  0.00    -0.286 OA
ATOM     12  C   UNL d   1     -41.362-123.695 -51.931  0.00  0.00     0.000 C 
ENDROOT
BRANCH   1  13
ATOM     13  C   UNL d   1     -42.685-122.272 -54.562  0.00  0.00     0.053 C 
BRANCH  13  14
ATOM     14  C   UNL d   1     -42.264-121.990 -55.210  0.00  0.00     0.102 A 
ATOM     15  O   UNL d   1     -41.442-122.006 -55.289  0.00  0.00    -0.305 OA
ATOM     16  C   UNL d   1     -41.258-121.669 -56.020  0.00  0.00     0.123 A 
ATOM     17  C   UNL d   1     -41.957-121.449 -56.385  0.00  0.00     0.029 A 
ATOM     18  C   UNL d   1     -42.586-121.648 -55.882  0.00  0.00     0.027 A 
ENDBRANCH  13  14
ENDBRANCH   1  13
TORSDOF 2
ENDMDL
