MODEL 1
REMARK VINA RESULT:      41.3      0.000      0.000
REMARK  9 active torsions:
REMARK  status: ('A' for Active; 'I' for Inactive)
REMARK    1  A    between atoms: C_9  and  S_1 
REMARK    2  A    between atoms: N_12  and  S_1 
REMARK    3  A    between atoms: S_2  and  C_8 
REMARK    4  A    between atoms: N_13  and  S_2 
REMARK    5  A    between atoms: N_20  and  C_5 
REMARK    6  A    between atoms: C_23  and  N_12 
REMARK    7  A    between atoms: C_24  and  N_13 
REMARK    8  A    between atoms: C_31  and  C_23 
REMARK    9  A    between atoms: C_30  and  C_24 
ROOT
ATOM      1  C   UNL d   1     -54.808-101.440 -40.190  0.00  0.00     0.021 A 
ATOM      2  C   UNL d   1     -54.841-101.492 -38.855  0.00  0.00     0.021 A 
ATOM      3  C   UNL d   1     -54.826-100.978 -39.507  0.00  0.00     0.111 A 
ATOM      4  C   UNL d   1     -54.832-102.266 -39.141  0.00  0.00     0.002 A 
ATOM      5  C   UNL d   1     -54.812-102.223 -39.967  0.00  0.00     0.002 A 
ATOM      6  C   UNL d   1     -54.872-101.974 -37.525  0.00  0.00     0.104 A 
ATOM      7  C   UNL d   1     -54.775-101.784 -41.554  0.00  0.00     0.104 A 
ATOM      8  C   UNL d   1     -54.861-101.339 -38.045  0.00  0.00     0.015 A 
ATOM      9  C   UNL d   1     -54.791-101.202 -40.951  0.00  0.00     0.015 A 
ATOM     10  C   UNL d   1     -54.796-102.802 -40.558  0.00  0.00     0.001 A 
ATOM     11  C   UNL d   1     -54.843-102.876 -38.616  0.00  0.00     0.001 A 
ATOM     12  C   UNL d   1     -54.778-102.568 -41.331  0.00  0.00     0.013 A 
ATOM     13  C   UNL d   1     -54.862-102.748 -37.837  0.00  0.00     0.013 A 
ENDROOT
BRANCH   6  14
ATOM     14  S   UNL d   1     -54.892-101.862 -36.691  0.00  0.00     0.272 S 
ATOM     15  O   UNL d   1     -55.071-102.678 -36.581  0.00  0.00    -0.200 OA
ATOM     16  O   UNL d   1     -54.715-101.046 -36.779  0.00  0.00    -0.200 OA
BRANCH  14  17
ATOM     17  N   UNL d   1     -54.918-101.775 -35.858  0.00  0.00    -0.225 N 
ATOM     18  C   UNL d   1     -55.125-102.429 -35.367  0.00  0.00     0.111 C 
BRANCH  17  19
ATOM     19  C   UNL d   1     -54.742-101.047 -35.483  0.00  0.00     0.137 C 
BRANCH  19  20
ATOM     20  C   UNL d   1     -55.170-100.365 -35.642  0.00  0.00     0.254 C 
ATOM     21  O   UNL d   1     -54.855 -99.619 -35.503  0.00  0.00    -0.281 OA
ENDBRANCH  19  20
ENDBRANCH  17  19
ENDBRANCH  14  17
ENDBRANCH   6  14
BRANCH   3  22
ATOM     22  N   UNL d   1     -54.829-100.152 -39.464  0.00  0.00    -0.096 NA
ATOM     23  O   UNL d   1     -55.036 -99.705 -40.128  0.00  0.00    -0.061 OA
ENDBRANCH   3  22
BRANCH   7  24
ATOM     24  S   UNL d   1     -54.755-101.586 -42.373  0.00  0.00     0.272 S 
ATOM     25  O   UNL d   1     -54.754-102.405 -42.553  0.00  0.00    -0.200 OA
ATOM     26  O   UNL d   1     -54.757-100.767 -42.188  0.00  0.00    -0.200 OA
BRANCH  24  27
ATOM     27  N   UNL d   1     -54.736-101.423 -43.201  0.00  0.00    -0.225 N 
ATOM     28  C   UNL d   1     -54.740-102.028 -43.750  0.00  0.00     0.111 C 
BRANCH  27  29
ATOM     29  C   UNL d   1     -54.711-100.620 -43.445  0.00  0.00     0.137 C 
BRANCH  29  30
ATOM     30  C   UNL d   1     -55.081-100.407 -44.141  0.00  0.00     0.254 C 
ATOM     31  O   UNL d   1     -54.810 -99.755 -44.583  0.00  0.00    -0.281 OA
ENDBRANCH  29  30
ENDBRANCH  27  29
ENDBRANCH  24  27
ENDBRANCH   7  24
TORSDOF 9
ENDMDL
MODEL 2
REMARK VINA RESULT:      44.0      1.181      5.846
REMARK  9 active torsions:
REMARK  status: ('A' for Active; 'I' for Inactive)
REMARK    1  A    between atoms: C_9  and  S_1 
REMARK    2  A    between atoms: N_12  and  S_1 
REMARK    3  A    between atoms: S_2  and  C_8 
REMARK    4  A    between atoms: N_13  and  S_2 
REMARK    5  A    between atoms: N_20  and  C_5 
REMARK    6  A    between atoms: C_23  and  N_12 
REMARK    7  A    between atoms: C_24  and  N_13 
REMARK    8  A    between atoms: C_31  and  C_23 
REMARK    9  A    between atoms: C_30  and  C_24 
ROOT
ATOM      1  C   UNL d   1     -54.718-101.180 -40.457  0.00  0.00     0.021 A 
ATOM      2  C   UNL d   1     -54.718-100.785 -41.733  0.00  0.00     0.021 A 
ATOM      3  C   UNL d   1     -54.715-100.518 -40.948  0.00  0.00     0.111 A 
ATOM      4  C   UNL d   1     -54.722-101.610 -41.721  0.00  0.00     0.002 A 
ATOM      5  C   UNL d   1     -54.722-101.845 -40.928  0.00  0.00     0.002 A 
ATOM      6  C   UNL d   1     -54.719-100.797 -43.149  0.00  0.00     0.104 A 
ATOM      7  C   UNL d   1     -54.721-101.959 -39.285  0.00  0.00     0.104 A 
ATOM      8  C   UNL d   1     -54.716-100.371 -42.447  0.00  0.00     0.015 A 
ATOM      9  C   UNL d   1     -54.718-101.209 -39.660  0.00  0.00     0.015 A 
ATOM     10  C   UNL d   1     -54.726-102.587 -40.562  0.00  0.00     0.001 A 
ATOM     11  C   UNL d   1     -54.724-102.011 -42.419  0.00  0.00     0.001 A 
ATOM     12  C   UNL d   1     -54.725-102.623 -39.755  0.00  0.00     0.013 A 
ATOM     13  C   UNL d   1     -54.723-101.630 -43.112  0.00  0.00     0.013 A 
ENDROOT
BRANCH   6  14
ATOM     14  S   UNL d   1     -54.718-100.413 -43.898  0.00  0.00     0.272 S 
ATOM     15  O   UNL d   1     -54.720 -99.661 -43.518  0.00  0.00    -0.200 OA
ATOM     16  O   UNL d   1     -54.715-101.153 -44.295  0.00  0.00    -0.200 OA
BRANCH  14  17
ATOM     17  N   UNL d   1     -54.716-100.009 -44.632  0.00  0.00    -0.225 N 
ATOM     18  C   UNL d   1     -54.716-100.440 -45.357  0.00  0.00     0.111 C 
BRANCH  17  19
ATOM     19  C   UNL d   1     -54.716 -99.173 -44.677  0.00  0.00     0.137 C 
BRANCH  19  20
ATOM     20  C   UNL d   1     -55.239 -98.767 -45.162  0.00  0.00     0.254 C 
ATOM     21  O   UNL d   1     -56.051 -98.802 -45.040  0.00  0.00    -0.281 OA
ENDBRANCH  19  20
ENDBRANCH  17  19
ENDBRANCH  14  17
ENDBRANCH   6  14
BRANCH   3  22
ATOM     22  N   UNL d   1     -54.711 -99.724 -40.713  0.00  0.00    -0.096 NA
ATOM     23  O   UNL d   1     -54.959 -99.517 -39.952  0.00  0.00    -0.061 OA
ENDBRANCH   3  22
BRANCH   7  24
ATOM     24  S   UNL d   1     -54.721-102.044 -38.446  0.00  0.00     0.272 S 
ATOM     25  O   UNL d   1     -54.730-101.207 -38.379  0.00  0.00    -0.200 OA
ATOM     26  O   UNL d   1     -54.712-102.880 -38.518  0.00  0.00    -0.200 OA
BRANCH  24  27
ATOM     27  N   UNL d   1     -54.721-102.093 -37.603  0.00  0.00    -0.225 N 
ATOM     28  C   UNL d   1     -54.718-102.816 -37.222  0.00  0.00     0.111 C 
BRANCH  27  29
ATOM     29  C   UNL d   1     -54.724-101.376 -37.167  0.00  0.00     0.137 C 
BRANCH  29  30
ATOM     30  C   UNL d   1     -54.873-101.403 -36.365  0.00  0.00     0.254 C 
ATOM     31  O   UNL d   1     -54.897-100.701 -35.914  0.00  0.00    -0.281 OA
ENDBRANCH  29  30
ENDBRANCH  27  29
ENDBRANCH  24  27
ENDBRANCH   7  24
TORSDOF 9
ENDMDL
