MODEL 1
REMARK VINA RESULT:       5.4      0.000      0.000
REMARK  1 active torsions:
REMARK  status: ('A' for Active; 'I' for Inactive)
REMARK    1  A    between atoms: C_6  and  C_2 
ROOT
ATOM      1  S   UNL d   1      13.292  11.780  -2.853  0.00  0.00    -0.024 SA
ATOM      2  C   UNL d   1      13.867  12.178  -2.426  0.00  0.00     0.135 A 
ATOM      3  N   UNL d   1      14.239  12.718  -2.924  0.00  0.00    -0.139 NA
ATOM      4  C   UNL d   1      13.310  12.077  -3.622  0.00  0.00     0.236 A 
ATOM      5  N   UNL d   1      13.887  12.650  -3.670  0.00  0.00    -0.119 NA
ATOM      6  N   UNL d   1      12.820  11.831  -4.240  0.00  0.00    -0.118 N 
ENDROOT
BRANCH   2   7
ATOM      7  C   UNL d   1      14.045  12.058  -1.630  0.00  0.00     0.029 A 
ATOM      8  C   UNL d   1      14.818  12.095  -1.362  0.00  0.00     0.023 A 
ATOM      9  C   UNL d   1      14.996  11.975  -0.563  0.00  0.00     0.099 A 
ATOM     10  N   UNL d   1      14.403  11.818  -0.027  0.00  0.00    -0.242 NA
ATOM     11  C   UNL d   1      13.623  11.779  -0.286  0.00  0.00     0.099 A 
ATOM     12  C   UNL d   1      13.444  11.899  -1.085  0.00  0.00     0.023 A 
ENDBRANCH   2   7
TORSDOF 1
ENDMDL
MODEL 2
REMARK VINA RESULT:       6.3      0.966      2.972
REMARK  1 active torsions:
REMARK  status: ('A' for Active; 'I' for Inactive)
REMARK    1  A    between atoms: C_6  and  C_2 
ROOT
ATOM      1  S   UNL d   1      13.665  12.111  -1.479  0.00  0.00    -0.024 SA
ATOM      2  C   UNL d   1      14.027  12.178  -2.212  0.00  0.00     0.135 A 
ATOM      3  N   UNL d   1      14.831  12.020  -2.124  0.00  0.00    -0.139 NA
ATOM      4  C   UNL d   1      14.251  11.909  -0.935  0.00  0.00     0.236 A 
ATOM      5  N   UNL d   1      14.964  11.853  -1.325  0.00  0.00    -0.119 NA
ATOM      6  N   UNL d   1      14.130  11.786  -0.128  0.00  0.00    -0.118 N 
ENDROOT
BRANCH   2   7
ATOM      7  C   UNL d   1      13.651  12.372  -2.919  0.00  0.00     0.029 A 
ATOM      8  C   UNL d   1      13.337  11.789  -3.401  0.00  0.00     0.023 A 
ATOM      9  C   UNL d   1      12.959  11.984  -4.111  0.00  0.00     0.099 A 
ATOM     10  N   UNL d   1      12.894  12.762  -4.343  0.00  0.00    -0.242 NA
ATOM     11  C   UNL d   1      13.206  13.356  -3.867  0.00  0.00     0.099 A 
ATOM     12  C   UNL d   1      13.583  13.161  -3.156  0.00  0.00     0.023 A 
ENDBRANCH   2   7
TORSDOF 1
ENDMDL
