MODEL 1
REMARK VINA RESULT:      26.8      0.000      0.000
REMARK  3 active torsions:
REMARK  status: ('A' for Active; 'I' for Inactive)
REMARK    1  A    between atoms: N_4  and  C_8 
REMARK    2  A    between atoms: N_12  and  C_6 
REMARK       I    between atoms: C_11  and  N_12 
REMARK    3  A    between atoms: C_14  and  C_11 
ROOT
ATOM      1  C   UNL d   1      46.227 -16.326  44.040  0.00  0.00     0.279 C 
ATOM      2  N   UNL d   1      45.843 -15.860  44.555  0.00  0.00    -0.208 NA
ATOM      3  O   UNL d   1      46.647 -15.993  43.380  0.00  0.00    -0.265 OA
ENDROOT
BRANCH   1   4
ATOM      4  C   UNL d   1      46.228 -17.144  44.133  0.00  0.00     0.059 A 
ATOM      5  C   UNL d   1      46.313 -17.647  43.478  0.00  0.00     0.022 A 
ATOM      6  C   UNL d   1      46.312 -18.464  43.584  0.00  0.00     0.070 A 
ATOM      7  C   UNL d   1      46.235 -18.822  44.283  0.00  0.00     0.018 A 
ATOM      8  C   UNL d   1      46.150 -18.363  44.952  0.00  0.00     0.002 A 
ATOM      9  C   UNL d   1      46.142 -17.525  44.919  0.00  0.00     0.005 A 
BRANCH   6  10
ATOM     10  N   UNL d   1      46.401 -18.968  42.886  0.00  0.00    -0.242 N 
ATOM     11  C   UNL d   1      46.553 -19.774  42.975  0.00  0.00     0.267 A 
ATOM     12  C   UNL d   1      46.606 -20.090  42.216  0.00  0.00     0.066 A 
ATOM     13  O   UNL d   1      46.636 -20.194  43.750  0.00  0.00    -0.267 OA
ATOM     14  C   UNL d   1      46.494 -19.512  41.678  0.00  0.00     0.066 A 
ATOM     15  C   UNL d   1      46.363 -18.794  42.090  0.00  0.00     0.267 A 
ATOM     16  O   UNL d   1      46.216 -18.016  41.770  0.00  0.00    -0.267 OA
ENDBRANCH   6  10
ENDBRANCH   1   4
BRANCH   2  17
ATOM     17  C   UNL d   1      45.842 -15.013  44.458  0.00  0.00     0.089 A 
ATOM     18  C   UNL d   1      45.164 -14.559  44.573  0.00  0.00     0.080 A 
ATOM     19  C   UNL d   1      44.374 -14.777  44.792  0.00  0.00     0.283 A 
ATOM     20  C   UNL d   1      45.163 -13.691  44.474  0.00  0.00     0.064 A 
ATOM     21  N   UNL d   1      43.917 -14.086  44.825  0.00  0.00    -0.169 NA
ATOM     22  O   UNL d   1      44.083 -15.574  44.955  0.00  0.00    -0.265 OA
ATOM     23  C   UNL d   1      44.400 -13.419  44.630  0.00  0.00     0.282 A 
ATOM     24  O   UNL d   1      44.166 -12.596  44.594  0.00  0.00    -0.265 OA
ATOM     25  C   UNL d   1      45.864 -13.332  44.260  0.00  0.00     0.005 A 
ATOM     26  C   UNL d   1      46.540 -13.761  44.143  0.00  0.00     0.002 A 
ATOM     27  C   UNL d   1      46.554 -14.621  44.238  0.00  0.00     0.019 A 
ENDBRANCH   2  17
TORSDOF 3
ENDMDL
