MODEL 1
REMARK VINA RESULT:       7.5      0.000      0.000
REMARK  3 active torsions:
REMARK  status: ('A' for Active; 'I' for Inactive)
REMARK    1  A    between atoms: C_7  and  N_1 
REMARK    2  A    between atoms: C_10  and  C_3 
REMARK    3  A    between atoms: C_8  and  C_7 
ROOT
ATOM      1  N   UNL d   1     -42.723-123.421 -49.522  0.00  0.00    -0.289 N 
ATOM      2  N   UNL d   1     -41.383-123.331 -49.027  0.00  0.00    -0.217 NA
ATOM      3  C   UNL d   1     -41.915-123.311 -49.654  0.00  0.00     0.149 A 
ATOM      4  C   UNL d   1     -42.467-123.575 -48.114  0.00  0.00     0.044 A 
ATOM      5  C   UNL d   1     -41.650-123.461 -48.258  0.00  0.00     0.139 A 
ATOM      6  C   UNL d   1     -42.999-123.555 -48.740  0.00  0.00     0.068 A 
ATOM      7  S   UNL d   1     -41.123-123.484 -47.616  0.00  0.00    -0.057 SA
ATOM      8  C   UNL d   1     -42.741-123.707 -47.339  0.00  0.00     0.004 A 
ATOM      9  C   UNL d   1     -43.811-123.665 -48.612  0.00  0.00     0.018 A 
ATOM     10  C   UNL d   1     -43.556-123.817 -47.213  0.00  0.00     0.000 A 
ATOM     11  C   UNL d   1     -44.088-123.797 -47.839  0.00  0.00     0.002 A 
ENDROOT
BRANCH   1  12
ATOM     12  C   UNL d   1     -43.255-123.401 -50.148  0.00  0.00     0.106 C 
BRANCH  12  13
ATOM     13  C   UNL d   1     -43.763-122.757 -50.242  0.00  0.00     0.118 A 
ATOM     14  O   UNL d   1     -43.557-121.975 -50.164  0.00  0.00    -0.304 OA
ATOM     15  C   UNL d   1     -44.225-121.522 -50.303  0.00  0.00     0.123 A 
ATOM     16  C   UNL d   1     -44.851-122.035 -50.469  0.00  0.00     0.029 A 
ATOM     17  C   UNL d   1     -44.563-122.808 -50.431  0.00  0.00     0.028 A 
ENDBRANCH  12  13
ENDBRANCH   1  12
BRANCH   3  18
ATOM     18  C   UNL d   1     -41.649-123.180 -50.426  0.00  0.00     0.035 A 
ATOM     19  C   UNL d   1     -41.409-122.430 -50.664  0.00  0.00     0.003 A 
ATOM     20  C   UNL d   1     -41.148-122.317 -51.435  0.00  0.00     0.000 A 
ATOM     21  C   UNL d   1     -41.123-122.935 -51.969  0.00  0.00     0.000 A 
ATOM     22  C   UNL d   1     -41.366-123.697 -51.728  0.00  0.00     0.000 A 
ATOM     23  C   UNL d   1     -41.629-123.814 -50.956  0.00  0.00     0.003 A 
ENDBRANCH   3  18
TORSDOF 3
ENDMDL
