MODEL 1
REMARK VINA RESULT:      -2.6      0.000      0.000
REMARK  5 active torsions:
REMARK  status: ('A' for Active; 'I' for Inactive)
REMARK    1  A    between atoms: C_2  and  N_1 
REMARK    2  A    between atoms: C_5  and  N_1 
REMARK    3  A    between atoms: C_7  and  C_2 
REMARK    4  A    between atoms: C_4  and  O_6 
REMARK    5  A    between atoms: O_6  and  C_8 
ROOT
ATOM      1  C   UNL d   1      33.189  18.953 -22.924  0.00  0.00     0.020 A 
ATOM      2  C   UNL d   1      33.223  20.327 -22.010  0.00  0.00     0.105 A 
ATOM      3  C   UNL d   1      33.209  19.691 -23.295  0.00  0.00     0.004 A 
ATOM      4  C   UNL d   1      33.186  18.889 -22.107  0.00  0.00     0.004 A 
ATOM      5  C   UNL d   1      33.226  20.369 -22.837  0.00  0.00     0.025 A 
ATOM      6  C   UNL d   1      33.203  19.568 -21.649  0.00  0.00     0.025 A 
ENDROOT
BRANCH   1   7
ATOM      7  C   UNL d   1      33.172  18.255 -23.395  0.00  0.00     0.108 C 
BRANCH   7   8
ATOM      8  N   UNL d   1      32.438  17.947 -23.629  0.00  0.00    -0.184 N 
ATOM      9  O   UNL d   1      31.753  18.403 -23.580  0.00  0.00    -0.080 OA
BRANCH   8  10
ATOM     10  C   UNL d   1      32.402  17.176 -23.911  0.00  0.00     0.090 A 
ATOM     11  C   UNL d   1      32.927  16.944 -24.511  0.00  0.00     0.020 A 
ATOM     12  C   UNL d   1      32.892  16.170 -24.794  0.00  0.00     0.002 A 
ATOM     13  C   UNL d   1      32.331  15.625 -24.479  0.00  0.00     0.000 A 
ATOM     14  C   UNL d   1      31.818  15.884 -23.879  0.00  0.00     0.002 A 
ATOM     15  C   UNL d   1      31.854  16.658 -23.596  0.00  0.00     0.020 A 
ENDBRANCH   8  10
ENDBRANCH   7   8
ENDBRANCH   1   7
BRANCH   2  16
ATOM     16  O   UNL d   1      33.240  21.010 -21.559  0.00  0.00    -0.260 OA
BRANCH  16  17
ATOM     17  C   UNL d   1      32.541  21.387 -21.364  0.00  0.00     0.391 C 
ATOM     18  F   UNL d   1      32.315  22.058 -21.786  0.00  0.00    -0.145 F 
ATOM     19  F   UNL d   1      32.074  21.099 -20.755  0.00  0.00    -0.145 F 
ENDBRANCH  16  17
ENDBRANCH   2  16
TORSDOF 5
ENDMDL
MODEL 2
REMARK VINA RESULT:      -2.4      2.860      4.670
REMARK  5 active torsions:
REMARK  status: ('A' for Active; 'I' for Inactive)
REMARK    1  A    between atoms: C_2  and  N_1 
REMARK    2  A    between atoms: C_5  and  N_1 
REMARK    3  A    between atoms: C_7  and  C_2 
REMARK    4  A    between atoms: C_4  and  O_6 
REMARK    5  A    between atoms: O_6  and  C_8 
ROOT
ATOM      1  C   UNL d   1      30.942  17.032 -24.419  0.00  0.00     0.020 A 
ATOM      2  C   UNL d   1      29.503  16.228 -24.321  0.00  0.00     0.105 A 
ATOM      3  C   UNL d   1      30.938  16.210 -24.332  0.00  0.00     0.004 A 
ATOM      4  C   UNL d   1      30.244  17.458 -24.457  0.00  0.00     0.004 A 
ATOM      5  C   UNL d   1      30.221  15.816 -24.285  0.00  0.00     0.025 A 
ATOM      6  C   UNL d   1      29.527  17.064 -24.409  0.00  0.00     0.025 A 
ENDROOT
BRANCH   1   7
ATOM      7  C   UNL d   1      31.678  17.437 -24.468  0.00  0.00     0.108 C 
BRANCH   7   8
ATOM      8  N   UNL d   1      32.093  17.603 -23.767  0.00  0.00    -0.184 N 
ATOM      9  O   UNL d   1      32.124  17.052 -23.154  0.00  0.00    -0.080 OA
BRANCH   8  10
ATOM     10  C   UNL d   1      32.474  18.327 -23.693  0.00  0.00     0.090 A 
ATOM     11  C   UNL d   1      32.794  18.683 -24.371  0.00  0.00     0.020 A 
ATOM     12  C   UNL d   1      33.177  19.410 -24.297  0.00  0.00     0.002 A 
ATOM     13  C   UNL d   1      33.241  19.784 -23.544  0.00  0.00     0.000 A 
ATOM     14  C   UNL d   1      32.911  19.405 -22.883  0.00  0.00     0.002 A 
ATOM     15  C   UNL d   1      32.529  18.678 -22.957  0.00  0.00     0.020 A 
ENDBRANCH   8  10
ENDBRANCH   7   8
ENDBRANCH   1   7
BRANCH   2  16
ATOM     16  O   UNL d   1      28.792  15.826 -24.273  0.00  0.00    -0.260 OA
BRANCH  16  17
ATOM     17  C   UNL d   1      28.344  15.872 -23.591  0.00  0.00     0.391 C 
ATOM     18  F   UNL d   1      27.665  16.341 -23.587  0.00  0.00    -0.145 F 
ATOM     19  F   UNL d   1      28.568  15.455 -22.922  0.00  0.00    -0.145 F 
ENDBRANCH  16  17
ENDBRANCH   2  16
TORSDOF 5
ENDMDL
MODEL 3
REMARK VINA RESULT:      -2.4      2.144      3.079
REMARK  5 active torsions:
REMARK  status: ('A' for Active; 'I' for Inactive)
REMARK    1  A    between atoms: C_2  and  N_1 
REMARK    2  A    between atoms: C_5  and  N_1 
REMARK    3  A    between atoms: C_7  and  C_2 
REMARK    4  A    between atoms: C_4  and  O_6 
REMARK    5  A    between atoms: O_6  and  C_8 
ROOT
ATOM      1  C   UNL d   1      31.621  17.008 -24.073  0.00  0.00     0.020 A 
ATOM      2  C   UNL d   1      32.703  18.148 -23.566  0.00  0.00     0.105 A 
ATOM      3  C   UNL d   1      32.312  16.773 -23.685  0.00  0.00     0.004 A 
ATOM      4  C   UNL d   1      31.462  17.799 -24.212  0.00  0.00     0.004 A 
ATOM      5  C   UNL d   1      32.845  17.342 -23.435  0.00  0.00     0.025 A 
ATOM      6  C   UNL d   1      31.995  18.369 -23.962  0.00  0.00     0.025 A 
ENDROOT
BRANCH   1   7
ATOM      7  C   UNL d   1      31.073  16.422 -24.329  0.00  0.00     0.108 C 
BRANCH   7   8
ATOM      8  N   UNL d   1      30.570  16.072 -23.770  0.00  0.00    -0.184 N 
ATOM      9  O   UNL d   1      30.826  15.932 -22.999  0.00  0.00    -0.080 OA
BRANCH   8  10
ATOM     10  C   UNL d   1      29.807  15.866 -23.996  0.00  0.00     0.090 A 
ATOM     11  C   UNL d   1      29.666  15.660 -24.788  0.00  0.00     0.020 A 
ATOM     12  C   UNL d   1      28.900  15.453 -25.015  0.00  0.00     0.002 A 
ATOM     13  C   UNL d   1      28.273  15.453 -24.452  0.00  0.00     0.000 A 
ATOM     14  C   UNL d   1      28.443  15.664 -23.667  0.00  0.00     0.002 A 
ATOM     15  C   UNL d   1      29.209  15.870 -23.440  0.00  0.00     0.020 A 
ENDBRANCH   8  10
ENDBRANCH   7   8
ENDBRANCH   1   7
BRANCH   2  16
ATOM     16  O   UNL d   1      33.241  18.710 -23.313  0.00  0.00    -0.260 OA
BRANCH  16  17
ATOM     17  C   UNL d   1      33.122  19.099 -22.604  0.00  0.00     0.391 C 
ATOM     18  F   UNL d   1      33.171  18.673 -21.900  0.00  0.00    -0.145 F 
ATOM     19  F   UNL d   1      32.957  19.901 -22.597  0.00  0.00    -0.145 F 
ENDBRANCH  16  17
ENDBRANCH   2  16
TORSDOF 5
ENDMDL
MODEL 4
REMARK VINA RESULT:      -1.6      4.370      5.652
REMARK  5 active torsions:
REMARK  status: ('A' for Active; 'I' for Inactive)
REMARK    1  A    between atoms: C_2  and  N_1 
REMARK    2  A    between atoms: C_5  and  N_1 
REMARK    3  A    between atoms: C_7  and  C_2 
REMARK    4  A    between atoms: C_4  and  O_6 
REMARK    5  A    between atoms: O_6  and  C_8 
ROOT
ATOM      1  C   UNL d   1      33.044  22.805 -19.402  0.00  0.00     0.020 A 
ATOM      2  C   UNL d   1      32.728  23.156 -17.820  0.00  0.00     0.105 A 
ATOM      3  C   UNL d   1      33.238  22.257 -18.815  0.00  0.00     0.004 A 
ATOM      4  C   UNL d   1      32.697  23.522 -19.215  0.00  0.00     0.004 A 
ATOM      5  C   UNL d   1      33.078  22.436 -18.032  0.00  0.00     0.025 A 
ATOM      6  C   UNL d   1      32.538  23.701 -18.431  0.00  0.00     0.025 A 
ENDROOT
BRANCH   1   7
ATOM      7  C   UNL d   1      33.208  22.621 -20.207  0.00  0.00     0.108 C 
BRANCH   7   8
ATOM      8  N   UNL d   1      32.577  22.429 -20.711  0.00  0.00    -0.184 N 
ATOM      9  O   UNL d   1      31.850  22.188 -20.406  0.00  0.00    -0.080 OA
BRANCH   8  10
ATOM     10  C   UNL d   1      32.688  22.483 -21.524  0.00  0.00     0.090 A 
ATOM     11  C   UNL d   1      32.375  23.137 -21.929  0.00  0.00     0.020 A 
ATOM     12  C   UNL d   1      32.486  23.192 -22.744  0.00  0.00     0.002 A 
ATOM     13  C   UNL d   1      32.910  22.592 -23.159  0.00  0.00     0.000 A 
ATOM     14  C   UNL d   1      33.211  21.949 -22.729  0.00  0.00     0.002 A 
ATOM     15  C   UNL d   1      33.100  21.894 -21.913  0.00  0.00     0.020 A 
ENDBRANCH   8  10
ENDBRANCH   7   8
ENDBRANCH   1   7
BRANCH   2  16
ATOM     16  O   UNL d   1      32.572  23.327 -17.036  0.00  0.00    -0.260 OA
BRANCH  16  17
ATOM     17  C   UNL d   1      32.042  22.867 -16.615  0.00  0.00     0.391 C 
ATOM     18  F   UNL d   1      32.320  22.207 -16.206  0.00  0.00    -0.145 F 
ATOM     19  F   UNL d   1      31.247  23.063 -16.602  0.00  0.00    -0.145 F 
ENDBRANCH  16  17
ENDBRANCH   2  16
TORSDOF 5
ENDMDL
MODEL 5
REMARK VINA RESULT:      -1.3      0.803      1.325
REMARK  5 active torsions:
REMARK  status: ('A' for Active; 'I' for Inactive)
REMARK    1  A    between atoms: C_2  and  N_1 
REMARK    2  A    between atoms: C_5  and  N_1 
REMARK    3  A    between atoms: C_7  and  C_2 
REMARK    4  A    between atoms: C_4  and  O_6 
REMARK    5  A    between atoms: O_6  and  C_8 
ROOT
ATOM      1  C   UNL d   1      33.203  19.847 -22.320  0.00  0.00     0.020 A 
ATOM      2  C   UNL d   1      33.131  21.239 -21.435  0.00  0.00     0.105 A 
ATOM      3  C   UNL d   1      33.240  20.578 -22.704  0.00  0.00     0.004 A 
ATOM      4  C   UNL d   1      33.131  19.799 -21.506  0.00  0.00     0.004 A 
ATOM      5  C   UNL d   1      33.204  21.265 -22.260  0.00  0.00     0.025 A 
ATOM      6  C   UNL d   1      33.095  20.486 -21.062  0.00  0.00     0.025 A 
ENDROOT
BRANCH   1   7
ATOM      7  C   UNL d   1      33.241  19.140 -22.776  0.00  0.00     0.108 C 
BRANCH   7   8
ATOM      8  N   UNL d   1      32.552  18.867 -23.150  0.00  0.00    -0.184 N 
ATOM      9  O   UNL d   1      31.850  19.297 -23.109  0.00  0.00    -0.080 OA
BRANCH   8  10
ATOM     10  C   UNL d   1      32.579  18.157 -23.563  0.00  0.00     0.090 A 
ATOM     11  C   UNL d   1      32.438  17.449 -23.153  0.00  0.00     0.020 A 
ATOM     12  C   UNL d   1      32.465  16.736 -23.568  0.00  0.00     0.002 A 
ATOM     13  C   UNL d   1      32.634  16.729 -24.394  0.00  0.00     0.000 A 
ATOM     14  C   UNL d   1      32.770  17.452 -24.778  0.00  0.00     0.002 A 
ATOM     15  C   UNL d   1      32.743  18.165 -24.363  0.00  0.00     0.020 A 
ENDBRANCH   8  10
ENDBRANCH   7   8
ENDBRANCH   1   7
BRANCH   2  16
ATOM     16  O   UNL d   1      33.095  21.930 -20.999  0.00  0.00    -0.260 OA
BRANCH  16  17
ATOM     17  C   UNL d   1      32.372  22.281 -20.848  0.00  0.00     0.391 C 
ATOM     18  F   UNL d   1      31.904  21.987 -20.236  0.00  0.00    -0.145 F 
ATOM     19  F   UNL d   1      32.119  22.914 -21.302  0.00  0.00    -0.145 F 
ENDBRANCH  16  17
ENDBRANCH   2  16
TORSDOF 5
ENDMDL
MODEL 6
REMARK VINA RESULT:      -0.6      3.383      6.452
REMARK  5 active torsions:
REMARK  status: ('A' for Active; 'I' for Inactive)
REMARK    1  A    between atoms: C_2  and  N_1 
REMARK    2  A    between atoms: C_5  and  N_1 
REMARK    3  A    between atoms: C_7  and  C_2 
REMARK    4  A    between atoms: C_4  and  O_6 
REMARK    5  A    between atoms: O_6  and  C_8 
ROOT
ATOM      1  C   UNL d   1      33.155  22.304 -19.878  0.00  0.00     0.020 A 
ATOM      2  C   UNL d   1      32.988  21.509 -21.315  0.00  0.00     0.105 A 
ATOM      3  C   UNL d   1      33.210  21.480 -19.898  0.00  0.00     0.004 A 
ATOM      4  C   UNL d   1      33.018  22.737 -20.559  0.00  0.00     0.004 A 
ATOM      5  C   UNL d   1      33.126  21.091 -20.614  0.00  0.00     0.025 A 
ATOM      6  C   UNL d   1      32.935  22.347 -21.275  0.00  0.00     0.025 A 
ENDROOT
BRANCH   1   7
ATOM      7  C   UNL d   1      33.241  22.704 -19.142  0.00  0.00     0.108 C 
BRANCH   7   8
ATOM      8  N   UNL d   1      32.574  23.060 -18.798  0.00  0.00    -0.184 N 
ATOM      9  O   UNL d   1      31.951  23.329 -19.265  0.00  0.00    -0.080 OA
BRANCH   8  10
ATOM     10  C   UNL d   1      32.543  23.140 -17.981  0.00  0.00     0.090 A 
ATOM     11  C   UNL d   1      33.094  22.728 -17.517  0.00  0.00     0.020 A 
ATOM     12  C   UNL d   1      33.064  22.809 -16.696  0.00  0.00     0.002 A 
ATOM     13  C   UNL d   1      32.482  23.302 -16.337  0.00  0.00     0.000 A 
ATOM     14  C   UNL d   1      31.943  23.702 -16.826  0.00  0.00     0.002 A 
ATOM     15  C   UNL d   1      31.974  23.622 -17.646  0.00  0.00     0.020 A 
ENDBRANCH   8  10
ENDBRANCH   7   8
ENDBRANCH   1   7
BRANCH   2  16
ATOM     16  O   UNL d   1      32.905  21.113 -22.026  0.00  0.00    -0.260 OA
BRANCH  16  17
ATOM     17  C   UNL d   1      32.496  20.405 -22.054  0.00  0.00     0.391 C 
ATOM     18  F   UNL d   1      31.728  20.374 -21.754  0.00  0.00    -0.145 F 
ATOM     19  F   UNL d   1      32.847  19.739 -22.375  0.00  0.00    -0.145 F 
ENDBRANCH  16  17
ENDBRANCH   2  16
TORSDOF 5
ENDMDL
