MODEL 1
REMARK VINA RESULT:      21.4      0.000      0.000
REMARK  7 active torsions:
REMARK  status: ('A' for Active; 'I' for Inactive)
REMARK    1  A    between atoms: C_7  and  C_1 
REMARK    2  A    between atoms: C_9  and  N_2 
REMARK    3  A    between atoms: C_6  and  C_3 
REMARK    4  A    between atoms: C_8  and  C_7 
REMARK    5  A    between atoms: C_20  and  C_9 
REMARK    6  A    between atoms: O_24  and  C_10 
REMARK    7  A    between atoms: O_26  and  C_22 
ROOT
ATOM      1  C   UNL d   1     -43.390-122.106 -51.060  0.00  0.00     0.101 A 
ATOM      2  N   UNL d   1     -42.355-122.349 -51.861  0.00  0.00    -0.270 N 
ATOM      3  C   UNL d   1     -42.585-122.273 -51.083  0.00  0.00     0.075 A 
ATOM      4  C   UNL d   1     -43.664-122.078 -51.845  0.00  0.00     0.256 A 
ATOM      5  C   UNL d   1     -43.024-122.228 -52.340  0.00  0.00     0.304 A 
ATOM      6  O   UNL d   1     -43.045-122.253 -53.166  0.00  0.00    -0.263 OA
ATOM      7  O   UNL d   1     -44.438-121.927 -52.087  0.00  0.00    -0.281 OA
ENDROOT
BRANCH   3   8
ATOM      8  C   UNL d   1     -42.100-122.349 -50.412  0.00  0.00     0.041 A 
ATOM      9  C   UNL d   1     -41.615-121.721 -50.197  0.00  0.00     0.096 A 
ATOM     10  C   UNL d   1     -41.126-121.784 -49.528  0.00  0.00     0.026 A 
ATOM     11  C   UNL d   1     -41.133-122.486 -49.083  0.00  0.00     0.026 A 
ATOM     12  C   UNL d   1     -41.623-123.116 -49.304  0.00  0.00     0.094 A 
ATOM     13  C   UNL d   1     -42.105-123.046 -49.968  0.00  0.00     0.028 A 
BRANCH   9  14
ATOM     14  O   UNL d   1     -41.608-121.027 -50.635  0.00  0.00    -0.328 OA
ATOM     15  C   UNL d   1     -41.410-120.308 -50.285  0.00  0.00     0.181 C 
ENDBRANCH   9  14
BRANCH  12  16
ATOM     16  O   UNL d   1     -41.629-123.816 -48.860  0.00  0.00    -0.328 OA
ATOM     17  C   UNL d   1     -41.762-123.779 -48.041  0.00  0.00     0.181 C 
ENDBRANCH  12  16
ENDBRANCH   3   8
BRANCH   2  18
ATOM     18  C   UNL d   1     -41.587-122.517 -52.136  0.00  0.00     0.085 C 
BRANCH  18  19
ATOM     19  C   UNL d   1     -41.434-122.522 -52.949  0.00  0.00     0.037 A 
ATOM     20  C   UNL d   1     -41.421-121.801 -53.366  0.00  0.00     0.100 A 
ATOM     21  N   UNL d   1     -41.269-121.805 -54.173  0.00  0.00    -0.242 NA
ATOM     22  C   UNL d   1     -41.129-122.513 -54.570  0.00  0.00     0.099 A 
ATOM     23  C   UNL d   1     -41.142-123.224 -54.153  0.00  0.00     0.021 A 
ATOM     24  C   UNL d   1     -41.295-123.227 -53.340  0.00  0.00     0.005 A 
ENDBRANCH  18  19
ENDBRANCH   2  18
BRANCH   1  25
ATOM     25  C   UNL d   1     -43.853-121.986 -50.382  0.00  0.00     0.223 C 
ATOM     26  O   UNL d   1     -43.908-121.236 -50.053  0.00  0.00    -0.284 OA
BRANCH  25  27
ATOM     27  C   UNL d   1     -44.250-122.616 -50.047  0.00  0.00     0.139 A 
ATOM     28  O   UNL d   1     -44.531-123.337 -50.329  0.00  0.00    -0.302 OA
ATOM     29  C   UNL d   1     -44.890-123.736 -49.704  0.00  0.00     0.123 A 
ATOM     30  C   UNL d   1     -44.832-123.266 -49.040  0.00  0.00     0.029 A 
ATOM     31  C   UNL d   1     -44.437-122.574 -49.249  0.00  0.00     0.030 A 
ENDBRANCH  25  27
ENDBRANCH   1  25
TORSDOF 7
ENDMDL
