MODEL 1
REMARK VINA RESULT:      52.9      0.000      0.000
REMARK  2 active torsions:
REMARK  status: ('A' for Active; 'I' for Inactive)
REMARK    1  A    between atoms: N_7  and  C_3 
REMARK    2  A    between atoms: C_15  and  C_5 
ROOT
ATOM      1  N   UNL d   1      13.978  13.991  -3.062  0.00  0.00    -0.196 N 
ATOM      2  C   UNL d   1      14.039  13.388  -2.477  0.00  0.00     0.167 A 
ATOM      3  C   UNL d   1      13.619  13.820  -3.791  0.00  0.00     0.153 A 
ATOM      4  N   UNL d   1      14.629  14.907  -2.187  0.00  0.00    -0.163 NA
ATOM      5  C   UNL d   1      14.390  13.554  -1.765  0.00  0.00     0.055 A 
ATOM      6  N   UNL d   1      13.738  12.636  -2.641  0.00  0.00    -0.227 NA
ATOM      7  C   UNL d   1      13.327  13.074  -3.938  0.00  0.00     0.052 A 
ATOM      8  C   UNL d   1      14.689  14.314  -1.610  0.00  0.00     0.104 A 
ATOM      9  C   UNL d   1      13.384  12.466  -3.358  0.00  0.00     0.086 A 
ATOM     10  C   UNL d   1      12.954  12.747  -4.584  0.00  0.00     0.005 A 
ATOM     11  C   UNL d   1      15.043  14.473  -0.887  0.00  0.00     0.023 C 
ATOM     12  C   UNL d   1      13.045  11.781  -3.661  0.00  0.00     0.019 A 
ATOM     13  C   UNL d   1      12.776  11.960  -4.430  0.00  0.00     0.002 A 
ENDROOT
BRANCH   3  14
ATOM     14  N   UNL d   1      13.555  14.426  -4.385  0.00  0.00    -0.274 N 
ATOM     15  C   UNL d   1      13.880  14.768  -5.083  0.00  0.00     0.149 A 
ATOM     16  N   UNL d   1      13.391  15.425  -5.303  0.00  0.00    -0.225 NA
ATOM     17  C   UNL d   1      14.562  14.505  -5.485  0.00  0.00     0.041 C 
ATOM     18  C   UNL d   1      12.770  15.477  -4.733  0.00  0.00     0.120 A 
ATOM     19  C   UNL d   1      12.867  14.871  -4.174  0.00  0.00     0.104 A 
ENDBRANCH   3  14
BRANCH   5  20
ATOM     20  C   UNL d   1      14.450  12.963  -1.192  0.00  0.00     0.004 A 
ATOM     21  C   UNL d   1      15.111  12.471  -1.171  0.00  0.00     0.000 A 
ATOM     22  C   UNL d   1      15.174  11.883  -0.602  0.00  0.00     0.000 A 
ATOM     23  C   UNL d   1      14.569  11.783  -0.045  0.00  0.00     0.000 A 
ATOM     24  C   UNL d   1      13.913  12.265  -0.059  0.00  0.00     0.000 A 
ATOM     25  C   UNL d   1      13.853  12.861  -0.638  0.00  0.00     0.000 A 
ENDBRANCH   5  20
TORSDOF 2
ENDMDL
MODEL 2
REMARK VINA RESULT:      54.3      1.025      2.293
REMARK  2 active torsions:
REMARK  status: ('A' for Active; 'I' for Inactive)
REMARK    1  A    between atoms: N_7  and  C_3 
REMARK    2  A    between atoms: C_15  and  C_5 
ROOT
ATOM      1  N   UNL d   1      14.037  12.934  -3.319  0.00  0.00    -0.196 N 
ATOM      2  C   UNL d   1      14.211  13.422  -2.655  0.00  0.00     0.167 A 
ATOM      3  C   UNL d   1      13.770  13.281  -4.025  0.00  0.00     0.153 A 
ATOM      4  N   UNL d   1      14.395  11.779  -2.565  0.00  0.00    -0.163 NA
ATOM      5  C   UNL d   1      14.471  13.084  -1.966  0.00  0.00     0.055 A 
ATOM      6  N   UNL d   1      14.113  14.240  -2.720  0.00  0.00    -0.227 NA
ATOM      7  C   UNL d   1      13.678  14.090  -4.074  0.00  0.00     0.052 A 
ATOM      8  C   UNL d   1      14.567  12.259  -1.912  0.00  0.00     0.104 A 
ATOM      9  C   UNL d   1      13.851  14.584  -3.414  0.00  0.00     0.086 A 
ATOM     10  C   UNL d   1      13.433  14.579  -4.676  0.00  0.00     0.005 A 
ATOM     11  C   UNL d   1      14.831  11.926  -1.210  0.00  0.00     0.023 C 
ATOM     12  C   UNL d   1      13.707  15.365  -3.627  0.00  0.00     0.019 A 
ATOM     13  C   UNL d   1      13.445  15.359  -4.419  0.00  0.00     0.002 A 
ENDROOT
BRANCH   3  14
ATOM     14  N   UNL d   1      13.593  12.792  -4.698  0.00  0.00    -0.274 N 
ATOM     15  C   UNL d   1      13.768  12.603  -5.500  0.00  0.00     0.149 A 
ATOM     16  N   UNL d   1      13.255  11.971  -5.737  0.00  0.00    -0.225 NA
ATOM     17  C   UNL d   1      14.345  12.974  -5.975  0.00  0.00     0.041 C 
ATOM     18  C   UNL d   1      12.770  11.780  -5.072  0.00  0.00     0.120 A 
ATOM     19  C   UNL d   1      12.972  12.278  -4.439  0.00  0.00     0.104 A 
ENDBRANCH   3  14
BRANCH   5  20
ATOM     20  C   UNL d   1      14.642  13.562  -1.315  0.00  0.00     0.004 A 
ATOM     21  C   UNL d   1      14.138  13.571  -0.663  0.00  0.00     0.000 A 
ATOM     22  C   UNL d   1      14.304  14.044  -0.014  0.00  0.00     0.000 A 
ATOM     23  C   UNL d   1      14.984  14.517  -0.014  0.00  0.00     0.000 A 
ATOM     24  C   UNL d   1      15.488  14.514  -0.654  0.00  0.00     0.000 A 
ATOM     25  C   UNL d   1      15.315  14.032  -1.311  0.00  0.00     0.000 A 
ENDBRANCH   5  20
TORSDOF 2
ENDMDL
