MODEL 1
REMARK VINA RESULT:      63.9      0.000      0.000
REMARK  5 active torsions:
REMARK  status: ('A' for Active; 'I' for Inactive)
REMARK    1  A    between atoms: C_9  and  N_1 
REMARK    2  A    between atoms: C_2  and  C_9 
REMARK    3  A    between atoms: S_14  and  C_5 
REMARK    4  A    between atoms: C_12  and  C_16 
REMARK       I    between atoms: N_13  and  C_12 
REMARK    5  A    between atoms: C_16  and  S_14 
ROOT
ATOM      1  C   UNL d   1      13.972  14.979  -3.822  0.00  0.00     0.189 A 
ATOM      2  N   UNL d   1      14.367  15.688  -3.702  0.00  0.00    -0.265 N 
ATOM      3  C   UNL d   1      14.586  15.984  -4.440  0.00  0.00     0.202 A 
ATOM      4  N   UNL d   1      13.946  14.836  -4.630  0.00  0.00    -0.126 NA
ATOM      5  N   UNL d   1      14.325  15.457  -5.015  0.00  0.00    -0.121 NA
ATOM      6  C   UNL d   1      14.525  16.052  -2.978  0.00  0.00     0.103 C 
ENDROOT
BRANCH   1   7
ATOM      7  C   UNL d   1      13.688  14.557  -3.182  0.00  0.00     0.123 C 
BRANCH   7   8
ATOM      8  N   UNL d   1      13.608  13.736  -3.226  0.00  0.00    -0.265 N 
ATOM      9  C   UNL d   1      13.184  13.317  -3.803  0.00  0.00     0.296 A 
ATOM     10  S   UNL d   1      13.255  12.515  -3.629  0.00  0.00    -0.025 SA
ATOM     11  O   UNL d   1      12.770  13.648  -4.433  0.00  0.00    -0.259 OA
ATOM     12  C   UNL d   1      13.724  12.443  -2.943  0.00  0.00     0.050 A 
ATOM     13  C   UNL d   1      13.938  13.200  -2.699  0.00  0.00     0.074 A 
ATOM     14  C   UNL d   1      13.977  11.780  -2.516  0.00  0.00     0.008 A 
ATOM     15  C   UNL d   1      14.410  13.297  -2.022  0.00  0.00     0.018 A 
ATOM     16  C   UNL d   1      14.666  12.638  -1.593  0.00  0.00     0.002 A 
ATOM     17  C   UNL d   1      14.443  11.878  -1.849  0.00  0.00     0.001 A 
ENDBRANCH   7   8
ENDBRANCH   1   7
BRANCH   3  18
ATOM     18  S   UNL d   1      14.995  16.686  -4.579  0.00  0.00    -0.043 SA
BRANCH  18  19
ATOM     19  C   UNL d   1      14.596  17.410  -4.595  0.00  0.00     0.099 C 
BRANCH  19  20
ATOM     20  C   UNL d   1      14.980  18.094  -4.858  0.00  0.00     0.271 C 
ATOM     21  N   UNL d   1      14.584  18.633  -5.336  0.00  0.00    -0.272 N 
ATOM     22  C   UNL d   1      15.062  19.270  -5.534  0.00  0.00     0.083 A 
ATOM     23  C   UNL d   1      13.799  18.491  -5.555  0.00  0.00     0.083 A 
ATOM     24  C   UNL d   1      14.883  19.927  -5.999  0.00  0.00     0.019 A 
ATOM     25  C   UNL d   1      14.181  20.108  -6.380  0.00  0.00     0.002 A 
ATOM     26  C   UNL d   1      13.468  19.658  -6.386  0.00  0.00     0.002 A 
ATOM     27  C   UNL d   1      13.295  18.954  -6.029  0.00  0.00     0.019 A 
ATOM     28  O   UNL d   1      15.758  18.234  -4.641  0.00  0.00    -0.266 OA
ENDBRANCH  19  20
ENDBRANCH  18  19
ENDBRANCH   3  18
TORSDOF 5
ENDMDL
MODEL 2
REMARK VINA RESULT:      64.8      1.780      2.231
REMARK  5 active torsions:
REMARK  status: ('A' for Active; 'I' for Inactive)
REMARK    1  A    between atoms: C_9  and  N_1 
REMARK    2  A    between atoms: C_2  and  C_9 
REMARK    3  A    between atoms: S_14  and  C_5 
REMARK    4  A    between atoms: C_12  and  C_16 
REMARK       I    between atoms: N_13  and  C_12 
REMARK    5  A    between atoms: C_16  and  S_14 
ROOT
ATOM      1  C   UNL d   1      14.728  15.919  -2.243  0.00  0.00     0.189 A 
ATOM      2  N   UNL d   1      14.639  16.001  -3.054  0.00  0.00    -0.265 N 
ATOM      3  C   UNL d   1      15.041  16.682  -3.286  0.00  0.00     0.202 A 
ATOM      4  N   UNL d   1      15.182  16.546  -1.972  0.00  0.00    -0.126 NA
ATOM      5  N   UNL d   1      15.378  17.020  -2.616  0.00  0.00    -0.121 NA
ATOM      6  C   UNL d   1      14.224  15.499  -3.562  0.00  0.00     0.103 C 
ENDROOT
BRANCH   1   7
ATOM      7  C   UNL d   1      14.384  15.286  -1.857  0.00  0.00     0.123 C 
BRANCH   7   8
ATOM      8  N   UNL d   1      14.743  14.960  -1.188  0.00  0.00    -0.265 N 
ATOM      9  C   UNL d   1      15.076  15.384  -0.558  0.00  0.00     0.296 A 
ATOM     10  S   UNL d   1      15.367  14.836  -0.016  0.00  0.00    -0.025 SA
ATOM     11  O   UNL d   1      15.107  16.204  -0.490  0.00  0.00    -0.259 OA
ATOM     12  C   UNL d   1      15.212  14.073  -0.317  0.00  0.00     0.050 A 
ATOM     13  C   UNL d   1      14.826  14.157  -1.040  0.00  0.00     0.074 A 
ATOM     14  C   UNL d   1      15.376  13.319  -0.017  0.00  0.00     0.008 A 
ATOM     15  C   UNL d   1      14.602  13.481  -1.468  0.00  0.00     0.018 A 
ATOM     16  C   UNL d   1      14.764  12.726  -1.173  0.00  0.00     0.002 A 
ATOM     17  C   UNL d   1      15.154  12.654  -0.441  0.00  0.00     0.001 A 
ENDBRANCH   7   8
ENDBRANCH   1   7
BRANCH   3  18
ATOM     18  S   UNL d   1      15.097  16.976  -4.055  0.00  0.00    -0.043 SA
BRANCH  18  19
ATOM     19  C   UNL d   1      14.765  17.707  -4.252  0.00  0.00     0.099 C 
BRANCH  19  20
ATOM     20  C   UNL d   1      15.138  18.202  -4.800  0.00  0.00     0.271 C 
ATOM     21  N   UNL d   1      14.706  18.777  -5.199  0.00  0.00    -0.272 N 
ATOM     22  C   UNL d   1      15.179  19.205  -5.715  0.00  0.00     0.083 A 
ATOM     23  C   UNL d   1      13.897  18.861  -5.052  0.00  0.00     0.083 A 
ATOM     24  C   UNL d   1      14.968  19.826  -6.216  0.00  0.00     0.019 A 
ATOM     25  C   UNL d   1      14.233  20.169  -6.323  0.00  0.00     0.002 A 
ATOM     26  C   UNL d   1      13.509  19.965  -5.941  0.00  0.00     0.002 A 
ATOM     27  C   UNL d   1      13.356  19.397  -5.387  0.00  0.00     0.019 A 
ATOM     28  O   UNL d   1      15.940  18.119  -4.945  0.00  0.00    -0.266 OA
ENDBRANCH  19  20
ENDBRANCH  18  19
ENDBRANCH   3  18
TORSDOF 5
ENDMDL
