MODEL 1
REMARK VINA RESULT:     -12.0      0.000      0.000
REMARK  3 active torsions:
REMARK  status: ('A' for Active; 'I' for Inactive)
REMARK    1  A    between atoms: C_10  and  C_5 
REMARK    2  A    between atoms: C_16  and  C_10 
REMARK    3  A    between atoms: C_17  and  C_16 
ROOT
ATOM      1  C   UNL d   1      53.518  33.392  54.152  0.00  0.00     0.111 A 
ATOM      2  C   UNL d   1      53.188  32.111  53.581  0.00  0.00     0.062 A 
ATOM      3  C   UNL d   1      54.105  32.966  54.655  0.00  0.00     0.213 A 
ATOM      4  C   UNL d   1      53.724  31.743  54.044  0.00  0.00     0.101 A 
ATOM      5  C   UNL d   1      53.085  32.938  53.635  0.00  0.00     0.018 A 
ATOM      6  O   UNL d   1      54.181  32.170  54.579  0.00  0.00    -0.288 OA
ATOM      7  C   UNL d   1      52.723  31.684  53.038  0.00  0.00     0.194 A 
ATOM      8  C   UNL d   1      53.416  34.208  54.206  0.00  0.00     0.105 C 
ATOM      9  N   UNL d   1      53.298  35.029  54.244  0.00  0.00    -0.191 NA
ATOM     10  C   UNL d   1      53.826  30.926  53.990  0.00  0.00     0.002 A 
ATOM     11  C   UNL d   1      53.393  30.474  53.474  0.00  0.00     0.042 A 
ATOM     12  C   UNL d   1      52.807  30.889  52.970  0.00  0.00     0.019 A 
ATOM     13  O   UNL d   1      52.148  32.083  52.541  0.00  0.00    -0.287 OA
ATOM     14  N   UNL d   1      54.600  33.373  55.224  0.00  0.00    -0.120 N 
ATOM     15  C   UNL d   1      53.780  29.779  53.727  0.00  0.00     0.009 C 
ATOM     16  C   UNL d   1      53.042  29.897  53.015  0.00  0.00     0.009 C 
ENDROOT
BRANCH   5  17
ATOM     17  C   UNL d   1      52.515  33.355  53.147  0.00  0.00     0.001 C 
BRANCH  17  18
ATOM     18  C   UNL d   1      51.728  33.387  53.390  0.00  0.00     0.000 C 
BRANCH  18  19
ATOM     19  C   UNL d   1      51.199  33.807  52.917  0.00  0.00     0.000 A 
ATOM     20  C   UNL d   1      50.456  34.001  53.239  0.00  0.00     0.000 A 
ATOM     21  C   UNL d   1      49.923  34.416  52.782  0.00  0.00     0.000 A 
ATOM     22  C   UNL d   1      50.116  34.641  52.006  0.00  0.00     0.000 A 
ATOM     23  C   UNL d   1      50.858  34.447  51.684  0.00  0.00     0.000 A 
ATOM     24  C   UNL d   1      51.393  34.034  52.137  0.00  0.00     0.000 A 
ENDBRANCH  18  19
ENDBRANCH  17  18
ENDBRANCH   5  17
TORSDOF 3
ENDMDL
MODEL 2
REMARK VINA RESULT:     -10.2      1.422      2.609
REMARK  3 active torsions:
REMARK  status: ('A' for Active; 'I' for Inactive)
REMARK    1  A    between atoms: C_10  and  C_5 
REMARK    2  A    between atoms: C_16  and  C_10 
REMARK    3  A    between atoms: C_17  and  C_16 
ROOT
ATOM      1  C   UNL d   1      53.048  31.914  53.432  0.00  0.00     0.111 A 
ATOM      2  C   UNL d   1      53.529  33.064  54.153  0.00  0.00     0.062 A 
ATOM      3  C   UNL d   1      53.811  31.522  53.640  0.00  0.00     0.213 A 
ATOM      4  C   UNL d   1      54.213  32.694  54.331  0.00  0.00     0.101 A 
ATOM      5  C   UNL d   1      52.945  32.674  53.702  0.00  0.00     0.018 A 
ATOM      6  O   UNL d   1      54.353  31.924  54.075  0.00  0.00    -0.288 OA
ATOM      7  C   UNL d   1      53.383  33.843  54.411  0.00  0.00     0.194 A 
ATOM      8  C   UNL d   1      52.472  31.529  52.987  0.00  0.00     0.105 C 
ATOM      9  N   UNL d   1      51.878  31.158  52.540  0.00  0.00    -0.191 NA
ATOM     10  C   UNL d   1      54.790  33.080  54.777  0.00  0.00     0.002 A 
ATOM     11  C   UNL d   1      54.686  33.839  55.046  0.00  0.00     0.042 A 
ATOM     12  C   UNL d   1      53.931  34.236  54.845  0.00  0.00     0.019 A 
ATOM     13  O   UNL d   1      52.646  34.240  54.217  0.00  0.00    -0.287 OA
ATOM     14  N   UNL d   1      53.995  30.722  53.393  0.00  0.00    -0.120 N 
ATOM     15  C   UNL d   1      55.437  33.833  55.411  0.00  0.00     0.009 C 
ATOM     16  C   UNL d   1      54.728  34.582  55.380  0.00  0.00     0.009 C 
ENDROOT
BRANCH   5  17
ATOM     17  C   UNL d   1      52.202  33.053  53.499  0.00  0.00     0.001 C 
BRANCH  17  18
ATOM     18  C   UNL d   1      52.195  33.625  52.906  0.00  0.00     0.000 C 
BRANCH  18  19
ATOM     19  C   UNL d   1      51.460  33.893  52.644  0.00  0.00     0.000 A 
ATOM     20  C   UNL d   1      51.392  34.133  51.849  0.00  0.00     0.000 A 
ATOM     21  C   UNL d   1      50.672  34.401  51.577  0.00  0.00     0.000 A 
ATOM     22  C   UNL d   1      50.014  34.435  52.082  0.00  0.00     0.000 A 
ATOM     23  C   UNL d   1      50.081  34.195  52.876  0.00  0.00     0.000 A 
ATOM     24  C   UNL d   1      50.798  33.927  53.152  0.00  0.00     0.000 A 
ENDBRANCH  18  19
ENDBRANCH  17  18
ENDBRANCH   5  17
TORSDOF 3
ENDMDL
MODEL 3
REMARK VINA RESULT:      -9.6      0.882      3.663
REMARK  3 active torsions:
REMARK  status: ('A' for Active; 'I' for Inactive)
REMARK    1  A    between atoms: C_10  and  C_5 
REMARK    2  A    between atoms: C_16  and  C_10 
REMARK    3  A    between atoms: C_17  and  C_16 
ROOT
ATOM      1  C   UNL d   1      53.320  33.790  54.113  0.00  0.00     0.111 A 
ATOM      2  C   UNL d   1      52.018  33.629  53.519  0.00  0.00     0.062 A 
ATOM      3  C   UNL d   1      53.208  34.660  54.015  0.00  0.00     0.213 A 
ATOM      4  C   UNL d   1      51.934  34.419  53.438  0.00  0.00     0.101 A 
ATOM      5  C   UNL d   1      52.713  33.314  53.858  0.00  0.00     0.018 A 
ATOM      6  O   UNL d   1      52.528  34.932  53.686  0.00  0.00    -0.288 OA
ATOM      7  C   UNL d   1      51.420  33.106  53.270  0.00  0.00     0.194 A 
ATOM      8  C   UNL d   1      54.006  33.479  54.447  0.00  0.00     0.105 C 
ATOM      9  N   UNL d   1      54.689  33.145  54.780  0.00  0.00    -0.191 NA
ATOM     10  C   UNL d   1      51.247  34.730  53.104  0.00  0.00     0.002 A 
ATOM     11  C   UNL d   1      50.641  34.254  52.849  0.00  0.00     0.042 A 
ATOM     12  C   UNL d   1      50.744  33.388  52.943  0.00  0.00     0.019 A 
ATOM     13  O   UNL d   1      51.513  32.257  53.359  0.00  0.00    -0.287 OA
ATOM     14  N   UNL d   1      53.802  35.228  54.259  0.00  0.00    -0.120 N 
ATOM     15  C   UNL d   1      50.196  34.917  52.608  0.00  0.00     0.009 C 
ATOM     16  C   UNL d   1      49.962  33.913  52.553  0.00  0.00     0.009 C 
ENDROOT
BRANCH   5  17
ATOM     17  C   UNL d   1      52.825  32.468  53.954  0.00  0.00     0.001 C 
BRANCH  17  18
ATOM     18  C   UNL d   1      53.199  32.043  53.356  0.00  0.00     0.000 C 
BRANCH  18  19
ATOM     19  C   UNL d   1      53.241  31.224  53.438  0.00  0.00     0.000 A 
ATOM     20  C   UNL d   1      53.193  30.758  52.749  0.00  0.00     0.000 A 
ATOM     21  C   UNL d   1      53.233  29.947  52.816  0.00  0.00     0.000 A 
ATOM     22  C   UNL d   1      53.320  29.587  53.559  0.00  0.00     0.000 A 
ATOM     23  C   UNL d   1      53.368  30.051  54.248  0.00  0.00     0.000 A 
ATOM     24  C   UNL d   1      53.328  30.861  54.186  0.00  0.00     0.000 A 
ENDBRANCH  18  19
ENDBRANCH  17  18
ENDBRANCH   5  17
TORSDOF 3
ENDMDL
MODEL 4
REMARK VINA RESULT:      -9.3      1.347      3.174
REMARK  3 active torsions:
REMARK  status: ('A' for Active; 'I' for Inactive)
REMARK    1  A    between atoms: C_10  and  C_5 
REMARK    2  A    between atoms: C_16  and  C_10 
REMARK    3  A    between atoms: C_17  and  C_16 
ROOT
ATOM      1  C   UNL d   1      52.391  33.054  53.234  0.00  0.00     0.111 A 
ATOM      2  C   UNL d   1      52.927  31.723  53.356  0.00  0.00     0.062 A 
ATOM      3  C   UNL d   1      51.641  32.679  52.959  0.00  0.00     0.213 A 
ATOM      4  C   UNL d   1      52.241  31.401  53.106  0.00  0.00     0.101 A 
ATOM      5  C   UNL d   1      53.002  32.552  53.420  0.00  0.00     0.018 A 
ATOM      6  O   UNL d   1      51.600  31.879  52.908  0.00  0.00    -0.288 OA
ATOM      7  C   UNL d   1      53.578  31.245  53.557  0.00  0.00     0.194 A 
ATOM      8  C   UNL d   1      52.465  33.873  53.298  0.00  0.00     0.105 C 
ATOM      9  N   UNL d   1      52.561  34.694  53.368  0.00  0.00    -0.191 NA
ATOM     10  C   UNL d   1      52.166  30.582  53.042  0.00  0.00     0.002 A 
ATOM     11  C   UNL d   1      52.777  30.081  53.229  0.00  0.00     0.042 A 
ATOM     12  C   UNL d   1      53.526  30.446  53.502  0.00  0.00     0.019 A 
ATOM     13  O   UNL d   1      54.315  31.594  53.826  0.00  0.00    -0.287 OA
ATOM     14  N   UNL d   1      50.951  33.140  52.744  0.00  0.00    -0.120 N 
ATOM     15  C   UNL d   1      52.314  29.414  53.039  0.00  0.00     0.009 C 
ATOM     16  C   UNL d   1      53.288  29.462  53.375  0.00  0.00     0.009 C 
ENDROOT
BRANCH   5  17
ATOM     17  C   UNL d   1      53.730  32.921  53.687  0.00  0.00     0.001 C 
BRANCH  17  18
ATOM     18  C   UNL d   1      53.955  32.837  54.475  0.00  0.00     0.000 C 
BRANCH  18  19
ATOM     19  C   UNL d   1      54.576  33.307  54.747  0.00  0.00     0.000 A 
ATOM     20  C   UNL d   1      54.572  33.535  55.548  0.00  0.00     0.000 A 
ATOM     21  C   UNL d   1      55.179  33.999  55.831  0.00  0.00     0.000 A 
ATOM     22  C   UNL d   1      55.794  34.244  55.329  0.00  0.00     0.000 A 
ATOM     23  C   UNL d   1      55.798  34.017  54.528  0.00  0.00     0.000 A 
ATOM     24  C   UNL d   1      55.194  33.553  54.242  0.00  0.00     0.000 A 
ENDBRANCH  18  19
ENDBRANCH  17  18
ENDBRANCH   5  17
TORSDOF 3
ENDMDL
