MODEL 1
REMARK VINA RESULT:      -9.7      0.000      0.000
REMARK  5 active torsions:
REMARK  status: ('A' for Active; 'I' for Inactive)
REMARK    1  A    between atoms: N_12  and  C_4 
REMARK    2  A    between atoms: C_19  and  N_5 
REMARK    3  A    between atoms: C_11  and  S_18 
REMARK    4  A    between atoms: S_18  and  C_21 
REMARK    5  A    between atoms: C_21  and  C_19 
ROOT
ATOM      1  C   UNL d   1      53.477  30.778  53.931  0.00  0.00     0.191 A 
ATOM      2  C   UNL d   1      53.171  31.278  53.351  0.00  0.00     0.174 A 
ATOM      3  N   UNL d   1      53.927  31.236  54.446  0.00  0.00    -0.042 NA
ATOM      4  C   UNL d   1      53.902  32.010  54.189  0.00  0.00     0.722 A 
ATOM      5  N   UNL d   1      53.433  32.043  53.508  0.00  0.00    -0.132 N 
ATOM      6  N   UNL d   1      53.304  29.972  53.913  0.00  0.00    -0.239 N 
ATOM      7  C   UNL d   1      52.825  29.664  53.315  0.00  0.00     0.358 A 
ATOM      8  N   UNL d   1      52.520  30.164  52.735  0.00  0.00    -0.152 NA
ATOM      9  C   UNL d   1      52.693  30.971  52.753  0.00  0.00     0.303 A 
ATOM     10  O   UNL d   1      52.655  28.855  53.302  0.00  0.00    -0.244 OA
ATOM     11  O   UNL d   1      52.387  31.470  52.172  0.00  0.00    -0.263 OA
ATOM     12  C   UNL d   1      53.606  29.477  54.488  0.00  0.00     0.105 C 
ENDROOT
BRANCH   5  13
ATOM     13  C   UNL d   1      53.257  32.720  53.063  0.00  0.00     0.105 C 
BRANCH  13  14
ATOM     14  C   UNL d   1      52.496  33.047  53.086  0.00  0.00     0.058 C 
BRANCH  14  15
ATOM     15  S   UNL d   1      52.331  33.744  52.655  0.00  0.00    -0.041 SA
BRANCH  15  16
ATOM     16  C   UNL d   1      51.561  34.046  52.657  0.00  0.00     0.215 A 
ATOM     17  N   UNL d   1      51.113  34.055  51.973  0.00  0.00    -0.214 NA
ATOM     18  C   UNL d   1      50.389  34.380  52.146  0.00  0.00     0.107 A 
ATOM     19  C   UNL d   1      49.729  34.522  51.664  0.00  0.00     0.021 A 
ATOM     20  C   UNL d   1      50.369  34.578  52.930  0.00  0.00     0.120 A 
ATOM     21  C   UNL d   1      49.049  34.866  51.990  0.00  0.00     0.002 A 
ATOM     22  C   UNL d   1      49.032  35.063  52.775  0.00  0.00     0.002 A 
ATOM     23  C   UNL d   1      49.695  34.918  53.247  0.00  0.00     0.026 A 
ATOM     24  O   UNL d   1      51.107  34.368  53.258  0.00  0.00    -0.283 OA
ENDBRANCH  15  16
ENDBRANCH  14  15
ENDBRANCH  13  14
ENDBRANCH   5  13
BRANCH   4  25
ATOM     25  N   UNL d   1      54.265  32.672  54.521  0.00  0.00    -0.139 N 
ATOM     26  C   UNL d   1      53.970  32.995  55.228  0.00  0.00     0.098 A 
ATOM     27  C   UNL d   1      54.335  33.657  55.560  0.00  0.00     0.020 A 
ATOM     28  C   UNL d   1      54.984  33.997  55.194  0.00  0.00     0.003 A 
ATOM     29  C   UNL d   1      55.274  33.675  54.493  0.00  0.00     0.020 A 
ATOM     30  C   UNL d   1      54.915  33.012  54.155  0.00  0.00     0.098 A 
ENDBRANCH   4  25
TORSDOF 5
ENDMDL
MODEL 2
REMARK VINA RESULT:      -6.8      1.577      3.043
REMARK  5 active torsions:
REMARK  status: ('A' for Active; 'I' for Inactive)
REMARK    1  A    between atoms: N_12  and  C_4 
REMARK    2  A    between atoms: C_19  and  N_5 
REMARK    3  A    between atoms: C_11  and  S_18 
REMARK    4  A    between atoms: S_18  and  C_21 
REMARK    5  A    between atoms: C_21  and  C_19 
ROOT
ATOM      1  C   UNL d   1      53.839  33.202  54.534  0.00  0.00     0.191 A 
ATOM      2  C   UNL d   1      53.412  33.589  53.945  0.00  0.00     0.174 A 
ATOM      3  N   UNL d   1      53.738  32.393  54.430  0.00  0.00    -0.042 NA
ATOM      4  C   UNL d   1      53.254  32.277  53.784  0.00  0.00     0.722 A 
ATOM      5  N   UNL d   1      53.047  33.018  53.477  0.00  0.00    -0.132 N 
ATOM      6  N   UNL d   1      54.265  33.641  55.089  0.00  0.00    -0.239 N 
ATOM      7  C   UNL d   1      54.264  34.465  55.054  0.00  0.00     0.358 A 
ATOM      8  N   UNL d   1      53.836  34.851  54.465  0.00  0.00    -0.152 NA
ATOM      9  C   UNL d   1      53.410  34.414  53.910  0.00  0.00     0.303 A 
ATOM     10  O   UNL d   1      54.692  34.900  55.612  0.00  0.00    -0.244 OA
ATOM     11  O   UNL d   1      52.983  34.800  53.321  0.00  0.00    -0.263 OA
ATOM     12  C   UNL d   1      54.688  33.258  55.673  0.00  0.00     0.105 C 
ENDROOT
BRANCH   5  13
ATOM     13  C   UNL d   1      52.562  33.161  52.820  0.00  0.00     0.105 C 
BRANCH  13  14
ATOM     14  C   UNL d   1      51.826  33.531  52.919  0.00  0.00     0.058 C 
BRANCH  14  15
ATOM     15  S   UNL d   1      51.329  33.646  52.257  0.00  0.00    -0.041 SA
BRANCH  15  16
ATOM     16  C   UNL d   1      50.629  34.076  52.350  0.00  0.00     0.215 A 
ATOM     17  N   UNL d   1      50.110  34.174  51.725  0.00  0.00    -0.214 NA
ATOM     18  C   UNL d   1      49.480  34.616  51.983  0.00  0.00     0.107 A 
ATOM     19  C   UNL d   1      48.801  34.877  51.584  0.00  0.00     0.021 A 
ATOM     20  C   UNL d   1      49.589  34.802  52.763  0.00  0.00     0.120 A 
ATOM     21  C   UNL d   1      48.235  35.328  51.988  0.00  0.00     0.002 A 
ATOM     22  C   UNL d   1      48.347  35.513  52.768  0.00  0.00     0.002 A 
ATOM     23  C   UNL d   1      49.027  35.248  53.158  0.00  0.00     0.026 A 
ATOM     24  O   UNL d   1      50.313  34.463  53.000  0.00  0.00    -0.283 OA
ENDBRANCH  15  16
ENDBRANCH  14  15
ENDBRANCH  13  14
ENDBRANCH   5  13
BRANCH   4  25
ATOM     25  N   UNL d   1      52.992  31.565  53.460  0.00  0.00    -0.139 N 
ATOM     26  C   UNL d   1      53.416  31.212  52.838  0.00  0.00     0.098 A 
ATOM     27  C   UNL d   1      53.153  30.499  52.515  0.00  0.00     0.020 A 
ATOM     28  C   UNL d   1      52.478  30.138  52.805  0.00  0.00     0.003 A 
ATOM     29  C   UNL d   1      52.060  30.491  53.422  0.00  0.00     0.020 A 
ATOM     30  C   UNL d   1      52.315  31.204  53.751  0.00  0.00     0.098 A 
ENDBRANCH   4  25
TORSDOF 5
ENDMDL
MODEL 3
REMARK VINA RESULT:      -6.7      1.211      4.472
REMARK  5 active torsions:
REMARK  status: ('A' for Active; 'I' for Inactive)
REMARK    1  A    between atoms: N_12  and  C_4 
REMARK    2  A    between atoms: C_19  and  N_5 
REMARK    3  A    between atoms: C_11  and  S_18 
REMARK    4  A    between atoms: S_18  and  C_21 
REMARK    5  A    between atoms: C_21  and  C_19 
ROOT
ATOM      1  C   UNL d   1      51.939  34.257  53.508  0.00  0.00     0.191 A 
ATOM      2  C   UNL d   1      52.148  33.558  53.127  0.00  0.00     0.174 A 
ATOM      3  N   UNL d   1      52.541  34.448  54.035  0.00  0.00    -0.042 NA
ATOM      4  C   UNL d   1      53.118  33.873  53.982  0.00  0.00     0.722 A 
ATOM      5  N   UNL d   1      52.880  33.315  53.418  0.00  0.00    -0.132 N 
ATOM      6  N   UNL d   1      51.225  34.629  53.324  0.00  0.00    -0.239 N 
ATOM      7  C   UNL d   1      50.721  34.301  52.759  0.00  0.00     0.358 A 
ATOM      8  N   UNL d   1      50.931  33.601  52.377  0.00  0.00    -0.152 NA
ATOM      9  C   UNL d   1      51.645  33.229  52.561  0.00  0.00     0.303 A 
ATOM     10  O   UNL d   1      50.008  34.677  52.577  0.00  0.00    -0.244 OA
ATOM     11  O   UNL d   1      51.854  32.529  52.180  0.00  0.00    -0.263 OA
ATOM     12  C   UNL d   1      51.018  35.322  53.701  0.00  0.00     0.105 C 
ENDROOT
BRANCH   5  13
ATOM     13  C   UNL d   1      53.298  32.638  53.188  0.00  0.00     0.105 C 
BRANCH  13  14
ATOM     14  C   UNL d   1      53.023  31.886  53.402  0.00  0.00     0.058 C 
BRANCH  14  15
ATOM     15  S   UNL d   1      53.474  31.210  53.208  0.00  0.00    -0.041 SA
BRANCH  15  16
ATOM     16  C   UNL d   1      53.442  30.549  53.706  0.00  0.00     0.215 A 
ATOM     17  N   UNL d   1      53.580  29.798  53.414  0.00  0.00    -0.214 NA
ATOM     18  C   UNL d   1      53.510  29.269  54.026  0.00  0.00     0.107 A 
ATOM     19  C   UNL d   1      53.594  28.444  54.043  0.00  0.00     0.021 A 
ATOM     20  C   UNL d   1      53.329  29.672  54.704  0.00  0.00     0.120 A 
ATOM     21  C   UNL d   1      53.491  28.035  54.756  0.00  0.00     0.002 A 
ATOM     22  C   UNL d   1      53.310  28.441  55.432  0.00  0.00     0.002 A 
ATOM     23  C   UNL d   1      53.229  29.263  55.407  0.00  0.00     0.026 A 
ATOM     24  O   UNL d   1      53.285  30.482  54.507  0.00  0.00    -0.283 OA
ENDBRANCH  15  16
ENDBRANCH  14  15
ENDBRANCH  13  14
ENDBRANCH   5  13
BRANCH   4  25
ATOM     25  N   UNL d   1      53.828  33.820  54.398  0.00  0.00    -0.139 N 
ATOM     26  C   UNL d   1      53.820  33.619  55.205  0.00  0.00     0.098 A 
ATOM     27  C   UNL d   1      54.532  33.566  55.621  0.00  0.00     0.020 A 
ATOM     28  C   UNL d   1      55.243  33.711  55.242  0.00  0.00     0.003 A 
ATOM     29  C   UNL d   1      55.247  33.910  54.442  0.00  0.00     0.020 A 
ATOM     30  C   UNL d   1      54.540  33.965  54.019  0.00  0.00     0.098 A 
ENDBRANCH   4  25
TORSDOF 5
ENDMDL
