MODEL 1
REMARK VINA RESULT:      44.3      0.000      0.000
REMARK  6 active torsions:
REMARK  status: ('A' for Active; 'I' for Inactive)
REMARK    1  A    between atoms: S_6  and  C_1 
REMARK    2  A    between atoms: C_13  and  S_6 
REMARK    3  A    between atoms: C_7  and  O_9 
REMARK    4  A    between atoms: O_9  and  C_14 
REMARK    5  A    between atoms: C_10  and  C_13 
REMARK    6  A    between atoms: C_14  and  C_10 
ROOT
ATOM      1  C   UNL d   1     -49.665  27.642  33.909  0.00  0.00     0.040 C 
ENDROOT
BRANCH   1   2
ATOM      2  C   UNL d   1     -49.172  28.297  33.839  0.00  0.00     0.034 C 
BRANCH   2   3
ATOM      3  C   UNL d   1     -48.622  28.461  34.433  0.00  0.00     0.123 C 
BRANCH   3   4
ATOM      4  O   UNL d   1     -48.090  29.080  34.323  0.00  0.00    -0.305 OA
BRANCH   4   5
ATOM      5  C   UNL d   1     -47.676  29.384  34.963  0.00  0.00     0.100 A 
ATOM      6  C   UNL d   1     -47.573  30.197  35.038  0.00  0.00     0.023 A 
ATOM      7  C   UNL d   1     -47.884  30.714  34.473  0.00  0.00     0.002 C 
ATOM      8  C   UNL d   1     -47.153  30.501  35.689  0.00  0.00     0.002 A 
ATOM      9  C   UNL d   1     -46.842  29.989  36.254  0.00  0.00     0.000 A 
ATOM     10  C   UNL d   1     -46.950  29.169  36.171  0.00  0.00     0.002 A 
ATOM     11  C   UNL d   1     -47.366  28.864  35.528  0.00  0.00     0.025 A 
ENDBRANCH   4   5
ENDBRANCH   3   4
ENDBRANCH   2   3
ENDBRANCH   1   2
BRANCH   1  12
ATOM     12  S   UNL d   1     -49.678  27.079  33.308  0.00  0.00    -0.048 SA
BRANCH  12  13
ATOM     13  C   UNL d   1     -50.245  26.482  33.309  0.00  0.00     0.194 A 
ATOM     14  N   UNL d   1     -50.104  25.665  33.309  0.00  0.00    -0.220 NA
ATOM     15  C   UNL d   1     -50.839  25.279  33.310  0.00  0.00     0.101 A 
ATOM     16  C   UNL d   1     -51.032  24.478  33.311  0.00  0.00     0.021 A 
ATOM     17  C   UNL d   1     -51.441  25.852  33.310  0.00  0.00     0.101 A 
ATOM     18  C   UNL d   1     -51.821  24.247  33.311  0.00  0.00     0.002 A 
ATOM     19  C   UNL d   1     -52.417  24.814  33.311  0.00  0.00     0.002 A 
ATOM     20  C   UNL d   1     -52.225  25.612  33.311  0.00  0.00     0.021 A 
ATOM     21  N   UNL d   1     -51.071  26.603  33.309  0.00  0.00    -0.220 NA
ENDBRANCH  12  13
ENDBRANCH   1  12
TORSDOF 6
ENDMDL
MODEL 2
REMARK VINA RESULT:      45.1      1.765      5.739
REMARK  6 active torsions:
REMARK  status: ('A' for Active; 'I' for Inactive)
REMARK    1  A    between atoms: S_6  and  C_1 
REMARK    2  A    between atoms: C_13  and  S_6 
REMARK    3  A    between atoms: C_7  and  O_9 
REMARK    4  A    between atoms: O_9  and  C_14 
REMARK    5  A    between atoms: C_10  and  C_13 
REMARK    6  A    between atoms: C_14  and  C_10 
ROOT
ATOM      1  C   UNL d   1     -49.151  27.992  34.719  0.00  0.00     0.040 C 
ENDROOT
BRANCH   1   2
ATOM      2  C   UNL d   1     -49.362  27.256  34.417  0.00  0.00     0.034 C 
BRANCH   2   3
ATOM      3  C   UNL d   1     -49.817  27.209  33.729  0.00  0.00     0.123 C 
BRANCH   3   4
ATOM      4  O   UNL d   1     -49.857  26.493  33.327  0.00  0.00    -0.305 OA
BRANCH   4   5
ATOM      5  C   UNL d   1     -50.556  26.062  33.324  0.00  0.00     0.100 A 
ATOM      6  C   UNL d   1     -50.533  25.239  33.316  0.00  0.00     0.023 A 
ATOM      7  C   UNL d   1     -49.811  24.839  33.311  0.00  0.00     0.002 C 
ATOM      8  C   UNL d   1     -51.244  24.807  33.314  0.00  0.00     0.002 A 
ATOM      9  C   UNL d   1     -51.967  25.203  33.318  0.00  0.00     0.000 A 
ATOM     10  C   UNL d   1     -51.982  26.034  33.326  0.00  0.00     0.002 A 
ATOM     11  C   UNL d   1     -51.279  26.466  33.329  0.00  0.00     0.025 A 
ENDBRANCH   4   5
ENDBRANCH   3   4
ENDBRANCH   2   3
ENDBRANCH   1   2
BRANCH   1  12
ATOM     12  S   UNL d   1     -48.367  28.134  34.926  0.00  0.00    -0.048 SA
BRANCH  12  13
ATOM     13  C   UNL d   1     -48.104  28.903  35.056  0.00  0.00     0.194 A 
ATOM     14  N   UNL d   1     -47.532  29.145  35.605  0.00  0.00    -0.220 NA
ATOM     15  C   UNL d   1     -47.447  29.968  35.540  0.00  0.00     0.101 A 
ATOM     16  C   UNL d   1     -46.962  30.499  35.944  0.00  0.00     0.021 A 
ATOM     17  C   UNL d   1     -47.965  30.244  34.951  0.00  0.00     0.101 A 
ATOM     18  C   UNL d   1     -46.992  31.300  35.764  0.00  0.00     0.002 A 
ATOM     19  C   UNL d   1     -47.505  31.573  35.181  0.00  0.00     0.002 A 
ATOM     20  C   UNL d   1     -47.988  31.045  34.778  0.00  0.00     0.021 A 
ATOM     21  N   UNL d   1     -48.375  29.580  34.649  0.00  0.00    -0.220 NA
ENDBRANCH  12  13
ENDBRANCH   1  12
TORSDOF 6
ENDMDL
MODEL 3
REMARK VINA RESULT:      46.7      2.096      5.842
REMARK  6 active torsions:
REMARK  status: ('A' for Active; 'I' for Inactive)
REMARK    1  A    between atoms: S_6  and  C_1 
REMARK    2  A    between atoms: C_13  and  S_6 
REMARK    3  A    between atoms: C_7  and  O_9 
REMARK    4  A    between atoms: O_9  and  C_14 
REMARK    5  A    between atoms: C_10  and  C_13 
REMARK    6  A    between atoms: C_14  and  C_10 
ROOT
ATOM      1  C   UNL d   1     -48.563  28.716  35.077  0.00  0.00     0.040 C 
ENDROOT
BRANCH   1   2
ATOM      2  C   UNL d   1     -48.569  27.979  34.710  0.00  0.00     0.034 C 
BRANCH   2   3
ATOM      3  C   UNL d   1     -49.288  27.602  34.559  0.00  0.00     0.123 C 
BRANCH   3   4
ATOM      4  O   UNL d   1     -49.359  27.136  33.884  0.00  0.00    -0.305 OA
BRANCH   4   5
ATOM      5  C   UNL d   1     -50.083  26.798  33.693  0.00  0.00     0.100 A 
ATOM      6  C   UNL d   1     -50.125  25.999  33.500  0.00  0.00     0.023 A 
ATOM      7  C   UNL d   1     -49.445  25.531  33.496  0.00  0.00     0.002 C 
ATOM      8  C   UNL d   1     -50.861  25.661  33.306  0.00  0.00     0.002 A 
ATOM      9  C   UNL d   1     -51.541  26.125  33.309  0.00  0.00     0.000 A 
ATOM     10  C   UNL d   1     -51.490  26.931  33.504  0.00  0.00     0.002 A 
ATOM     11  C   UNL d   1     -50.763  27.270  33.697  0.00  0.00     0.025 A 
ENDBRANCH   4   5
ENDBRANCH   3   4
ENDBRANCH   2   3
ENDBRANCH   1   2
BRANCH   1  12
ATOM     12  S   UNL d   1     -47.844  29.089  35.222  0.00  0.00    -0.048 SA
BRANCH  12  13
ATOM     13  C   UNL d   1     -47.755  29.894  35.072  0.00  0.00     0.194 A 
ATOM     14  N   UNL d   1     -48.121  30.327  34.467  0.00  0.00    -0.220 NA
ATOM     15  C   UNL d   1     -47.869  31.115  34.529  0.00  0.00     0.101 A 
ATOM     16  C   UNL d   1     -48.052  31.782  34.079  0.00  0.00     0.021 A 
ATOM     17  C   UNL d   1     -47.345  31.178  35.171  0.00  0.00     0.101 A 
ATOM     18  C   UNL d   1     -47.716  32.508  34.267  0.00  0.00     0.002 A 
ATOM     19  C   UNL d   1     -47.197  32.570  34.903  0.00  0.00     0.002 A 
ATOM     20  C   UNL d   1     -47.015  31.906  35.351  0.00  0.00     0.021 A 
ATOM     21  N   UNL d   1     -47.274  30.416  35.510  0.00  0.00    -0.220 NA
ENDBRANCH  12  13
ENDBRANCH   1  12
TORSDOF 6
ENDMDL
