MODEL 1
REMARK VINA RESULT:      35.7      0.000      0.000
REMARK  5 active torsions:
REMARK  status: ('A' for Active; 'I' for Inactive)
REMARK    1  A    between atoms: N_2  and  S_1 
REMARK    2  A    between atoms: C_3  and  S_1 
REMARK    3  A    between atoms: C_14  and  C_5 
REMARK    4  A    between atoms: O_15  and  C_8 
REMARK    5  A    between atoms: C_18  and  C_14 
ROOT
ATOM      1  C   UNL d   1      58.742  49.555  51.050  0.00  0.00     0.104 A 
ATOM      2  C   UNL d   1      58.193  49.486  50.437  0.00  0.00     0.015 A 
ATOM      3  C   UNL d   1      57.384  49.527  50.598  0.00  0.00     0.023 A 
ATOM      4  C   UNL d   1      57.122  49.636  51.373  0.00  0.00     0.094 A 
ATOM      5  C   UNL d   1      58.480  49.663  51.825  0.00  0.00     0.015 A 
ATOM      6  C   UNL d   1      57.670  49.704  51.986  0.00  0.00     0.025 A 
ENDROOT
BRANCH   1   7
ATOM      7  S   UNL d   1      59.551  49.514  50.888  0.00  0.00     0.272 S 
ATOM      8  O   UNL d   1      59.386  49.434  50.083  0.00  0.00    -0.200 OA
ATOM      9  O   UNL d   1      59.716  49.594  51.694  0.00  0.00    -0.200 OA
BRANCH   7  10
ATOM     10  N   UNL d   1      60.357  49.474  50.727  0.00  0.00    -0.225 N 
ATOM     11  C   UNL d   1      60.624  49.491  49.947  0.00  0.00     0.118 A 
ATOM     12  C   UNL d   1      61.434  49.451  49.785  0.00  0.00     0.142 A 
ATOM     13  O   UNL d   1      61.976  49.393  50.403  0.00  0.00    -0.300 OA
ATOM     14  C   UNL d   1      61.709  49.375  51.184  0.00  0.00     0.142 A 
ATOM     15  C   UNL d   1      60.899  49.415  51.346  0.00  0.00     0.118 A 
ENDBRANCH   7  10
ENDBRANCH   1   7
BRANCH   3  16
ATOM     16  C   UNL d   1      56.836  49.459  49.987  0.00  0.00     0.002 C 
ATOM     17  C   UNL d   1      56.049  49.670  50.117  0.00  0.00     0.000 C 
BRANCH  16  18
ATOM     18  C   UNL d   1      57.073  49.180  49.246  0.00  0.00     0.000 C 
ATOM     19  C   UNL d   1      56.733  48.497  48.932  0.00  0.00     0.000 C 
ENDBRANCH  16  18
ENDBRANCH   3  16
BRANCH   4  20
ATOM     20  O   UNL d   1      56.313  49.676  51.535  0.00  0.00    -0.328 OA
ATOM     21  C   UNL d   1      56.037  49.551  52.303  0.00  0.00     0.181 C 
ENDBRANCH   4  20
TORSDOF 5
ENDMDL
MODEL 2
REMARK VINA RESULT:      36.6      1.197      3.794
REMARK  5 active torsions:
REMARK  status: ('A' for Active; 'I' for Inactive)
REMARK    1  A    between atoms: N_2  and  S_1 
REMARK    2  A    between atoms: C_3  and  S_1 
REMARK    3  A    between atoms: C_14  and  C_5 
REMARK    4  A    between atoms: O_15  and  C_8 
REMARK    5  A    between atoms: C_18  and  C_14 
ROOT
ATOM      1  C   UNL d   1      59.109  49.558  50.987  0.00  0.00     0.104 A 
ATOM      2  C   UNL d   1      59.770  49.390  50.523  0.00  0.00     0.015 A 
ATOM      3  C   UNL d   1      60.522  49.369  50.865  0.00  0.00     0.023 A 
ATOM      4  C   UNL d   1      60.614  49.515  51.672  0.00  0.00     0.094 A 
ATOM      5  C   UNL d   1      59.201  49.705  51.794  0.00  0.00     0.015 A 
ATOM      6  C   UNL d   1      59.952  49.683  52.136  0.00  0.00     0.025 A 
ENDROOT
BRANCH   1   7
ATOM      7  S   UNL d   1      58.357  49.579  50.645  0.00  0.00     0.272 S 
ATOM      8  O   UNL d   1      58.699  49.653  49.897  0.00  0.00    -0.200 OA
ATOM      9  O   UNL d   1      58.014  49.505  51.394  0.00  0.00    -0.200 OA
BRANCH   7  10
ATOM     10  N   UNL d   1      57.608  49.600  50.305  0.00  0.00    -0.225 N 
ATOM     11  C   UNL d   1      57.528  49.681  49.488  0.00  0.00     0.118 A 
ATOM     12  C   UNL d   1      56.775  49.702  49.145  0.00  0.00     0.142 A 
ATOM     13  O   UNL d   1      56.104  49.643  49.620  0.00  0.00    -0.300 OA
ATOM     14  C   UNL d   1      56.184  49.562  50.437  0.00  0.00     0.142 A 
ATOM     15  C   UNL d   1      56.936  49.541  50.780  0.00  0.00     0.118 A 
ENDBRANCH   7  10
ENDBRANCH   1   7
BRANCH   3  16
ATOM     16  C   UNL d   1      61.183  49.201  50.402  0.00  0.00     0.002 C 
ATOM     17  C   UNL d   1      61.929  49.166  50.751  0.00  0.00     0.000 C 
BRANCH  16  18
ATOM     18  C   UNL d   1      61.098  49.069  49.591  0.00  0.00     0.000 C 
ATOM     19  C   UNL d   1      60.847  49.679  49.095  0.00  0.00     0.000 C 
ENDBRANCH  16  18
ENDBRANCH   3  16
BRANCH   4  20
ATOM     20  O   UNL d   1      61.365  49.494  52.014  0.00  0.00    -0.328 OA
ATOM     21  C   UNL d   1      61.459  49.657  52.817  0.00  0.00     0.181 C 
ENDBRANCH   4  20
TORSDOF 5
ENDMDL
