MODEL 1
REMARK VINA RESULT:      56.3      0.000      0.000
REMARK  8 active torsions:
REMARK  status: ('A' for Active; 'I' for Inactive)
REMARK    1  A    between atoms: C_7  and  N_1 
REMARK    2  A    between atoms: C_2  and  C_5 
REMARK    3  A    between atoms: C_9  and  C_4 
REMARK       I    between atoms: N_20  and  C_9 
REMARK    4  A    between atoms: O_25  and  C_14 
REMARK    5  A    between atoms: O_26  and  C_16 
REMARK    6  A    between atoms: C_27  and  N_20 
REMARK    7  A    between atoms: C_23  and  C_28 
REMARK    8  A    between atoms: C_28  and  C_27 
ROOT
ATOM      1  C   UNL d   1     -47.902  30.063  34.926  0.00  0.00     0.101 A 
ATOM      2  O   UNL d   1     -48.472  29.503  34.720  0.00  0.00    -0.302 OA
ATOM      3  C   UNL d   1     -48.330  28.828  35.168  0.00  0.00     0.158 A 
ATOM      4  C   UNL d   1     -47.410  29.743  35.494  0.00  0.00     0.027 A 
ATOM      5  C   UNL d   1     -47.674  28.969  35.650  0.00  0.00     0.032 A 
ENDROOT
BRANCH   3   6
ATOM      6  C   UNL d   1     -48.766  28.128  35.143  0.00  0.00     0.302 C 
ATOM      7  O   UNL d   1     -48.944  27.726  35.837  0.00  0.00    -0.263 OA
ATOM      8  N   UNL d   1     -49.023  27.834  34.418  0.00  0.00    -0.205 NA
BRANCH   8   9
ATOM      9  C   UNL d   1     -49.461  27.131  34.393  0.00  0.00     0.102 C 
BRANCH   9  10
ATOM     10  C   UNL d   1     -49.775  26.863  33.680  0.00  0.00     0.021 C 
BRANCH  10  11
ATOM     11  C   UNL d   1     -50.033  26.090  33.609  0.00  0.00     0.004 A 
ATOM     12  C   UNL d   1     -50.835  25.938  33.517  0.00  0.00     0.026 A 
ATOM     13  C   UNL d   1     -51.096  25.158  33.446  0.00  0.00     0.116 A 
ATOM     14  C   UNL d   1     -50.552  24.535  33.467  0.00  0.00     0.116 A 
ATOM     15  C   UNL d   1     -49.750  24.692  33.559  0.00  0.00     0.026 A 
ATOM     16  C   UNL d   1     -49.490  25.472  33.630  0.00  0.00     0.002 A 
BRANCH  13  17
ATOM     17  O   UNL d   1     -51.903  24.998  33.353  0.00  0.00    -0.326 OA
ATOM     18  C   UNL d   1     -52.457  25.430  33.790  0.00  0.00     0.181 C 
ENDBRANCH  13  17
BRANCH  14  19
ATOM     19  O   UNL d   1     -50.813  23.759  33.396  0.00  0.00    -0.326 OA
ATOM     20  C   UNL d   1     -51.454  23.498  33.840  0.00  0.00     0.181 C 
ENDBRANCH  14  19
ENDBRANCH  10  11
ENDBRANCH   9  10
ENDBRANCH   8   9
ENDBRANCH   3   6
BRANCH   1  21
ATOM     21  C   UNL d   1     -47.846  30.821  34.604  0.00  0.00     0.034 A 
ATOM     22  C   UNL d   1     -48.176  30.992  33.864  0.00  0.00     0.004 A 
ATOM     23  C   UNL d   1     -48.112  31.754  33.553  0.00  0.00     0.024 A 
ATOM     24  C   UNL d   1     -47.724  32.340  33.975  0.00  0.00     0.128 A 
ATOM     25  C   UNL d   1     -47.395  32.169  34.715  0.00  0.00     0.035 A 
ATOM     26  C   UNL d   1     -47.454  31.412  35.030  0.00  0.00     0.061 A 
ATOM     27 CL   UNL d   1     -47.125  31.249  35.764  0.00  0.00    -0.082 Cl
BRANCH  24  28
ATOM     28  N   UNL d   1     -47.660  33.105  33.664  0.00  0.00    -0.114 N 
ATOM     29  O   UNL d   1     -48.315  33.476  33.331  0.00  0.00    -0.532 OA
ATOM     30  O   UNL d   1     -46.935  33.496  33.689  0.00  0.00    -0.532 OA
ENDBRANCH  24  28
ENDBRANCH   1  21
TORSDOF 8
ENDMDL
