MODEL 1
REMARK VINA RESULT:      -2.6      0.000      0.000
REMARK  4 active torsions:
REMARK  status: ('A' for Active; 'I' for Inactive)
REMARK    1  A    between atoms: C_2  and  C_1 
REMARK       I    between atoms: N_9  and  C_2 
REMARK    2  A    between atoms: N_4  and  C_14 
REMARK    3  A    between atoms: C_13  and  N_9 
REMARK    4  A    between atoms: C_14  and  C_13 
ROOT
ATOM      1  C   UNL d   1      32.570  16.395 -24.577  0.00  0.00     0.281 C 
ATOM      2  O   UNL d   1      33.241  15.967 -24.786  0.00  0.00    -0.265 OA
ATOM      3  N   UNL d   1      31.821  16.140 -24.812  0.00  0.00    -0.205 NA
ENDROOT
BRANCH   1   4
ATOM      4  C   UNL d   1      32.647  17.089 -24.125  0.00  0.00     0.077 A 
ATOM      5  C   UNL d   1      32.629  17.046 -23.301  0.00  0.00     0.105 A 
ATOM      6  N   UNL d   1      32.705  17.730 -22.852  0.00  0.00    -0.233 NA
ATOM      7  C   UNL d   1      32.799  18.462 -23.225  0.00  0.00     0.139 A 
ATOM      8  C   UNL d   1      32.818  18.507 -24.045  0.00  0.00     0.031 A 
ATOM      9 CL   UNL d   1      32.877  19.161 -22.774  0.00  0.00    -0.061 Cl
ATOM     10  C   UNL d   1      32.742  17.821 -24.498  0.00  0.00     0.009 A 
ENDBRANCH   1   4
BRANCH   3  11
ATOM     11  C   UNL d   1      31.149  16.567 -24.603  0.00  0.00     0.121 C 
BRANCH  11  12
ATOM     12  C   UNL d   1      30.418  16.385 -24.931  0.00  0.00     0.101 C 
BRANCH  12  13
ATOM     13  N   UNL d   1      29.727  16.648 -24.569  0.00  0.00    -0.298 N 
ATOM     14  C   UNL d   1      29.348  16.177 -24.014  0.00  0.00     0.107 A 
ATOM     15  C   UNL d   1      28.650  16.442 -23.649  0.00  0.00     0.142 A 
ATOM     16  O   UNL d   1      28.338  17.176 -23.841  0.00  0.00    -0.300 OA
ATOM     17  C   UNL d   1      28.718  17.656 -24.402  0.00  0.00     0.142 A 
ATOM     18  C   UNL d   1      29.415  17.390 -24.767  0.00  0.00     0.107 A 
ENDBRANCH  12  13
ENDBRANCH  11  12
ENDBRANCH   3  11
TORSDOF 4
ENDMDL
MODEL 2
REMARK VINA RESULT:      -1.6      1.629      3.829
REMARK  4 active torsions:
REMARK  status: ('A' for Active; 'I' for Inactive)
REMARK    1  A    between atoms: C_2  and  C_1 
REMARK       I    between atoms: N_9  and  C_2 
REMARK    2  A    between atoms: N_4  and  C_14 
REMARK    3  A    between atoms: C_13  and  N_9 
REMARK    4  A    between atoms: C_14  and  C_13 
ROOT
ATOM      1  C   UNL d   1      29.002  15.870 -23.426  0.00  0.00     0.281 C 
ATOM      2  O   UNL d   1      28.330  15.453 -23.196  0.00  0.00    -0.265 OA
ATOM      3  N   UNL d   1      29.754  15.585 -23.243  0.00  0.00    -0.205 NA
ENDROOT
BRANCH   1   4
ATOM      4  C   UNL d   1      28.920  16.584 -23.846  0.00  0.00     0.077 A 
ATOM      5  C   UNL d   1      28.795  17.289 -23.435  0.00  0.00     0.105 A 
ATOM      6  N   UNL d   1      28.715  17.995 -23.847  0.00  0.00    -0.233 NA
ATOM      7  C   UNL d   1      28.759  18.001 -24.673  0.00  0.00     0.139 A 
ATOM      8  C   UNL d   1      28.884  17.300 -25.083  0.00  0.00     0.031 A 
ATOM      9 CL   UNL d   1      28.678  18.715 -25.097  0.00  0.00    -0.061 Cl
ATOM     10  C   UNL d   1      28.965  16.590 -24.671  0.00  0.00     0.009 A 
ENDBRANCH   1   4
BRANCH   3  11
ATOM     11  C   UNL d   1      30.426  16.001 -23.473  0.00  0.00     0.121 C 
BRANCH  11  12
ATOM     12  C   UNL d   1      31.172  15.764 -23.222  0.00  0.00     0.101 C 
BRANCH  12  13
ATOM     13  N   UNL d   1      31.843  16.042 -23.608  0.00  0.00    -0.298 N 
ATOM     14  C   UNL d   1      32.215  16.726 -23.346  0.00  0.00     0.107 A 
ATOM     15  C   UNL d   1      32.894  17.007 -23.735  0.00  0.00     0.142 A 
ATOM     16  O   UNL d   1      33.194  16.602 -24.383  0.00  0.00    -0.300 OA
ATOM     17  C   UNL d   1      32.822  15.911 -24.651  0.00  0.00     0.142 A 
ATOM     18  C   UNL d   1      32.144  15.630 -24.262  0.00  0.00     0.107 A 
ENDBRANCH  12  13
ENDBRANCH  11  12
ENDBRANCH   3  11
TORSDOF 4
ENDMDL
MODEL 3
REMARK VINA RESULT:      -1.2      2.696      4.283
REMARK  4 active torsions:
REMARK  status: ('A' for Active; 'I' for Inactive)
REMARK    1  A    between atoms: C_2  and  C_1 
REMARK       I    between atoms: N_9  and  C_2 
REMARK    2  A    between atoms: N_4  and  C_14 
REMARK    3  A    between atoms: C_13  and  N_9 
REMARK    4  A    between atoms: C_14  and  C_13 
ROOT
ATOM      1  C   UNL d   1      32.944  18.940 -24.308  0.00  0.00     0.281 C 
ATOM      2  O   UNL d   1      33.231  18.966 -25.079  0.00  0.00    -0.265 OA
ATOM      3  N   UNL d   1      33.102  19.554 -23.781  0.00  0.00    -0.205 NA
ENDROOT
BRANCH   1   4
ATOM      4  C   UNL d   1      32.489  18.288 -24.059  0.00  0.00     0.077 A 
ATOM      5  C   UNL d   1      32.838  17.697 -23.600  0.00  0.00     0.105 A 
ATOM      6  N   UNL d   1      32.392  17.053 -23.353  0.00  0.00    -0.233 NA
ATOM      7  C   UNL d   1      31.594  16.996 -23.563  0.00  0.00     0.139 A 
ATOM      8  C   UNL d   1      31.245  17.584 -24.020  0.00  0.00     0.031 A 
ATOM      9 CL   UNL d   1      31.135  16.344 -23.315  0.00  0.00    -0.061 Cl
ATOM     10  C   UNL d   1      31.691  18.231 -24.269  0.00  0.00     0.009 A 
ENDBRANCH   1   4
BRANCH   3  11
ATOM     11  C   UNL d   1      32.815  19.529 -23.010  0.00  0.00     0.121 C 
BRANCH  11  12
ATOM     12  C   UNL d   1      33.241  19.864 -22.393  0.00  0.00     0.101 C 
BRANCH  12  13
ATOM     13  N   UNL d   1      32.946  20.523 -21.998  0.00  0.00    -0.298 N 
ATOM     14  C   UNL d   1      33.174  21.277 -22.229  0.00  0.00     0.107 A 
ATOM     15  C   UNL d   1      32.876  21.943 -21.831  0.00  0.00     0.142 A 
ATOM     16  O   UNL d   1      32.353  21.849 -21.205  0.00  0.00    -0.300 OA
ATOM     17  C   UNL d   1      32.119  21.089 -20.969  0.00  0.00     0.142 A 
ATOM     18  C   UNL d   1      32.417  20.423 -21.367  0.00  0.00     0.107 A 
ENDBRANCH  12  13
ENDBRANCH  11  12
ENDBRANCH   3  11
TORSDOF 4
ENDMDL
MODEL 4
REMARK VINA RESULT:      -1.0      3.392      4.806
REMARK  4 active torsions:
REMARK  status: ('A' for Active; 'I' for Inactive)
REMARK    1  A    between atoms: C_2  and  C_1 
REMARK       I    between atoms: N_9  and  C_2 
REMARK    2  A    between atoms: N_4  and  C_14 
REMARK    3  A    between atoms: C_13  and  N_9 
REMARK    4  A    between atoms: C_14  and  C_13 
ROOT
ATOM      1  C   UNL d   1      32.865  20.628 -20.821  0.00  0.00     0.281 C 
ATOM      2  O   UNL d   1      32.960  20.569 -20.006  0.00  0.00    -0.265 OA
ATOM      3  N   UNL d   1      32.945  19.962 -21.302  0.00  0.00    -0.205 NA
ENDROOT
BRANCH   1   4
ATOM      4  C   UNL d   1      32.686  21.365 -21.164  0.00  0.00     0.077 A 
ATOM      5  C   UNL d   1      31.955  21.719 -21.018  0.00  0.00     0.105 A 
ATOM      6  N   UNL d   1      31.776  22.447 -21.355  0.00  0.00    -0.233 NA
ATOM      7  C   UNL d   1      32.328  22.825 -21.841  0.00  0.00     0.139 A 
ATOM      8  C   UNL d   1      33.057  22.475 -21.988  0.00  0.00     0.031 A 
ATOM      9 CL   UNL d   1      32.152  23.565 -22.186  0.00  0.00    -0.061 Cl
ATOM     10  C   UNL d   1      33.238  21.744 -21.650  0.00  0.00     0.009 A 
ENDBRANCH   1   4
BRANCH   3  11
ATOM     11  C   UNL d   1      32.850  20.019 -22.117  0.00  0.00     0.121 C 
BRANCH  11  12
ATOM     12  C   UNL d   1      33.231  19.495 -22.621  0.00  0.00     0.101 C 
BRANCH  12  13
ATOM     13  N   UNL d   1      32.819  19.149 -23.244  0.00  0.00    -0.298 N 
ATOM     14  C   UNL d   1      32.904  19.440 -24.007  0.00  0.00     0.107 A 
ATOM     15  C   UNL d   1      32.488  19.091 -24.635  0.00  0.00     0.142 A 
ATOM     16  O   UNL d   1      31.991  18.453 -24.496  0.00  0.00    -0.300 OA
ATOM     17  C   UNL d   1      31.902  18.155 -23.727  0.00  0.00     0.142 A 
ATOM     18  C   UNL d   1      32.318  18.504 -23.098  0.00  0.00     0.107 A 
ENDBRANCH  12  13
ENDBRANCH  11  12
ENDBRANCH   3  11
TORSDOF 4
ENDMDL
MODEL 5
REMARK VINA RESULT:      -0.9      1.945      3.752
REMARK  4 active torsions:
REMARK  status: ('A' for Active; 'I' for Inactive)
REMARK    1  A    between atoms: C_2  and  C_1 
REMARK       I    between atoms: N_9  and  C_2 
REMARK    2  A    between atoms: N_4  and  C_14 
REMARK    3  A    between atoms: C_13  and  N_9 
REMARK    4  A    between atoms: C_14  and  C_13 
ROOT
ATOM      1  C   UNL d   1      30.950  16.137 -23.470  0.00  0.00     0.281 C 
ATOM      2  O   UNL d   1      30.900  15.476 -22.982  0.00  0.00    -0.265 OA
ATOM      3  N   UNL d   1      31.665  16.539 -23.558  0.00  0.00    -0.205 NA
ENDROOT
BRANCH   1   4
ATOM      4  C   UNL d   1      30.274  16.402 -23.878  0.00  0.00     0.077 A 
ATOM      5  C   UNL d   1      30.091  16.084 -24.617  0.00  0.00     0.105 A 
ATOM      6  N   UNL d   1      29.425  16.344 -25.022  0.00  0.00    -0.233 NA
ATOM      7  C   UNL d   1      28.937  16.923 -24.689  0.00  0.00     0.139 A 
ATOM      8  C   UNL d   1      29.118  17.241 -23.953  0.00  0.00     0.031 A 
ATOM      9 CL   UNL d   1      28.259  17.191 -25.095  0.00  0.00    -0.061 Cl
ATOM     10  C   UNL d   1      29.787  16.981 -23.545  0.00  0.00     0.009 A 
ENDBRANCH   1   4
BRANCH   3  11
ATOM     11  C   UNL d   1      31.717  17.200 -24.046  0.00  0.00     0.121 C 
BRANCH  11  12
ATOM     12  C   UNL d   1      32.437  17.427 -24.368  0.00  0.00     0.101 C 
BRANCH  12  13
ATOM     13  N   UNL d   1      32.704  18.200 -24.276  0.00  0.00    -0.298 N 
ATOM     14  C   UNL d   1      32.952  18.466 -23.540  0.00  0.00     0.107 A 
ATOM     15  C   UNL d   1      33.221  19.246 -23.446  0.00  0.00     0.142 A 
ATOM     16  O   UNL d   1      33.241  19.755 -24.090  0.00  0.00    -0.300 OA
ATOM     17  C   UNL d   1      32.991  19.492 -24.836  0.00  0.00     0.142 A 
ATOM     18  C   UNL d   1      32.722  18.711 -24.930  0.00  0.00     0.107 A 
ENDBRANCH  12  13
ENDBRANCH  11  12
ENDBRANCH   3  11
TORSDOF 4
ENDMDL
MODEL 6
REMARK VINA RESULT:       0.1      5.585      6.633
REMARK  4 active torsions:
REMARK  status: ('A' for Active; 'I' for Inactive)
REMARK    1  A    between atoms: C_2  and  C_1 
REMARK       I    between atoms: N_9  and  C_2 
REMARK    2  A    between atoms: N_4  and  C_14 
REMARK    3  A    between atoms: C_13  and  N_9 
REMARK    4  A    between atoms: C_14  and  C_13 
ROOT
ATOM      1  C   UNL d   1      31.884  21.509 -20.969  0.00  0.00     0.281 C 
ATOM      2  O   UNL d   1      31.226  21.071 -20.738  0.00  0.00    -0.265 OA
ATOM      3  N   UNL d   1      32.214  21.405 -21.719  0.00  0.00    -0.205 NA
ENDROOT
BRANCH   1   4
ATOM      4  C   UNL d   1      32.220  22.060 -20.443  0.00  0.00     0.077 A 
ATOM      5  C   UNL d   1      32.876  21.846 -19.990  0.00  0.00     0.105 A 
ATOM      6  N   UNL d   1      33.209  22.388 -19.470  0.00  0.00    -0.233 NA
ATOM      7  C   UNL d   1      32.887  23.147 -19.399  0.00  0.00     0.139 A 
ATOM      8  C   UNL d   1      32.234  23.361 -19.849  0.00  0.00     0.031 A 
ATOM      9 CL   UNL d   1      33.221  23.701 -18.872  0.00  0.00    -0.061 Cl
ATOM     10  C   UNL d   1      31.898  22.818 -20.372  0.00  0.00     0.009 A 
ENDBRANCH   1   4
BRANCH   3  11
ATOM     11  C   UNL d   1      32.871  21.842 -21.951  0.00  0.00     0.121 C 
BRANCH  11  12
ATOM     12  C   UNL d   1      33.233  21.703 -22.675  0.00  0.00     0.101 C 
BRANCH  12  13
ATOM     13  N   UNL d   1      33.226  22.284 -23.257  0.00  0.00    -0.298 N 
ATOM     14  C   UNL d   1      33.208  22.073 -24.050  0.00  0.00     0.107 A 
ATOM     15  C   UNL d   1      33.202  22.661 -24.638  0.00  0.00     0.142 A 
ATOM     16  O   UNL d   1      33.214  23.454 -24.428  0.00  0.00    -0.300 OA
ATOM     17  C   UNL d   1      33.232  23.672 -23.628  0.00  0.00     0.142 A 
ATOM     18  C   UNL d   1      33.238  23.085 -23.040  0.00  0.00     0.107 A 
ENDBRANCH  12  13
ENDBRANCH  11  12
ENDBRANCH   3  11
TORSDOF 4
ENDMDL
