MODEL 1
REMARK VINA RESULT:      76.6      0.000      0.000
REMARK  5 active torsions:
REMARK  status: ('A' for Active; 'I' for Inactive)
REMARK    1  A    between atoms: N_6  and  S_1 
REMARK    2  A    between atoms: C_11  and  S_1 
REMARK    3  A    between atoms: C_2  and  N_8 
REMARK    4  A    between atoms: C_10  and  C_3 
REMARK       I    between atoms: N_8  and  C_9 
REMARK    5  A    between atoms: C_9  and  C_17 
REMARK       I    between atoms: N_26  and  C_10 
ROOT
ATOM      1  N   UNL d   1      14.267  14.880  -3.391  0.00  0.00    -0.201 NA
ATOM      2  C   UNL d   1      14.595  15.590  -3.100  0.00  0.00     0.280 C 
ATOM      3  O   UNL d   1      14.911  15.610  -2.331  0.00  0.00    -0.265 OA
ENDROOT
BRANCH   2   4
ATOM      4  C   UNL d   1      14.601  16.264  -3.581  0.00  0.00     0.058 A 
ATOM      5  C   UNL d   1      14.553  17.003  -3.217  0.00  0.00     0.005 A 
ATOM      6  C   UNL d   1      14.559  17.686  -3.690  0.00  0.00     0.013 A 
ATOM      7  C   UNL d   1      14.611  17.619  -4.513  0.00  0.00     0.104 A 
ATOM      8  C   UNL d   1      14.659  16.866  -4.861  0.00  0.00     0.013 A 
ATOM      9  C   UNL d   1      14.653  16.190  -4.383  0.00  0.00     0.005 A 
BRANCH   7  10
ATOM     10  S   UNL d   1      14.617  18.294  -4.982  0.00  0.00     0.271 S 
ATOM     11  O   UNL d   1      13.832  18.449  -4.811  0.00  0.00    -0.200 OA
ATOM     12  O   UNL d   1      15.416  18.128  -5.151  0.00  0.00    -0.200 OA
BRANCH  10  13
ATOM     13  N   UNL d   1      14.624  18.960  -5.446  0.00  0.00    -0.231 N 
ATOM     14  C   UNL d   1      13.986  19.148  -5.924  0.00  0.00     0.075 A 
ATOM     15  C   UNL d   1      13.323  18.653  -5.936  0.00  0.00     0.020 C 
ATOM     16  C   UNL d   1      14.000  19.822  -6.389  0.00  0.00     0.018 A 
ATOM     17  C   UNL d   1      14.663  20.317  -6.376  0.00  0.00     0.003 A 
ATOM     18  C   UNL d   1      15.300  20.132  -5.901  0.00  0.00     0.020 A 
ATOM     19  C   UNL d   1      15.273  19.459  -5.443  0.00  0.00     0.092 A 
ENDBRANCH  10  13
ENDBRANCH   7  10
ENDBRANCH   2   4
BRANCH   1  20
ATOM     20  C   UNL d   1      14.263  14.208  -2.905  0.00  0.00     0.119 A 
ATOM     21  C   UNL d   1      13.891  13.494  -3.093  0.00  0.00     0.082 A 
ATOM     22  C   UNL d   1      14.012  12.967  -2.474  0.00  0.00     0.016 A 
ATOM     23  C   UNL d   1      13.774  12.191  -2.361  0.00  0.00     0.020 A 
ATOM     24  C   UNL d   1      14.461  13.351  -1.899  0.00  0.00     0.049 A 
ATOM     25  C   UNL d   1      13.984  11.793  -1.666  0.00  0.00     0.080 A 
ATOM     26  N   UNL d   1      14.434  12.172  -1.085  0.00  0.00    -0.301 N 
ATOM     27  C   UNL d   1      14.669  12.953  -1.210  0.00  0.00     0.087 A 
ATOM     28  C   UNL d   1      14.641  11.779  -0.402  0.00  0.00     0.100 C 
ATOM     29  S   UNL d   1      14.615  14.122  -2.171  0.00  0.00    -0.066 SA
BRANCH  21  30
ATOM     30  C   UNL d   1      13.469  13.330  -3.779  0.00  0.00     0.281 C 
ATOM     31  O   UNL d   1      12.909  13.851  -4.030  0.00  0.00    -0.265 OA
ATOM     32  N   UNL d   1      13.621  12.638  -4.200  0.00  0.00    -0.205 NA
ATOM     33  C   UNL d   1      13.207  12.460  -4.887  0.00  0.00     0.123 C 
ENDBRANCH  21  30
ENDBRANCH   1  20
TORSDOF 5
ENDMDL
