MODEL 1
REMARK VINA RESULT:      -1.1      0.000      0.000
REMARK  5 active torsions:
REMARK  status: ('A' for Active; 'I' for Inactive)
REMARK    1  A    between atoms: N_2  and  C_1 
REMARK       I    between atoms: C_7  and  N_2 
REMARK    2  A    between atoms: C_17  and  N_3 
REMARK    3  A    between atoms: C_14  and  C_7 
REMARK       I    between atoms: C_10  and  N_11 
REMARK    4  A    between atoms: N_11  and  C_12 
REMARK    5  A    between atoms: C_16  and  C_17 
ROOT
ATOM      1  C   UNL d   1      58.583  -1.362  29.809  0.00  0.00     0.182 A 
ATOM      2  N   UNL d   1      58.607  -0.543  29.757  0.00  0.00    -0.285 N 
ATOM      3  S   UNL d   1      57.996  -1.565  30.351  0.00  0.00    -0.048 SA
ATOM      4  C   UNL d   1      57.655  -0.866  30.636  0.00  0.00     0.050 A 
ATOM      5  C   UNL d   1      58.034  -0.231  30.268  0.00  0.00     0.072 A 
ATOM      6  C   UNL d   1      57.052  -0.727  31.180  0.00  0.00     0.027 A 
ATOM      7  C   UNL d   1      57.811   0.543  30.443  0.00  0.00     0.020 A 
ATOM      8  C   UNL d   1      56.828   0.047  31.357  0.00  0.00     0.085 A 
ATOM      9  C   UNL d   1      57.207   0.682  30.988  0.00  0.00     0.021 A 
ENDROOT
BRANCH   1  10
ATOM     10  N   UNL d   1      59.066  -1.884  29.388  0.00  0.00    -0.184 NA
ATOM     11  C   UNL d   1      59.237  -2.625  29.707  0.00  0.00     0.281 C 
ATOM     12  O   UNL d   1      58.927  -2.838  30.440  0.00  0.00    -0.265 OA
BRANCH  11  13
ATOM     13  C   UNL d   1      59.719  -3.152  29.293  0.00  0.00     0.058 A 
ATOM     14  C   UNL d   1      60.549  -3.057  29.287  0.00  0.00     0.005 A 
ATOM     15  C   UNL d   1      61.031  -3.584  28.873  0.00  0.00     0.000 A 
ATOM     16  C   UNL d   1      60.691  -4.215  28.457  0.00  0.00     0.000 A 
ATOM     17  C   UNL d   1      59.872  -4.309  28.463  0.00  0.00     0.000 A 
ATOM     18  C   UNL d   1      59.390  -3.782  28.877  0.00  0.00     0.005 A 
ENDBRANCH  11  13
ENDBRANCH   1  10
BRANCH   2  19
ATOM     19  C   UNL d   1      59.114  -0.097  29.280  0.00  0.00     0.082 C 
BRANCH  19  20
ATOM     20  C   UNL d   1      59.836   0.171  29.572  0.00  0.00     0.019 C 
ATOM     21  C   UNL d   1      60.452   0.347  29.055  0.00  0.00     0.002 C 
ENDBRANCH  19  20
ENDBRANCH   2  19
BRANCH   8  22
ATOM     22  N   UNL d   1      56.215   0.191  31.909  0.00  0.00    -0.208 NA
ATOM     23  C   UNL d   1      56.400   0.318  32.695  0.00  0.00     0.279 C 
ATOM     24  O   UNL d   1      55.795   0.459  33.236  0.00  0.00    -0.265 OA
ATOM     25  C   UNL d   1      57.184   0.306  32.954  0.00  0.00     0.068 C 
ENDBRANCH   8  22
TORSDOF 5
ENDMDL
MODEL 2
REMARK VINA RESULT:      -0.9      1.158      4.727
REMARK  5 active torsions:
REMARK  status: ('A' for Active; 'I' for Inactive)
REMARK    1  A    between atoms: N_2  and  C_1 
REMARK       I    between atoms: C_7  and  N_2 
REMARK    2  A    between atoms: C_17  and  N_3 
REMARK    3  A    between atoms: C_14  and  C_7 
REMARK       I    between atoms: C_10  and  N_11 
REMARK    4  A    between atoms: N_11  and  C_12 
REMARK    5  A    between atoms: C_16  and  C_17 
ROOT
ATOM      1  C   UNL d   1      57.738  -0.693  30.731  0.00  0.00     0.182 A 
ATOM      2  N   UNL d   1      58.347  -0.412  30.256  0.00  0.00    -0.285 N 
ATOM      3  S   UNL d   1      57.614  -1.486  30.543  0.00  0.00    -0.048 SA
ATOM      4  C   UNL d   1      58.150  -1.696  29.946  0.00  0.00     0.050 A 
ATOM      5  C   UNL d   1      58.604  -1.030  29.768  0.00  0.00     0.072 A 
ATOM      6  C   UNL d   1      58.280  -2.404  29.546  0.00  0.00     0.027 A 
ATOM      7  C   UNL d   1      59.190  -1.071  29.190  0.00  0.00     0.020 A 
ATOM      8  C   UNL d   1      58.866  -2.447  28.967  0.00  0.00     0.085 A 
ATOM      9  C   UNL d   1      59.321  -1.781  28.789  0.00  0.00     0.021 A 
ENDROOT
BRANCH   1  10
ATOM     10  N   UNL d   1      57.329  -0.251  31.296  0.00  0.00    -0.184 NA
ATOM     11  C   UNL d   1      56.972  -0.637  31.932  0.00  0.00     0.281 C 
ATOM     12  O   UNL d   1      57.026  -1.457  31.997  0.00  0.00    -0.265 OA
BRANCH  11  13
ATOM     13  C   UNL d   1      56.560  -0.203  32.501  0.00  0.00     0.058 A 
ATOM     14  C   UNL d   1      56.968   0.191  33.114  0.00  0.00     0.005 A 
ATOM     15  C   UNL d   1      56.557   0.626  33.683  0.00  0.00     0.000 A 
ATOM     16  C   UNL d   1      55.731   0.672  33.649  0.00  0.00     0.000 A 
ATOM     17  C   UNL d   1      55.328   0.283  33.045  0.00  0.00     0.000 A 
ATOM     18  C   UNL d   1      55.739  -0.151  32.475  0.00  0.00     0.005 A 
ENDBRANCH  11  13
ENDBRANCH   1  10
BRANCH   2  19
ATOM     19  C   UNL d   1      58.655   0.355  30.258  0.00  0.00     0.082 C 
BRANCH  19  20
ATOM     20  C   UNL d   1      59.466   0.480  30.183  0.00  0.00     0.019 C 
ATOM     21  C   UNL d   1      59.916   0.681  30.842  0.00  0.00     0.002 C 
ENDBRANCH  19  20
ENDBRANCH   2  19
BRANCH   8  22
ATOM     22  N   UNL d   1      59.000  -3.165  28.558  0.00  0.00    -0.208 NA
ATOM     23  C   UNL d   1      59.529  -3.710  28.860  0.00  0.00     0.279 C 
ATOM     24  O   UNL d   1      59.659  -4.416  28.456  0.00  0.00    -0.265 OA
ATOM     25  C   UNL d   1      59.934  -3.564  29.564  0.00  0.00     0.068 C 
ENDBRANCH   8  22
TORSDOF 5
ENDMDL
MODEL 3
REMARK VINA RESULT:       0.1      1.335      1.873
REMARK  5 active torsions:
REMARK  status: ('A' for Active; 'I' for Inactive)
REMARK    1  A    between atoms: N_2  and  C_1 
REMARK       I    between atoms: C_7  and  N_2 
REMARK    2  A    between atoms: C_17  and  N_3 
REMARK    3  A    between atoms: C_14  and  C_7 
REMARK       I    between atoms: C_10  and  N_11 
REMARK    4  A    between atoms: N_11  and  C_12 
REMARK    5  A    between atoms: C_16  and  C_17 
ROOT
ATOM      1  C   UNL d   1      57.837  -0.933  31.131  0.00  0.00     0.182 A 
ATOM      2  N   UNL d   1      57.938  -0.182  31.449  0.00  0.00    -0.285 N 
ATOM      3  S   UNL d   1      57.110  -1.223  31.389  0.00  0.00    -0.048 SA
ATOM      4  C   UNL d   1      56.759  -0.647  31.870  0.00  0.00     0.050 A 
ATOM      5  C   UNL d   1      57.272  -0.001  31.908  0.00  0.00     0.072 A 
ATOM      6  C   UNL d   1      56.042  -0.629  32.276  0.00  0.00     0.027 A 
ATOM      7  C   UNL d   1      57.070   0.664  32.351  0.00  0.00     0.020 A 
ATOM      8  C   UNL d   1      55.838   0.036  32.720  0.00  0.00     0.085 A 
ATOM      9  C   UNL d   1      56.352   0.682  32.757  0.00  0.00     0.021 A 
ENDROOT
BRANCH   1  10
ATOM     10  N   UNL d   1      58.376  -1.321  30.639  0.00  0.00    -0.184 NA
ATOM     11  C   UNL d   1      58.105  -1.693  29.955  0.00  0.00     0.281 C 
ATOM     12  O   UNL d   1      57.303  -1.673  29.767  0.00  0.00    -0.265 OA
BRANCH  11  13
ATOM     13  C   UNL d   1      58.637  -2.083  29.458  0.00  0.00     0.058 A 
ATOM     14  C   UNL d   1      58.586  -2.908  29.343  0.00  0.00     0.005 A 
ATOM     15  C   UNL d   1      59.117  -3.299  28.846  0.00  0.00     0.000 A 
ATOM     16  C   UNL d   1      59.709  -2.870  28.456  0.00  0.00     0.000 A 
ATOM     17  C   UNL d   1      59.759  -2.055  28.569  0.00  0.00     0.000 A 
ATOM     18  C   UNL d   1      59.227  -1.664  29.066  0.00  0.00     0.005 A 
ENDBRANCH  11  13
ENDBRANCH   1  10
BRANCH   2  19
ATOM     19  C   UNL d   1      58.589   0.314  31.336  0.00  0.00     0.082 C 
BRANCH  19  20
ATOM     20  C   UNL d   1      59.323   0.122  31.657  0.00  0.00     0.019 C 
ATOM     21  C   UNL d   1      59.927   0.681  31.672  0.00  0.00     0.002 C 
ENDBRANCH  19  20
ENDBRANCH   2  19
BRANCH   8  22
ATOM     22  N   UNL d   1      55.110   0.057  33.133  0.00  0.00    -0.208 NA
ATOM     23  C   UNL d   1      55.100   0.255  33.926  0.00  0.00     0.279 C 
ATOM     24  O   UNL d   1      54.382   0.275  34.331  0.00  0.00    -0.265 OA
ATOM     25  C   UNL d   1      55.799   0.434  34.328  0.00  0.00     0.068 C 
ENDBRANCH   8  22
TORSDOF 5
ENDMDL
MODEL 4
REMARK VINA RESULT:       1.9      1.379      4.888
REMARK  5 active torsions:
REMARK  status: ('A' for Active; 'I' for Inactive)
REMARK    1  A    between atoms: N_2  and  C_1 
REMARK       I    between atoms: C_7  and  N_2 
REMARK    2  A    between atoms: C_17  and  N_3 
REMARK    3  A    between atoms: C_14  and  C_7 
REMARK       I    between atoms: C_10  and  N_11 
REMARK    4  A    between atoms: N_11  and  C_12 
REMARK    5  A    between atoms: C_16  and  C_17 
ROOT
ATOM      1  C   UNL d   1      59.343  -1.675  29.674  0.00  0.00     0.182 A 
ATOM      2  N   UNL d   1      60.103  -1.623  29.364  0.00  0.00    -0.285 N 
ATOM      3  S   UNL d   1      59.091  -2.456  29.598  0.00  0.00    -0.048 SA
ATOM      4  C   UNL d   1      59.700  -2.890  29.239  0.00  0.00     0.050 A 
ATOM      5  C   UNL d   1      60.327  -2.373  29.094  0.00  0.00     0.072 A 
ATOM      6  C   UNL d   1      59.761  -3.684  29.028  0.00  0.00     0.027 A 
ATOM      7  C   UNL d   1      61.017  -2.650  28.737  0.00  0.00     0.020 A 
ATOM      8  C   UNL d   1      60.451  -3.962  28.671  0.00  0.00     0.085 A 
ATOM      9  C   UNL d   1      61.078  -3.445  28.525  0.00  0.00     0.021 A 
ENDROOT
BRANCH   1  10
ATOM     10  N   UNL d   1      58.915  -1.049  30.001  0.00  0.00    -0.184 NA
ATOM     11  C   UNL d   1      58.202  -1.203  30.386  0.00  0.00     0.281 C 
ATOM     12  O   UNL d   1      57.924  -1.977  30.440  0.00  0.00    -0.265 OA
BRANCH  11  13
ATOM     13  C   UNL d   1      57.768  -0.583  30.716  0.00  0.00     0.058 A 
ATOM     14  C   UNL d   1      57.198  -0.174  30.263  0.00  0.00     0.005 A 
ATOM     15  C   UNL d   1      56.764   0.447  30.594  0.00  0.00     0.000 A 
ATOM     16  C   UNL d   1      56.893   0.668  31.381  0.00  0.00     0.000 A 
ATOM     17  C   UNL d   1      57.456   0.263  31.828  0.00  0.00     0.000 A 
ATOM     18  C   UNL d   1      57.890  -0.357  31.498  0.00  0.00     0.005 A 
ENDBRANCH  11  13
ENDBRANCH   1  10
BRANCH   2  19
ATOM     19  C   UNL d   1      60.570  -0.942  29.325  0.00  0.00     0.082 C 
BRANCH  19  20
ATOM     20  C   UNL d   1      60.272  -0.248  28.995  0.00  0.00     0.019 C 
ATOM     21  C   UNL d   1      60.781   0.366  28.793  0.00  0.00     0.002 C 
ENDBRANCH  19  20
ENDBRANCH   2  19
BRANCH   8  22
ATOM     22  N   UNL d   1      60.516  -4.768  28.455  0.00  0.00    -0.208 NA
ATOM     23  C   UNL d   1      60.854  -5.301  28.975  0.00  0.00     0.279 C 
ATOM     24  O   UNL d   1      60.917  -6.094  28.760  0.00  0.00    -0.265 OA
ATOM     25  C   UNL d   1      61.133  -5.056  29.712  0.00  0.00     0.068 C 
ENDBRANCH   8  22
TORSDOF 5
ENDMDL
