MODEL 1
REMARK VINA RESULT:      39.9      0.000      0.000
REMARK  7 active torsions:
REMARK  status: ('A' for Active; 'I' for Inactive)
REMARK    1  A    between atoms: C_2  and  S_1 
REMARK    2  A    between atoms: N_6  and  S_1 
REMARK    3  A    between atoms: C_14  and  C_4 
REMARK    4  A    between atoms: O_15  and  C_5 
REMARK    5  A    between atoms: C_12  and  N_6 
REMARK    6  A    between atoms: C_13  and  C_12 
REMARK    7  A    between atoms: C_20  and  O_15 
ROOT
ATOM      1  C   UNL d   1     -57.479 -98.873 -44.915  0.00  0.00     0.128 A 
ATOM      2  C   UNL d   1     -57.893 -98.908 -45.627  0.00  0.00     0.015 A 
ATOM      3  C   UNL d   1     -58.714 -98.869 -45.629  0.00  0.00     0.001 A 
ATOM      4  C   UNL d   1     -57.891 -98.799 -44.204  0.00  0.00     0.112 A 
ATOM      5  C   UNL d   1     -59.127 -98.795 -44.919  0.00  0.00     0.002 A 
ATOM      6  C   UNL d   1     -58.712 -98.760 -44.206  0.00  0.00     0.025 A 
ATOM      7  C   UNL d   1     -59.952 -98.756 -44.921  0.00  0.00     0.000 C 
ENDROOT
BRANCH   1   8
ATOM      8  S   UNL d   1     -56.654 -98.913 -44.912  0.00  0.00     0.287 S 
ATOM      9  O   UNL d   1     -56.648 -98.831 -45.735  0.00  0.00    -0.198 OA
ATOM     10  O   UNL d   1     -56.659 -98.994 -44.090  0.00  0.00    -0.198 OA
BRANCH   8  11
ATOM     11  N   UNL d   1     -55.827 -98.952 -44.910  0.00  0.00    -0.155 NA
BRANCH  11  12
ATOM     12  C   UNL d   1     -55.444 -99.607 -45.233  0.00  0.00     0.131 C 
BRANCH  12  13
ATOM     13  C   UNL d   1     -55.203-100.228 -44.744  0.00  0.00     0.101 A 
ATOM     14  N   UNL d   1     -55.190-100.995 -45.038  0.00  0.00    -0.242 NA
ATOM     15  C   UNL d   1     -54.951-101.618 -44.557  0.00  0.00     0.099 A 
ATOM     16  C   UNL d   1     -54.723-101.464 -43.770  0.00  0.00     0.021 A 
ATOM     17  C   UNL d   1     -54.738-100.692 -43.480  0.00  0.00     0.003 A 
ATOM     18  C   UNL d   1     -54.977-100.077 -43.965  0.00  0.00     0.021 A 
ENDBRANCH  12  13
ENDBRANCH  11  12
ENDBRANCH   8  11
ENDBRANCH   1   8
BRANCH   4  19
ATOM     19  O   UNL d   1     -57.477 -98.764 -43.487  0.00  0.00    -0.304 OA
BRANCH  19  20
ATOM     20  C   UNL d   1     -57.782 -99.135 -42.816  0.00  0.00     0.123 C 
ATOM     21  C   UNL d   1     -58.487 -98.859 -42.471  0.00  0.00     0.029 C 
ENDBRANCH  19  20
ENDBRANCH   4  19
BRANCH   3  22
ATOM     22  C   UNL d   1     -59.128 -98.904 -46.342  0.00  0.00     0.000 C 
ATOM     23  C   UNL d   1     -59.936 -99.073 -46.339  0.00  0.00     0.000 C 
ATOM     24  C   UNL d   1     -58.736 -98.771 -47.057  0.00  0.00     0.000 C 
ENDBRANCH   3  22
TORSDOF 7
ENDMDL
MODEL 2
REMARK VINA RESULT:      42.5      0.638      2.164
REMARK  7 active torsions:
REMARK  status: ('A' for Active; 'I' for Inactive)
REMARK    1  A    between atoms: C_2  and  S_1 
REMARK    2  A    between atoms: N_6  and  S_1 
REMARK    3  A    between atoms: C_14  and  C_4 
REMARK    4  A    between atoms: O_15  and  C_5 
REMARK    5  A    between atoms: C_12  and  N_6 
REMARK    6  A    between atoms: C_13  and  C_12 
REMARK    7  A    between atoms: C_20  and  O_15 
ROOT
ATOM      1  C   UNL d   1     -57.325 -98.816 -44.471  0.00  0.00     0.128 A 
ATOM      2  C   UNL d   1     -57.466 -98.829 -43.658  0.00  0.00     0.015 A 
ATOM      3  C   UNL d   1     -58.236 -98.814 -43.372  0.00  0.00     0.001 A 
ATOM      4  C   UNL d   1     -57.961 -98.787 -44.996  0.00  0.00     0.112 A 
ATOM      5  C   UNL d   1     -58.872 -98.785 -43.897  0.00  0.00     0.002 A 
ATOM      6  C   UNL d   1     -58.732 -98.771 -44.710  0.00  0.00     0.025 A 
ATOM      7  C   UNL d   1     -59.647 -98.769 -43.610  0.00  0.00     0.000 C 
ENDROOT
BRANCH   1   8
ATOM      8  S   UNL d   1     -56.551 -98.832 -44.758  0.00  0.00     0.287 S 
ATOM      9  O   UNL d   1     -56.836 -98.755 -45.530  0.00  0.00    -0.198 OA
ATOM     10  O   UNL d   1     -56.266 -98.908 -43.985  0.00  0.00    -0.198 OA
BRANCH   8  11
ATOM     11  N   UNL d   1     -55.776 -98.848 -45.045  0.00  0.00    -0.155 NA
BRANCH  11  12
ATOM     12  C   UNL d   1     -55.161 -99.111 -44.562  0.00  0.00     0.131 C 
BRANCH  12  13
ATOM     13  C   UNL d   1     -55.063 -99.920 -44.420  0.00  0.00     0.101 A 
ATOM     14  N   UNL d   1     -54.817-100.411 -45.030  0.00  0.00    -0.242 NA
ATOM     15  C   UNL d   1     -54.717-101.217 -44.897  0.00  0.00     0.099 A 
ATOM     16  C   UNL d   1     -54.869-101.529 -44.139  0.00  0.00     0.021 A 
ATOM     17  C   UNL d   1     -55.116-101.030 -43.531  0.00  0.00     0.003 A 
ATOM     18  C   UNL d   1     -55.213-100.229 -43.671  0.00  0.00     0.021 A 
ENDBRANCH  12  13
ENDBRANCH  11  12
ENDBRANCH   8  11
ENDBRANCH   1   8
BRANCH   4  19
ATOM     19  O   UNL d   1     -57.822 -98.773 -45.813  0.00  0.00    -0.304 OA
BRANCH  19  20
ATOM     20  C   UNL d   1     -58.359 -99.131 -46.328  0.00  0.00     0.123 C 
ATOM     21  C   UNL d   1     -59.081 -98.755 -46.504  0.00  0.00     0.029 C 
ENDBRANCH  19  20
ENDBRANCH   4  19
BRANCH   3  22
ATOM     22  C   UNL d   1     -58.377 -98.827 -42.559  0.00  0.00     0.000 C 
ATOM     23  C   UNL d   1     -57.743 -98.778 -42.032  0.00  0.00     0.000 C 
ATOM     24  C   UNL d   1     -59.149 -98.890 -42.272  0.00  0.00     0.000 C 
ENDBRANCH   3  22
TORSDOF 7
ENDMDL
