MODEL 1
REMARK VINA RESULT:       9.5      0.000      0.000
REMARK  4 active torsions:
REMARK  status: ('A' for Active; 'I' for Inactive)
REMARK    1  A    between atoms: C_7  and  C_1 
REMARK    2  A    between atoms: C_8  and  C_3 
REMARK    3  A    between atoms: C_10  and  C_6 
REMARK    4  A    between atoms: C_9  and  C_8 
ROOT
ATOM      1  C   UNL d   1     -42.962-123.058 -48.530  0.00  0.00     0.293 A 
ATOM      2  N   UNL d   1     -42.433-122.931 -47.902  0.00  0.00    -0.223 N 
ATOM      3  C   UNL d   1     -42.697-122.974 -49.320  0.00  0.00     0.113 A 
ATOM      4  C   UNL d   1     -41.640-122.719 -48.063  0.00  0.00     0.356 A 
ATOM      5  N   UNL d   1     -41.373-122.634 -48.853  0.00  0.00    -0.192 NA
ATOM      6  C   UNL d   1     -41.902-122.762 -49.482  0.00  0.00     0.094 A 
ATOM      7  O   UNL d   1     -41.123-122.594 -47.424  0.00  0.00    -0.244 OA
ATOM      8  O   UNL d   1     -43.628-123.225 -49.006  0.00  0.00    -0.267 OA
ATOM      9  C   UNL d   1     -42.683-123.011 -47.126  0.00  0.00     0.106 C 
ENDROOT
BRANCH   3  10
ATOM     10  C   UNL d   1     -43.225-123.102 -49.948  0.00  0.00     0.207 C 
ATOM     11  O   UNL d   1     -43.221-123.816 -50.357  0.00  0.00    -0.286 OA
BRANCH  10  12
ATOM     12  C   UNL d   1     -43.765-122.500 -50.167  0.00  0.00     0.069 A 
ATOM     13  S   UNL d   1     -43.906-121.735 -49.877  0.00  0.00    -0.083 SA
ATOM     14  C   UNL d   1     -44.518-121.408 -50.328  0.00  0.00     0.035 A 
ATOM     15  C   UNL d   1     -44.776-121.929 -50.893  0.00  0.00     0.008 A 
ATOM     16  C   UNL d   1     -44.313-122.616 -50.803  0.00  0.00     0.010 A 
ENDBRANCH  10  12
ENDBRANCH   3  10
BRANCH   1  17
ATOM     17  C   UNL d   1     -43.407-123.188 -47.855  0.00  0.00     0.469 C 
ATOM     18  F   UNL d   1     -43.394-122.687 -47.402  0.00  0.00    -0.162 F 
ATOM     19  F   UNL d   1     -43.869-123.337 -47.168  0.00  0.00    -0.162 F 
ATOM     20  F   UNL d   1     -43.789-123.815 -47.766  0.00  0.00    -0.162 F 
ENDBRANCH   1  17
BRANCH   6  21
ATOM     21  C   UNL d   1     -41.645-122.680 -50.254  0.00  0.00     0.021 A 
ATOM     22  C   UNL d   1     -41.572-121.937 -50.588  0.00  0.00     0.043 A 
ATOM     23  C   UNL d   1     -41.310-121.854 -51.375  0.00  0.00     0.196 A 
ATOM     24  O   UNL d   1     -41.238-121.112 -51.702  0.00  0.00    -0.287 OA
ATOM     25  C   UNL d   1     -41.128-122.519 -51.809  0.00  0.00     0.042 A 
ATOM     26  C   UNL d   1     -41.199-123.264 -51.480  0.00  0.00     0.003 A 
ATOM     27  C   UNL d   1     -41.458-123.344 -50.703  0.00  0.00     0.002 A 
ENDBRANCH   6  21
TORSDOF 4
ENDMDL
MODEL 2
REMARK VINA RESULT:      11.5      2.452      3.694
REMARK  4 active torsions:
REMARK  status: ('A' for Active; 'I' for Inactive)
REMARK    1  A    between atoms: C_7  and  C_1 
REMARK    2  A    between atoms: C_8  and  C_3 
REMARK    3  A    between atoms: C_10  and  C_6 
REMARK    4  A    between atoms: C_9  and  C_8 
ROOT
ATOM      1  C   UNL d   1     -41.363-121.564 -51.440  0.00  0.00     0.293 A 
ATOM      2  N   UNL d   1     -41.255-120.764 -51.637  0.00  0.00    -0.223 N 
ATOM      3  C   UNL d   1     -41.496-122.127 -52.046  0.00  0.00     0.113 A 
ATOM      4  C   UNL d   1     -41.280-120.527 -52.439  0.00  0.00     0.356 A 
ATOM      5  N   UNL d   1     -41.412-121.089 -53.046  0.00  0.00    -0.192 NA
ATOM      6  C   UNL d   1     -41.520-121.889 -52.850  0.00  0.00     0.094 A 
ATOM      7  O   UNL d   1     -41.170-119.723 -52.620  0.00  0.00    -0.244 OA
ATOM      8  O   UNL d   1     -41.446-122.297 -51.047  0.00  0.00    -0.267 OA
ATOM      9  C   UNL d   1     -41.125-120.207 -51.051  0.00  0.00     0.106 C 
ENDROOT
BRANCH   3  10
ATOM     10  C   UNL d   1     -41.604-122.927 -51.849  0.00  0.00     0.207 C 
ATOM     11  O   UNL d   1     -41.137-123.508 -52.198  0.00  0.00    -0.286 OA
BRANCH  10  12
ATOM     12  C   UNL d   1     -42.191-123.143 -51.293  0.00  0.00     0.069 A 
ATOM     13  S   UNL d   1     -42.999-122.965 -51.226  0.00  0.00    -0.083 SA
ATOM     14  C   UNL d   1     -43.282-123.347 -50.549  0.00  0.00     0.035 A 
ATOM     15  C   UNL d   1     -42.692-123.762 -50.179  0.00  0.00     0.008 A 
ATOM     16  C   UNL d   1     -42.004-123.643 -50.633  0.00  0.00     0.010 A 
ENDBRANCH  10  12
ENDBRANCH   3  10
BRANCH   1  17
ATOM     17  C   UNL d   1     -41.251-121.188 -50.722  0.00  0.00     0.469 C 
ATOM     18  F   UNL d   1     -41.277-121.590 -50.179  0.00  0.00    -0.162 F 
ATOM     19  F   UNL d   1     -41.133-120.785 -49.992  0.00  0.00    -0.162 F 
ATOM     20  F   UNL d   1     -41.130-120.458 -50.689  0.00  0.00    -0.162 F 
ENDBRANCH   1  17
BRANCH   6  21
ATOM     21  C   UNL d   1     -41.650-122.441 -53.440  0.00  0.00     0.021 A 
ATOM     22  C   UNL d   1     -42.302-122.376 -53.929  0.00  0.00     0.043 A 
ATOM     23  C   UNL d   1     -42.433-122.938 -54.530  0.00  0.00     0.196 A 
ATOM     24  O   UNL d   1     -43.084-122.869 -55.015  0.00  0.00    -0.287 OA
ATOM     25  C   UNL d   1     -41.907-123.553 -54.627  0.00  0.00     0.042 A 
ATOM     26  C   UNL d   1     -41.254-123.622 -54.140  0.00  0.00     0.003 A 
ATOM     27  C   UNL d   1     -41.125-123.066 -53.547  0.00  0.00     0.002 A 
ENDBRANCH   6  21
TORSDOF 4
ENDMDL
MODEL 3
REMARK VINA RESULT:      11.5      3.407      4.762
REMARK  4 active torsions:
REMARK  status: ('A' for Active; 'I' for Inactive)
REMARK    1  A    between atoms: C_7  and  C_1 
REMARK    2  A    between atoms: C_8  and  C_3 
REMARK    3  A    between atoms: C_10  and  C_6 
REMARK    4  A    between atoms: C_9  and  C_8 
ROOT
ATOM      1  C   UNL d   1     -42.059-121.259 -53.379  0.00  0.00     0.293 A 
ATOM      2  N   UNL d   1     -41.767-120.526 -53.117  0.00  0.00    -0.223 N 
ATOM      3  C   UNL d   1     -42.032-121.924 -52.870  0.00  0.00     0.113 A 
ATOM      4  C   UNL d   1     -41.449-120.458 -52.346  0.00  0.00     0.356 A 
ATOM      5  N   UNL d   1     -41.421-121.123 -51.836  0.00  0.00    -0.192 NA
ATOM      6  C   UNL d   1     -41.713-121.855 -52.098  0.00  0.00     0.094 A 
ATOM      7  O   UNL d   1     -41.161-119.719 -52.098  0.00  0.00    -0.244 OA
ATOM      8  O   UNL d   1     -42.393-121.888 -53.818  0.00  0.00    -0.267 OA
ATOM      9  C   UNL d   1     -41.790-119.871 -53.608  0.00  0.00     0.106 C 
ENDROOT
BRANCH   3  10
ATOM     10  C   UNL d   1     -42.324-122.656 -53.133  0.00  0.00     0.207 C 
ATOM     11  O   UNL d   1     -42.975-123.000 -52.766  0.00  0.00    -0.286 OA
BRANCH  10  12
ATOM     12  C   UNL d   1     -41.953-123.046 -53.774  0.00  0.00     0.069 A 
ATOM     13  S   UNL d   1     -41.160-123.119 -54.009  0.00  0.00    -0.083 SA
ATOM     14  C   UNL d   1     -41.146-123.578 -54.697  0.00  0.00     0.035 A 
ATOM     15  C   UNL d   1     -41.894-123.803 -54.914  0.00  0.00     0.008 A 
ATOM     16  C   UNL d   1     -42.408-123.477 -54.345  0.00  0.00     0.010 A 
ENDBRANCH  10  12
ENDBRANCH   3  10
BRANCH   1  17
ATOM     17  C   UNL d   1     -42.175-120.752 -54.011  0.00  0.00     0.469 C 
ATOM     18  F   UNL d   1     -42.799-120.498 -54.066  0.00  0.00    -0.162 F 
ATOM     19  F   UNL d   1     -42.277-120.232 -54.666  0.00  0.00    -0.162 F 
ATOM     20  F   UNL d   1     -41.623-120.593 -54.478  0.00  0.00    -0.162 F 
ENDBRANCH   1  17
BRANCH   6  21
ATOM     21  C   UNL d   1     -41.688-122.506 -51.603  0.00  0.00     0.021 A 
ATOM     22  C   UNL d   1     -42.176-122.544 -50.947  0.00  0.00     0.043 A 
ATOM     23  C   UNL d   1     -42.149-123.207 -50.443  0.00  0.00     0.196 A 
ATOM     24  O   UNL d   1     -42.637-123.241 -49.792  0.00  0.00    -0.287 OA
ATOM     25  C   UNL d   1     -41.634-123.816 -50.607  0.00  0.00     0.042 A 
ATOM     26  C   UNL d   1     -41.144-123.782 -51.261  0.00  0.00     0.003 A 
ATOM     27  C   UNL d   1     -41.171-123.127 -51.758  0.00  0.00     0.002 A 
ENDBRANCH   6  21
TORSDOF 4
ENDMDL
MODEL 4
REMARK VINA RESULT:      12.0      1.449      2.529
REMARK  4 active torsions:
REMARK  status: ('A' for Active; 'I' for Inactive)
REMARK    1  A    between atoms: C_7  and  C_1 
REMARK    2  A    between atoms: C_8  and  C_3 
REMARK    3  A    between atoms: C_10  and  C_6 
REMARK    4  A    between atoms: C_9  and  C_8 
ROOT
ATOM      1  C   UNL d   1     -43.525-123.114 -49.666  0.00  0.00     0.293 A 
ATOM      2  N   UNL d   1     -44.278-122.783 -49.783  0.00  0.00    -0.223 N 
ATOM      3  C   UNL d   1     -42.888-122.883 -50.159  0.00  0.00     0.113 A 
ATOM      4  C   UNL d   1     -44.394-122.221 -50.392  0.00  0.00     0.356 A 
ATOM      5  N   UNL d   1     -43.758-121.989 -50.886  0.00  0.00    -0.192 NA
ATOM      6  C   UNL d   1     -43.004-122.320 -50.769  0.00  0.00     0.094 A 
ATOM      7  O   UNL d   1     -45.153-121.899 -50.496  0.00  0.00    -0.244 OA
ATOM      8  O   UNL d   1     -42.865-123.550 -49.395  0.00  0.00    -0.267 OA
ATOM      9  C   UNL d   1     -44.906-123.003 -49.306  0.00  0.00     0.106 C 
ENDROOT
BRANCH   3  10
ATOM     10  C   UNL d   1     -42.135-123.214 -50.042  0.00  0.00     0.207 C 
ATOM     11  O   UNL d   1     -41.763-123.627 -50.649  0.00  0.00    -0.286 OA
BRANCH  10  12
ATOM     12  C   UNL d   1     -41.752-123.128 -49.302  0.00  0.00     0.069 A 
ATOM     13  S   UNL d   1     -41.558-122.466 -48.840  0.00  0.00    -0.083 SA
ATOM     14  C   UNL d   1     -41.180-122.742 -48.158  0.00  0.00     0.035 A 
ATOM     15  C   UNL d   1     -41.123-123.550 -48.161  0.00  0.00     0.008 A 
ATOM     16  C   UNL d   1     -41.478-123.805 -48.871  0.00  0.00     0.010 A 
ENDBRANCH  10  12
ENDBRANCH   3  10
BRANCH   1  17
ATOM     17  C   UNL d   1     -43.995-123.464 -49.095  0.00  0.00     0.469 C 
ATOM     18  F   UNL d   1     -44.529-123.804 -49.331  0.00  0.00    -0.162 F 
ATOM     19  F   UNL d   1     -44.469-123.817 -48.495  0.00  0.00    -0.162 F 
ATOM     20  F   UNL d   1     -43.832-123.401 -48.376  0.00  0.00    -0.162 F 
ENDBRANCH   1  17
BRANCH   6  21
ATOM     21  C   UNL d   1     -42.381-122.096 -51.249  0.00  0.00     0.021 A 
ATOM     22  C   UNL d   1     -42.266-122.460 -51.972  0.00  0.00     0.043 A 
ATOM     23  C   UNL d   1     -41.631-122.231 -52.461  0.00  0.00     0.196 A 
ATOM     24  O   UNL d   1     -41.520-122.597 -53.179  0.00  0.00    -0.287 OA
ATOM     25  C   UNL d   1     -41.126-121.642 -52.213  0.00  0.00     0.042 A 
ATOM     26  C   UNL d   1     -41.237-121.275 -51.490  0.00  0.00     0.003 A 
ATOM     27  C   UNL d   1     -41.864-121.502 -51.009  0.00  0.00     0.002 A 
ENDBRANCH   6  21
TORSDOF 4
ENDMDL
MODEL 5
REMARK VINA RESULT:      12.5      2.137      3.275
REMARK  4 active torsions:
REMARK  status: ('A' for Active; 'I' for Inactive)
REMARK    1  A    between atoms: C_7  and  C_1 
REMARK    2  A    between atoms: C_8  and  C_3 
REMARK    3  A    between atoms: C_10  and  C_6 
REMARK    4  A    between atoms: C_9  and  C_8 
ROOT
ATOM      1  C   UNL d   1     -42.280-121.992 -51.243  0.00  0.00     0.293 A 
ATOM      2  N   UNL d   1     -41.942-121.244 -51.374  0.00  0.00    -0.223 N 
ATOM      3  C   UNL d   1     -42.149-122.386 -50.516  0.00  0.00     0.113 A 
ATOM      4  C   UNL d   1     -41.473-120.891 -50.777  0.00  0.00     0.356 A 
ATOM      5  N   UNL d   1     -41.341-121.284 -50.049  0.00  0.00    -0.192 NA
ATOM      6  C   UNL d   1     -41.679-122.032 -49.918  0.00  0.00     0.094 A 
ATOM      7  O   UNL d   1     -41.141-120.143 -50.923  0.00  0.00    -0.244 OA
ATOM      8  O   UNL d   1     -42.696-122.715 -51.305  0.00  0.00    -0.267 OA
ATOM      9  C   UNL d   1     -42.064-120.851 -52.082  0.00  0.00     0.106 C 
ENDROOT
BRANCH   3  10
ATOM     10  C   UNL d   1     -42.488-123.134 -50.385  0.00  0.00     0.207 C 
ATOM     11  O   UNL d   1     -42.047-123.817 -50.509  0.00  0.00    -0.286 OA
BRANCH  10  12
ATOM     12  C   UNL d   1     -43.282-123.191 -50.126  0.00  0.00     0.069 A 
ATOM     13  S   UNL d   1     -43.959-122.736 -50.275  0.00  0.00    -0.083 SA
ATOM     14  C   UNL d   1     -44.585-123.077 -49.854  0.00  0.00     0.035 A 
ATOM     15  C   UNL d   1     -44.339-123.730 -49.442  0.00  0.00     0.008 A 
ATOM     16  C   UNL d   1     -43.526-123.813 -49.603  0.00  0.00     0.010 A 
ENDBRANCH  10  12
ENDBRANCH   3  10
BRANCH   1  17
ATOM     17  C   UNL d   1     -42.523-121.784 -51.997  0.00  0.00     0.469 C 
ATOM     18  F   UNL d   1     -42.116-121.988 -52.496  0.00  0.00    -0.162 F 
ATOM     19  F   UNL d   1     -42.786-121.562 -52.765  0.00  0.00    -0.162 F 
ATOM     20  F   UNL d   1     -43.146-121.400 -52.104  0.00  0.00    -0.162 F 
ENDBRANCH   1  17
BRANCH   6  21
ATOM     21  C   UNL d   1     -41.553-122.419 -49.209  0.00  0.00     0.021 A 
ATOM     22  C   UNL d   1     -41.725-122.047 -48.500  0.00  0.00     0.043 A 
ATOM     23  C   UNL d   1     -41.596-122.442 -47.778  0.00  0.00     0.196 A 
ATOM     24  O   UNL d   1     -41.769-122.069 -47.075  0.00  0.00    -0.287 OA
ATOM     25  C   UNL d   1     -41.297-123.200 -47.782  0.00  0.00     0.042 A 
ATOM     26  C   UNL d   1     -41.123-123.575 -48.488  0.00  0.00     0.003 A 
ATOM     27  C   UNL d   1     -41.251-123.185 -49.200  0.00  0.00     0.002 A 
ENDBRANCH   6  21
TORSDOF 4
ENDMDL
