MODEL 1
REMARK VINA RESULT:       7.9      0.000      0.000
REMARK  3 active torsions:
REMARK  status: ('A' for Active; 'I' for Inactive)
REMARK    1  A    between atoms: C_2  and  N_1 
REMARK    2  A    between atoms: C_4  and  N_1 
REMARK    3  A    between atoms: C_5  and  C_2 
ROOT
ATOM      1  N   UNL d   1      45.634 -13.379  44.569  0.00  0.00    -0.184 N 
ATOM      2  O   UNL d   1      46.398 -13.292  44.860  0.00  0.00    -0.080 OA
ENDROOT
BRANCH   1   3
ATOM      3  C   UNL d   1      45.112 -13.896  44.932  0.00  0.00     0.108 C 
BRANCH   3   4
ATOM      4  C   UNL d   1      45.266 -14.709  44.933  0.00  0.00     0.020 A 
ATOM      5  C   UNL d   1      44.632 -15.244  44.954  0.00  0.00     0.004 A 
ATOM      6  C   UNL d   1      44.785 -16.055  44.955  0.00  0.00     0.030 A 
ATOM      7  C   UNL d   1      45.555 -16.331  44.935  0.00  0.00     0.140 A 
ATOM      8  C   UNL d   1      46.174 -15.792  44.914  0.00  0.00     0.030 A 
ATOM      9  F   UNL d   1      45.707 -17.138  44.935  0.00  0.00    -0.204 F 
ATOM     10  C   UNL d   1      46.033 -14.979  44.913  0.00  0.00     0.004 A 
ENDBRANCH   3   4
ENDBRANCH   1   3
BRANCH   1  11
ATOM     11  C   UNL d   1      45.394 -12.939  43.904  0.00  0.00     0.090 A 
ATOM     12  C   UNL d   1      45.941 -12.513  43.479  0.00  0.00     0.020 A 
ATOM     13  C   UNL d   1      45.699 -12.082  42.826  0.00  0.00     0.002 A 
ATOM     14  C   UNL d   1      44.902 -12.082  42.601  0.00  0.00     0.000 A 
ATOM     15  C   UNL d   1      44.354 -12.520  43.041  0.00  0.00     0.002 A 
ATOM     16  C   UNL d   1      44.594 -12.948  43.691  0.00  0.00     0.020 A 
ENDBRANCH   1  11
TORSDOF 3
ENDMDL
MODEL 2
REMARK VINA RESULT:      10.0      2.554      3.607
REMARK  3 active torsions:
REMARK  status: ('A' for Active; 'I' for Inactive)
REMARK    1  A    between atoms: C_2  and  N_1 
REMARK    2  A    between atoms: C_4  and  N_1 
REMARK    3  A    between atoms: C_5  and  C_2 
ROOT
ATOM      1  N   UNL d   1      45.872 -16.841  44.392  0.00  0.00    -0.184 N 
ATOM      2  O   UNL d   1      45.623 -17.386  44.954  0.00  0.00    -0.080 OA
ENDROOT
BRANCH   1   3
ATOM      3  C   UNL d   1      46.273 -17.092  43.724  0.00  0.00     0.108 C 
BRANCH   3   4
ATOM      4  C   UNL d   1      46.353 -17.901  43.567  0.00  0.00     0.020 A 
ATOM      5  C   UNL d   1      46.226 -18.182  42.796  0.00  0.00     0.004 A 
ATOM      6  C   UNL d   1      46.305 -18.988  42.640  0.00  0.00     0.030 A 
ATOM      7  C   UNL d   1      46.507 -19.508  43.238  0.00  0.00     0.140 A 
ATOM      8  C   UNL d   1      46.630 -19.219  43.997  0.00  0.00     0.030 A 
ATOM      9  F   UNL d   1      46.586 -20.311  43.082  0.00  0.00    -0.204 F 
ATOM     10  C   UNL d   1      46.553 -18.415  44.164  0.00  0.00     0.004 A 
ENDBRANCH   3   4
ENDBRANCH   1   3
BRANCH   1  11
ATOM     11  C   UNL d   1      45.713 -16.032  44.506  0.00  0.00     0.090 A 
ATOM     12  C   UNL d   1      45.011 -15.798  44.845  0.00  0.00     0.020 A 
ATOM     13  C   UNL d   1      44.861 -15.000  44.955  0.00  0.00     0.002 A 
ATOM     14  C   UNL d   1      45.421 -14.436  44.722  0.00  0.00     0.000 A 
ATOM     15  C   UNL d   1      46.132 -14.686  44.377  0.00  0.00     0.002 A 
ATOM     16  C   UNL d   1      46.282 -15.479  44.268  0.00  0.00     0.020 A 
ENDBRANCH   1  11
TORSDOF 3
ENDMDL
