MODEL 1
REMARK VINA RESULT:      28.9      0.000      0.000
REMARK  5 active torsions:
REMARK  status: ('A' for Active; 'I' for Inactive)
REMARK       I    between atoms: C_2  and  N_1 
REMARK    1  A    between atoms: C_3  and  N_1 
REMARK    2  A    between atoms: C_4  and  C_2 
REMARK    3  A    between atoms: N_6  and  C_3 
REMARK    4  A    between atoms: C_11  and  N_6 
REMARK    5  A    between atoms: C_12  and  C_11 
ROOT
ATOM      1  N   UNL d   1     -50.805  25.056  33.522  0.00  0.00    -0.179 NA
ATOM      2  C   UNL d   1     -51.236  25.742  33.460  0.00  0.00     0.281 C 
ATOM      3  O   UNL d   1     -52.055  25.696  33.336  0.00  0.00    -0.265 OA
ENDROOT
BRANCH   1   4
ATOM      4  C   UNL d   1     -51.154  24.315  33.465  0.00  0.00     0.224 C 
ATOM      5  S   UNL d   1     -50.688  23.643  33.337  0.00  0.00    -0.037 SA
BRANCH   4   6
ATOM      6  N   UNL d   1     -51.962  24.248  33.536  0.00  0.00    -0.214 NA
BRANCH   6   7
ATOM      7  C   UNL d   1     -52.319  23.504  33.488  0.00  0.00     0.126 C 
BRANCH   7   8
ATOM      8  C   UNL d   1     -53.097  23.393  33.775  0.00  0.00     0.119 A 
ATOM      9  O   UNL d   1     -53.779  23.389  33.312  0.00  0.00    -0.304 OA
ATOM     10  C   UNL d   1     -54.427  23.263  33.807  0.00  0.00     0.123 A 
ATOM     11  C   UNL d   1     -54.132  23.191  34.576  0.00  0.00     0.029 A 
ATOM     12  C   UNL d   1     -53.319  23.271  34.549  0.00  0.00     0.028 A 
ENDBRANCH   7   8
ENDBRANCH   6   7
ENDBRANCH   4   6
ENDBRANCH   1   4
BRANCH   2  13
ATOM     13  C   UNL d   1     -50.857  26.482  33.521  0.00  0.00     0.058 A 
ATOM     14  C   UNL d   1     -51.275  27.147  33.307  0.00  0.00     0.005 A 
ATOM     15  C   UNL d   1     -50.912  27.889  33.362  0.00  0.00     0.000 A 
ATOM     16  C   UNL d   1     -50.139  27.962  33.629  0.00  0.00     0.000 A 
ATOM     17  C   UNL d   1     -49.727  27.271  33.844  0.00  0.00     0.000 A 
ATOM     18  C   UNL d   1     -49.789  28.720  33.678  0.00  0.00     0.000 C 
ATOM     19  C   UNL d   1     -50.089  26.543  33.788  0.00  0.00     0.005 A 
ENDBRANCH   2  13
TORSDOF 5
ENDMDL
