MODEL 1
REMARK VINA RESULT:      -3.4      0.000      0.000
REMARK  4 active torsions:
REMARK  status: ('A' for Active; 'I' for Inactive)
REMARK    1  A    between atoms: N_3  and  S_1 
REMARK    2  A    between atoms: N_5  and  S_1 
REMARK    3  A    between atoms: S_2  and  N_4 
REMARK    4  A    between atoms: C_14  and  S_2 
ROOT
ATOM      1  N   UNL d   1      32.723  21.743 -21.309  0.00  0.00    -0.213 N 
ATOM      2  N   UNL d   1      32.895  20.353 -22.157  0.00  0.00    -0.226 N 
ATOM      3  C   UNL d   1      33.116  21.083 -22.512  0.00  0.00     0.111 A 
ATOM      4  C   UNL d   1      32.597  20.338 -21.397  0.00  0.00     0.111 A 
ATOM      5  C   UNL d   1      32.511  21.039 -20.970  0.00  0.00     0.113 A 
ATOM      6  C   UNL d   1      33.029  21.783 -22.084  0.00  0.00     0.113 A 
ENDROOT
BRANCH   2   7
ATOM      7  S   UNL d   1      32.981  19.653 -22.584  0.00  0.00     0.271 S 
ATOM      8  O   UNL d   1      32.906  19.662 -23.412  0.00  0.00    -0.200 OA
ATOM      9  O   UNL d   1      33.141  18.947 -22.192  0.00  0.00    -0.200 OA
BRANCH   7  10
ATOM     10  C   UNL d   1      33.068  18.953 -23.012  0.00  0.00     0.104 A 
ATOM     11  C   UNL d   1      33.110  18.980 -23.835  0.00  0.00     0.013 A 
ATOM     12  C   UNL d   1      33.197  18.280 -24.263  0.00  0.00     0.001 A 
ATOM     13  C   UNL d   1      33.241  17.556 -23.864  0.00  0.00     0.000 A 
ATOM     14  C   UNL d   1      33.198  17.537 -23.031  0.00  0.00     0.001 A 
ATOM     15  C   UNL d   1      33.112  18.236 -22.615  0.00  0.00     0.013 A 
ENDBRANCH   7  10
ENDBRANCH   2   7
BRANCH   1  16
ATOM     16  S   UNL d   1      32.634  22.454 -20.875  0.00  0.00     0.337 S 
ATOM     17  O   UNL d   1      31.959  22.580 -20.423  0.00  0.00    -0.181 OA
ATOM     18  O   UNL d   1      33.232  23.031 -20.902  0.00  0.00    -0.181 OA
BRANCH  16  19
ATOM     19  N   UNL d   1      32.362  23.067 -20.389  0.00  0.00    -0.213 N 
ATOM     20  C   UNL d   1      31.818  23.621 -20.683  0.00  0.00     0.113 C 
ATOM     21  C   UNL d   1      32.631  23.125 -19.617  0.00  0.00     0.113 C 
ENDBRANCH  16  19
ENDBRANCH   1  16
TORSDOF 4
ENDMDL
MODEL 2
REMARK VINA RESULT:      -3.3      1.781      4.810
REMARK  4 active torsions:
REMARK  status: ('A' for Active; 'I' for Inactive)
REMARK    1  A    between atoms: N_3  and  S_1 
REMARK    2  A    between atoms: N_5  and  S_1 
REMARK    3  A    between atoms: S_2  and  N_4 
REMARK    4  A    between atoms: C_14  and  S_2 
ROOT
ATOM      1  N   UNL d   1      32.823  17.909 -23.300  0.00  0.00    -0.213 N 
ATOM      2  N   UNL d   1      32.850  19.382 -22.588  0.00  0.00    -0.226 N 
ATOM      3  C   UNL d   1      32.428  19.281 -23.308  0.00  0.00     0.111 A 
ATOM      4  C   UNL d   1      33.241  18.752 -22.247  0.00  0.00     0.111 A 
ATOM      5  C   UNL d   1      33.227  18.010 -22.606  0.00  0.00     0.113 A 
ATOM      6  C   UNL d   1      32.415  18.538 -23.667  0.00  0.00     0.113 A 
ENDROOT
BRANCH   2   7
ATOM      7  S   UNL d   1      32.863  20.125 -22.228  0.00  0.00     0.271 S 
ATOM      8  O   UNL d   1      33.240  20.760 -22.608  0.00  0.00    -0.200 OA
ATOM      9  O   UNL d   1      32.504  20.236 -21.496  0.00  0.00    -0.200 OA
BRANCH   7  10
ATOM     10  C   UNL d   1      32.877  20.867 -21.869  0.00  0.00     0.104 A 
ATOM     11  C   UNL d   1      33.227  21.503 -22.260  0.00  0.00     0.013 A 
ATOM     12  C   UNL d   1      33.240  22.246 -21.901  0.00  0.00     0.001 A 
ATOM     13  C   UNL d   1      32.904  22.349 -21.152  0.00  0.00     0.000 A 
ATOM     14  C   UNL d   1      32.552  21.699 -20.763  0.00  0.00     0.001 A 
ATOM     15  C   UNL d   1      32.542  20.967 -21.126  0.00  0.00     0.013 A 
ENDBRANCH   7  10
ENDBRANCH   2   7
BRANCH   1  16
ATOM     16  S   UNL d   1      32.809  17.154 -23.665  0.00  0.00     0.337 S 
ATOM     17  O   UNL d   1      32.369  16.544 -23.333  0.00  0.00    -0.181 OA
ATOM     18  O   UNL d   1      33.240  17.027 -24.363  0.00  0.00    -0.181 OA
BRANCH  16  19
ATOM     19  N   UNL d   1      32.667  16.363 -23.861  0.00  0.00    -0.213 N 
ATOM     20  C   UNL d   1      33.240  15.784 -23.702  0.00  0.00     0.113 C 
ATOM     21  C   UNL d   1      31.958  16.151 -24.214  0.00  0.00     0.113 C 
ENDBRANCH  16  19
ENDBRANCH   1  16
TORSDOF 4
ENDMDL
MODEL 3
REMARK VINA RESULT:      -2.6      1.435      4.584
REMARK  4 active torsions:
REMARK  status: ('A' for Active; 'I' for Inactive)
REMARK    1  A    between atoms: N_3  and  S_1 
REMARK    2  A    between atoms: N_5  and  S_1 
REMARK    3  A    between atoms: S_2  and  N_4 
REMARK    4  A    between atoms: C_14  and  S_2 
ROOT
ATOM      1  N   UNL d   1      32.838  18.883 -22.837  0.00  0.00    -0.213 N 
ATOM      2  N   UNL d   1      32.920  20.274 -21.978  0.00  0.00    -0.226 N 
ATOM      3  C   UNL d   1      32.558  20.279 -22.737  0.00  0.00     0.111 A 
ATOM      4  C   UNL d   1      33.228  19.583 -21.673  0.00  0.00     0.111 A 
ATOM      5  C   UNL d   1      33.187  18.882 -22.106  0.00  0.00     0.113 A 
ATOM      6  C   UNL d   1      32.516  19.578 -23.170  0.00  0.00     0.113 A 
ENDROOT
BRANCH   2   7
ATOM      7  S   UNL d   1      32.962  20.975 -21.545  0.00  0.00     0.271 S 
ATOM      8  O   UNL d   1      32.993  20.947 -20.715  0.00  0.00    -0.200 OA
ATOM      9  O   UNL d   1      32.972  21.700 -21.934  0.00  0.00    -0.200 OA
BRANCH   7  10
ATOM     10  C   UNL d   1      33.003  21.676 -21.112  0.00  0.00     0.104 A 
ATOM     11  C   UNL d   1      33.199  22.380 -21.494  0.00  0.00     0.013 A 
ATOM     12  C   UNL d   1      33.241  23.081 -21.061  0.00  0.00     0.001 A 
ATOM     13  C   UNL d   1      33.086  23.075 -20.248  0.00  0.00     0.000 A 
ATOM     14  C   UNL d   1      32.888  22.357 -19.870  0.00  0.00     0.001 A 
ATOM     15  C   UNL d   1      32.849  21.667 -20.306  0.00  0.00     0.013 A 
ENDBRANCH   7  10
ENDBRANCH   2   7
BRANCH   1  16
ATOM     16  S   UNL d   1      32.796  18.171 -23.277  0.00  0.00     0.337 S 
ATOM     17  O   UNL d   1      32.325  18.129 -23.950  0.00  0.00    -0.181 OA
ATOM     18  O   UNL d   1      33.232  17.508 -23.031  0.00  0.00    -0.181 OA
BRANCH  16  19
ATOM     19  N   UNL d   1      32.622  17.583 -23.833  0.00  0.00    -0.213 N 
ATOM     20  C   UNL d   1      33.093  17.497 -24.511  0.00  0.00     0.113 C 
ATOM     21  C   UNL d   1      31.982  17.085 -23.713  0.00  0.00     0.113 C 
ENDBRANCH  16  19
ENDBRANCH   1  16
TORSDOF 4
ENDMDL
MODEL 4
REMARK VINA RESULT:      -2.4      1.024      1.377
REMARK  4 active torsions:
REMARK  status: ('A' for Active; 'I' for Inactive)
REMARK    1  A    between atoms: N_3  and  S_1 
REMARK    2  A    between atoms: N_5  and  S_1 
REMARK    3  A    between atoms: S_2  and  N_4 
REMARK    4  A    between atoms: C_14  and  S_2 
ROOT
ATOM      1  N   UNL d   1      32.835  20.691 -21.771  0.00  0.00    -0.213 N 
ATOM      2  N   UNL d   1      32.925  19.312 -22.649  0.00  0.00    -0.226 N 
ATOM      3  C   UNL d   1      33.214  19.318 -21.860  0.00  0.00     0.111 A 
ATOM      4  C   UNL d   1      32.603  19.988 -22.974  0.00  0.00     0.111 A 
ATOM      5  C   UNL d   1      32.558  20.683 -22.532  0.00  0.00     0.113 A 
ATOM      6  C   UNL d   1      33.169  20.012 -21.417  0.00  0.00     0.113 A 
ENDROOT
BRANCH   2   7
ATOM      7  S   UNL d   1      32.970  18.618 -23.092  0.00  0.00     0.271 S 
ATOM      8  O   UNL d   1      33.237  18.645 -23.878  0.00  0.00    -0.200 OA
ATOM      9  O   UNL d   1      32.750  17.899 -22.755  0.00  0.00    -0.200 OA
BRANCH   7  10
ATOM     10  C   UNL d   1      33.015  17.923 -23.534  0.00  0.00     0.104 A 
ATOM     11  C   UNL d   1      32.878  17.947 -24.347  0.00  0.00     0.013 A 
ATOM     12  C   UNL d   1      32.923  17.252 -24.790  0.00  0.00     0.001 A 
ATOM     13  C   UNL d   1      33.104  16.536 -24.417  0.00  0.00     0.000 A 
ATOM     14  C   UNL d   1      33.241  16.521 -23.593  0.00  0.00     0.001 A 
ATOM     15  C   UNL d   1      33.194  17.213 -23.162  0.00  0.00     0.013 A 
ENDBRANCH   7  10
ENDBRANCH   2   7
BRANCH   1  16
ATOM     16  S   UNL d   1      32.790  21.397 -21.322  0.00  0.00     0.337 S 
ATOM     17  O   UNL d   1      32.353  21.414 -20.625  0.00  0.00    -0.181 OA
ATOM     18  O   UNL d   1      33.187  22.078 -21.583  0.00  0.00    -0.181 OA
BRANCH  16  19
ATOM     19  N   UNL d   1      32.623  21.973 -20.751  0.00  0.00    -0.213 N 
ATOM     20  C   UNL d   1      33.184  22.156 -20.167  0.00  0.00     0.113 C 
ATOM     21  C   UNL d   1      31.901  22.362 -20.763  0.00  0.00     0.113 C 
ENDBRANCH  16  19
ENDBRANCH   1  16
TORSDOF 4
ENDMDL
