MODEL 1
REMARK VINA RESULT:      74.6      0.000      0.000
REMARK  3 active torsions:
REMARK  status: ('A' for Active; 'I' for Inactive)
REMARK    1  A    between atoms: S_3  and  N_1 
REMARK    2  A    between atoms: C_7  and  C_4 
REMARK    3  A    between atoms: C_16  and  C_5 
ROOT
ATOM      1  N   UNL d   1     -55.619-102.027 -43.219  0.00  0.00    -0.155 N 
ATOM      2  N   UNL d   1     -55.705-102.535 -42.559  0.00  0.00    -0.156 NA
ATOM      3  C   UNL d   1     -55.361-101.310 -42.959  0.00  0.00     0.096 A 
ATOM      4  C   UNL d   1     -55.491-102.102 -41.893  0.00  0.00     0.103 A 
ATOM      5  C   UNL d   1     -55.276-101.335 -42.155  0.00  0.00     0.041 A 
ENDROOT
BRANCH   3   6
ATOM      6  C   UNL d   1     -55.206-100.654 -43.435  0.00  0.00     0.021 A 
ATOM      7  C   UNL d   1     -55.113-100.727 -44.266  0.00  0.00     0.028 A 
ATOM      8  C   UNL d   1     -54.959-100.070 -44.743  0.00  0.00     0.119 A 
ATOM      9  O   UNL d   1     -54.852-100.011 -45.530  0.00  0.00    -0.300 OA
ATOM     10  C   UNL d   1     -54.898 -99.343 -44.388  0.00  0.00     0.119 A 
ATOM     11  C   UNL d   1     -54.713 -99.201 -45.707  0.00  0.00     0.304 A 
ATOM     12  O   UNL d   1     -54.746 -98.801 -44.976  0.00  0.00    -0.300 OA
ATOM     13  C   UNL d   1     -54.981 -99.230 -43.594  0.00  0.00     0.026 A 
ATOM     14  C   UNL d   1     -55.136 -99.887 -43.116  0.00  0.00     0.004 A 
ENDBRANCH   3   6
BRANCH   1  15
ATOM     15  S   UNL d   1     -55.782-102.253 -44.010  0.00  0.00     0.266 S 
ATOM     16  O   UNL d   1     -55.010-102.516 -44.055  0.00  0.00    -0.203 OA
ATOM     17  O   UNL d   1     -56.564-101.974 -43.930  0.00  0.00    -0.203 OA
ATOM     18  C   UNL d   1     -55.931-102.474 -44.776  0.00  0.00     0.165 C 
ENDBRANCH   1  15
BRANCH   4  19
ATOM     19  C   UNL d   1     -55.485-102.364 -41.113  0.00  0.00     0.019 A 
ATOM     20  C   UNL d   1     -54.734-102.389 -40.744  0.00  0.00     0.002 A 
ATOM     21  C   UNL d   1     -54.711-102.656 -39.942  0.00  0.00     0.000 A 
ATOM     22  C   UNL d   1     -55.410-102.880 -39.557  0.00  0.00     0.000 A 
ATOM     23  C   UNL d   1     -56.116-102.839 -39.955  0.00  0.00     0.000 A 
ATOM     24  C   UNL d   1     -56.143-102.584 -40.722  0.00  0.00     0.002 A 
ENDBRANCH   4  19
TORSDOF 3
ENDMDL
