MODEL 1
REMARK VINA RESULT:      12.0      0.000      0.000
REMARK  2 active torsions:
REMARK  status: ('A' for Active; 'I' for Inactive)
REMARK    1  A    between atoms: C_13  and  N_8 
REMARK    2  A    between atoms: C_14  and  C_13 
ROOT
ATOM      1  C   UNL d   1      14.161  11.990  -2.448  0.00  0.00     0.093 A 
ATOM      2  N   UNL d   1      14.629  12.003  -1.099  0.00  0.00    -0.179 NA
ATOM      3  C   UNL d   1      14.783  12.064  -1.911  0.00  0.00     0.284 A 
ATOM      4  C   UNL d   1      13.392  11.858  -2.174  0.00  0.00     0.091 A 
ATOM      5  C   UNL d   1      13.861  11.870  -0.826  0.00  0.00     0.223 A 
ATOM      6  N   UNL d   1      13.246  11.798  -1.365  0.00  0.00    -0.217 NA
ATOM      7  C   UNL d   1      14.307  12.050  -3.257  0.00  0.00     0.087 A 
ATOM      8  N   UNL d   1      13.688  11.977  -3.786  0.00  0.00    -0.302 N 
ATOM      9  C   UNL d   1      12.770  11.784  -2.711  0.00  0.00     0.038 A 
ATOM     10  S   UNL d   1      13.710  11.810  -0.014  0.00  0.00    -0.037 SA
ATOM     11  O   UNL d   1      15.555  12.197  -2.176  0.00  0.00    -0.265 OA
ATOM     12  C   UNL d   1      12.919  11.844  -3.512  0.00  0.00     0.082 A 
ENDROOT
BRANCH   8  13
ATOM     13  C   UNL d   1      13.831  12.036  -4.604  0.00  0.00     0.080 C 
BRANCH  13  14
ATOM     14  C   UNL d   1      13.239  11.824  -5.140  0.00  0.00     0.019 C 
ATOM     15  C   UNL d   1      13.417  11.781  -5.944  0.00  0.00     0.002 C 
ENDBRANCH  13  14
ENDBRANCH   8  13
TORSDOF 2
ENDMDL
