MODEL 1
REMARK VINA RESULT:      -7.2      0.000      0.000
REMARK  8 active torsions:
REMARK  status: ('A' for Active; 'I' for Inactive)
REMARK    1  A    between atoms: C_5  and  C_1 
REMARK    2  A    between atoms: C_9  and  N_2 
REMARK    3  A    between atoms: C_8  and  C_5 
REMARK    4  A    between atoms: C_7  and  C_9 
REMARK       I    between atoms: N_12  and  C_7 
REMARK       I    between atoms: N_10  and  C_8 
REMARK    5  A    between atoms: C_20  and  N_10 
REMARK    6  A    between atoms: C_11  and  C_20 
REMARK    7  A    between atoms: C_23  and  N_12 
REMARK    8  A    between atoms: C_24  and  N_12 
ROOT
ATOM      1  C   UNL d   1     -47.327  13.133  23.096  0.00  0.00     0.063 A 
ATOM      2  N   UNL d   1     -48.667  13.166  23.104  0.00  0.00    -0.300 N 
ATOM      3  C   UNL d   1     -47.994  13.623  22.968  0.00  0.00     0.084 A 
ATOM      4  C   UNL d   1     -47.598  12.383  23.308  0.00  0.00     0.021 A 
ATOM      5  C   UNL d   1     -48.433  12.407  23.312  0.00  0.00     0.064 A 
ATOM      6  C   UNL d   1     -47.208  11.691  23.496  0.00  0.00     0.002 A 
ATOM      7  C   UNL d   1     -48.856  11.726  23.507  0.00  0.00     0.018 A 
ATOM      8  C   UNL d   1     -47.633  11.006  23.693  0.00  0.00     0.000 A 
ATOM      9  C   UNL d   1     -48.458  11.030  23.696  0.00  0.00     0.002 A 
ENDROOT
BRANCH   1  10
ATOM     10  C   UNL d   1     -46.542  13.365  23.021  0.00  0.00     0.254 C 
ATOM     11  O   UNL d   1     -46.012  13.214  23.638  0.00  0.00    -0.281 OA
BRANCH  10  12
ATOM     12  C   UNL d   1     -46.280  13.746  22.339  0.00  0.00     0.318 C 
ATOM     13  N   UNL d   1     -45.541  13.559  22.023  0.00  0.00    -0.202 NA
ATOM     14  O   UNL d   1     -46.761  14.309  21.980  0.00  0.00    -0.262 OA
BRANCH  13  15
ATOM     15  C   UNL d   1     -45.073  12.999  22.387  0.00  0.00     0.127 C 
BRANCH  15  16
ATOM     16  C   UNL d   1     -44.358  12.784  22.052  0.00  0.00     0.119 A 
ATOM     17  O   UNL d   1     -43.924  12.097  22.214  0.00  0.00    -0.304 OA
ATOM     18  C   UNL d   1     -43.236  12.100  21.755  0.00  0.00     0.123 A 
ATOM     19  C   UNL d   1     -43.238  12.798  21.298  0.00  0.00     0.029 A 
ATOM     20  C   UNL d   1     -43.920  13.212  21.480  0.00  0.00     0.028 A 
ENDBRANCH  15  16
ENDBRANCH  13  15
ENDBRANCH  10  12
ENDBRANCH   1  10
BRANCH   2  21
ATOM     21  C   UNL d   1     -49.446  13.430  23.040  0.00  0.00     0.142 C 
BRANCH  21  22
ATOM     22  C   UNL d   1     -49.629  14.216  23.182  0.00  0.00     0.282 C 
ATOM     23  N   UNL d   1     -50.279  14.565  22.812  0.00  0.00    -0.271 N 
ATOM     24  O   UNL d   1     -49.159  14.661  23.698  0.00  0.00    -0.265 OA
BRANCH  23  25
ATOM     25  C   UNL d   1     -50.459  15.358  22.959  0.00  0.00     0.083 C 
ATOM     26  C   UNL d   1     -50.974  15.556  23.572  0.00  0.00     0.021 C 
ENDBRANCH  23  25
BRANCH  23  27
ATOM     27  C   UNL d   1     -50.747  14.123  22.298  0.00  0.00     0.083 C 
ATOM     28  C   UNL d   1     -50.895  14.397  21.539  0.00  0.00     0.021 C 
ENDBRANCH  23  27
ENDBRANCH  21  22
ENDBRANCH   2  21
TORSDOF 8
ENDMDL
MODEL 2
REMARK VINA RESULT:      -5.9      1.625      2.515
REMARK  8 active torsions:
REMARK  status: ('A' for Active; 'I' for Inactive)
REMARK    1  A    between atoms: C_5  and  C_1 
REMARK    2  A    between atoms: C_9  and  N_2 
REMARK    3  A    between atoms: C_8  and  C_5 
REMARK    4  A    between atoms: C_7  and  C_9 
REMARK       I    between atoms: N_12  and  C_7 
REMARK       I    between atoms: N_10  and  C_8 
REMARK    5  A    between atoms: C_20  and  N_10 
REMARK    6  A    between atoms: C_11  and  C_20 
REMARK    7  A    between atoms: C_23  and  N_12 
REMARK    8  A    between atoms: C_24  and  N_12 
ROOT
ATOM      1  C   UNL d   1     -47.008  13.406  22.926  0.00  0.00     0.063 A 
ATOM      2  N   UNL d   1     -48.326  13.648  22.927  0.00  0.00    -0.300 N 
ATOM      3  C   UNL d   1     -47.761  13.058  23.040  0.00  0.00     0.084 A 
ATOM      4  C   UNL d   1     -47.120  14.203  22.746  0.00  0.00     0.021 A 
ATOM      5  C   UNL d   1     -47.942  14.351  22.747  0.00  0.00     0.064 A 
ATOM      6  C   UNL d   1     -46.596  14.809  22.582  0.00  0.00     0.002 A 
ATOM      7  C   UNL d   1     -48.217  15.112  22.582  0.00  0.00     0.018 A 
ATOM      8  C   UNL d   1     -46.871  15.573  22.416  0.00  0.00     0.000 A 
ATOM      9  C   UNL d   1     -47.684  15.718  22.418  0.00  0.00     0.002 A 
ENDROOT
BRANCH   1  10
ATOM     10  C   UNL d   1     -46.287  13.015  22.986  0.00  0.00     0.254 C 
ATOM     11  O   UNL d   1     -45.849  13.073  23.685  0.00  0.00    -0.281 OA
BRANCH  10  12
ATOM     12  C   UNL d   1     -45.998  12.569  22.356  0.00  0.00     0.318 C 
ATOM     13  N   UNL d   1     -45.532  11.904  22.504  0.00  0.00    -0.202 NA
ATOM     14  O   UNL d   1     -46.180  12.793  21.585  0.00  0.00    -0.262 OA
BRANCH  13  15
ATOM     15  C   UNL d   1     -45.359  11.692  23.272  0.00  0.00     0.127 C 
BRANCH  15  16
ATOM     16  C   UNL d   1     -44.860  11.061  23.419  0.00  0.00     0.119 A 
ATOM     17  O   UNL d   1     -44.032  11.079  23.434  0.00  0.00    -0.304 OA
ATOM     18  C   UNL d   1     -43.749  10.321  23.604  0.00  0.00     0.123 A 
ATOM     19  C   UNL d   1     -44.409   9.819  23.698  0.00  0.00     0.029 A 
ATOM     20  C   UNL d   1     -45.082  10.270  23.585  0.00  0.00     0.028 A 
ENDBRANCH  15  16
ENDBRANCH  13  15
ENDBRANCH  10  12
ENDBRANCH   1  10
BRANCH   2  21
ATOM     21  C   UNL d   1     -49.143  13.548  22.986  0.00  0.00     0.142 C 
BRANCH  21  22
ATOM     22  C   UNL d   1     -49.462  12.796  23.060  0.00  0.00     0.282 C 
ATOM     23  N   UNL d   1     -50.253  12.660  22.871  0.00  0.00    -0.271 N 
ATOM     24  O   UNL d   1     -48.988  12.172  23.326  0.00  0.00    -0.265 OA
BRANCH  23  25
ATOM     25  C   UNL d   1     -50.570  11.900  22.947  0.00  0.00     0.083 C 
ATOM     26  C   UNL d   1     -50.757  11.606  23.695  0.00  0.00     0.021 C 
ENDBRANCH  23  25
BRANCH  23  27
ATOM     27  C   UNL d   1     -50.726  13.280  22.607  0.00  0.00     0.083 C 
ATOM     28  C   UNL d   1     -51.055  13.255  21.855  0.00  0.00     0.021 C 
ENDBRANCH  23  27
ENDBRANCH  21  22
ENDBRANCH   2  21
TORSDOF 8
ENDMDL
MODEL 3
REMARK VINA RESULT:      -4.8      7.303      9.974
REMARK  8 active torsions:
REMARK  status: ('A' for Active; 'I' for Inactive)
REMARK    1  A    between atoms: C_5  and  C_1 
REMARK    2  A    between atoms: C_9  and  N_2 
REMARK    3  A    between atoms: C_8  and  C_5 
REMARK    4  A    between atoms: C_7  and  C_9 
REMARK       I    between atoms: N_12  and  C_7 
REMARK       I    between atoms: N_10  and  C_8 
REMARK    5  A    between atoms: C_20  and  N_10 
REMARK    6  A    between atoms: C_11  and  C_20 
REMARK    7  A    between atoms: C_23  and  N_12 
REMARK    8  A    between atoms: C_24  and  N_12 
ROOT
ATOM      1  C   UNL d   1     -39.414  14.525  17.615  0.00  0.00     0.063 A 
ATOM      2  N   UNL d   1     -40.165  14.748  18.702  0.00  0.00    -0.300 N 
ATOM      3  C   UNL d   1     -39.485  14.368  18.434  0.00  0.00     0.084 A 
ATOM      4  C   UNL d   1     -40.051  14.999  17.391  0.00  0.00     0.021 A 
ATOM      5  C   UNL d   1     -40.518  15.136  18.070  0.00  0.00     0.064 A 
ATOM      6  C   UNL d   1     -40.270  15.322  16.673  0.00  0.00     0.002 A 
ATOM      7  C   UNL d   1     -41.198  15.598  18.007  0.00  0.00     0.018 A 
ATOM      8  C   UNL d   1     -40.954  15.786  16.609  0.00  0.00     0.000 A 
ATOM      9  C   UNL d   1     -41.414  15.921  17.281  0.00  0.00     0.002 A 
ENDROOT
BRANCH   1  10
ATOM     10  C   UNL d   1     -38.812  14.253  17.126  0.00  0.00     0.254 C 
ATOM     11  O   UNL d   1     -38.213  14.772  16.889  0.00  0.00    -0.281 OA
BRANCH  10  12
ATOM     12  C   UNL d   1     -38.801  13.469  16.870  0.00  0.00     0.318 C 
ATOM     13  N   UNL d   1     -38.454  13.278  16.147  0.00  0.00    -0.202 NA
ATOM     14  O   UNL d   1     -39.138  12.885  17.343  0.00  0.00    -0.262 OA
BRANCH  13  15
ATOM     15  C   UNL d   1     -38.124  13.865  15.687  0.00  0.00     0.127 C 
BRANCH  15  16
ATOM     16  C   UNL d   1     -38.056  13.762  14.878  0.00  0.00     0.119 A 
ATOM     17  O   UNL d   1     -37.998  13.041  14.475  0.00  0.00    -0.304 OA
ATOM     18  C   UNL d   1     -37.940  13.190  13.664  0.00  0.00     0.123 A 
ATOM     19  C   UNL d   1     -37.961  14.018  13.556  0.00  0.00     0.029 A 
ATOM     20  C   UNL d   1     -38.032  14.363  14.294  0.00  0.00     0.028 A 
ENDBRANCH  15  16
ENDBRANCH  13  15
ENDBRANCH  10  12
ENDBRANCH   1  10
BRANCH   2  21
ATOM     21  C   UNL d   1     -40.446  14.738  19.478  0.00  0.00     0.142 C 
BRANCH  21  22
ATOM     22  C   UNL d   1     -39.930  14.611  20.102  0.00  0.00     0.282 C 
ATOM     23  N   UNL d   1     -40.217  14.557  20.874  0.00  0.00    -0.271 N 
ATOM     24  O   UNL d   1     -39.119  14.535  19.956  0.00  0.00    -0.265 OA
BRANCH  23  25
ATOM     25  C   UNL d   1     -39.692  14.428  21.500  0.00  0.00     0.083 C 
ATOM     26  C   UNL d   1     -39.719  14.915  22.166  0.00  0.00     0.021 C 
ENDBRANCH  23  25
BRANCH  23  27
ATOM     27  C   UNL d   1     -41.023  14.632  21.020  0.00  0.00     0.083 C 
ATOM     28  C   UNL d   1     -41.472  13.969  21.202  0.00  0.00     0.021 C 
ENDBRANCH  23  27
ENDBRANCH  21  22
ENDBRANCH   2  21
TORSDOF 8
ENDMDL
MODEL 4
REMARK VINA RESULT:      -4.7      8.468     10.103
REMARK  8 active torsions:
REMARK  status: ('A' for Active; 'I' for Inactive)
REMARK    1  A    between atoms: C_5  and  C_1 
REMARK    2  A    between atoms: C_9  and  N_2 
REMARK    3  A    between atoms: C_8  and  C_5 
REMARK    4  A    between atoms: C_7  and  C_9 
REMARK       I    between atoms: N_12  and  C_7 
REMARK       I    between atoms: N_10  and  C_8 
REMARK    5  A    between atoms: C_20  and  N_10 
REMARK    6  A    between atoms: C_11  and  C_20 
REMARK    7  A    between atoms: C_23  and  N_12 
REMARK    8  A    between atoms: C_24  and  N_12 
ROOT
ATOM      1  C   UNL d   1     -39.060  14.786  18.758  0.00  0.00     0.063 A 
ATOM      2  N   UNL d   1     -39.425  14.870  20.045  0.00  0.00    -0.300 N 
ATOM      3  C   UNL d   1     -38.833  14.596  19.541  0.00  0.00     0.084 A 
ATOM      4  C   UNL d   1     -39.787  15.175  18.791  0.00  0.00     0.021 A 
ATOM      5  C   UNL d   1     -40.012  15.225  19.594  0.00  0.00     0.064 A 
ATOM      6  C   UNL d   1     -40.271  15.486  18.211  0.00  0.00     0.002 A 
ATOM      7  C   UNL d   1     -40.724  15.591  19.793  0.00  0.00     0.018 A 
ATOM      8  C   UNL d   1     -40.987  15.853  18.410  0.00  0.00     0.000 A 
ATOM      9  C   UNL d   1     -41.208  15.903  19.204  0.00  0.00     0.002 A 
ENDROOT
BRANCH   1  10
ATOM     10  C   UNL d   1     -38.629  14.614  18.079  0.00  0.00     0.254 C 
ATOM     11  O   UNL d   1     -38.133  15.191  17.754  0.00  0.00    -0.281 OA
BRANCH  10  12
ATOM     12  C   UNL d   1     -38.687  13.874  17.722  0.00  0.00     0.318 C 
ATOM     13  N   UNL d   1     -38.488  13.786  16.926  0.00  0.00    -0.202 NA
ATOM     14  O   UNL d   1     -38.945  13.230  18.165  0.00  0.00    -0.262 OA
BRANCH  13  15
ATOM     15  C   UNL d   1     -38.234  14.431  16.497  0.00  0.00     0.127 C 
BRANCH  15  16
ATOM     16  C   UNL d   1     -38.120  14.365  15.689  0.00  0.00     0.119 A 
ATOM     17  O   UNL d   1     -38.050  14.988  15.149  0.00  0.00    -0.304 OA
ATOM     18  C   UNL d   1     -37.941  14.675  14.391  0.00  0.00     0.123 A 
ATOM     19  C   UNL d   1     -37.943  13.843  14.457  0.00  0.00     0.029 A 
ATOM     20  C   UNL d   1     -38.052  13.657  15.246  0.00  0.00     0.028 A 
ENDBRANCH  15  16
ENDBRANCH  13  15
ENDBRANCH  10  12
ENDBRANCH   1  10
BRANCH   2  21
ATOM     21  C   UNL d   1     -39.426  14.799  20.867  0.00  0.00     0.142 C 
BRANCH  21  22
ATOM     22  C   UNL d   1     -38.736  14.920  21.293  0.00  0.00     0.282 C 
ATOM     23  N   UNL d   1     -38.639  14.571  22.034  0.00  0.00    -0.271 N 
ATOM     24  O   UNL d   1     -38.135  15.393  20.977  0.00  0.00    -0.265 OA
BRANCH  23  25
ATOM     25  C   UNL d   1     -37.941  14.696  22.460  0.00  0.00     0.083 C 
ATOM     26  C   UNL d   1     -37.977  14.949  23.244  0.00  0.00     0.021 C 
ENDBRANCH  23  25
BRANCH  23  27
ATOM     27  C   UNL d   1     -39.236  14.100  22.349  0.00  0.00     0.083 C 
ATOM     28  C   UNL d   1     -39.053  13.515  22.895  0.00  0.00     0.021 C 
ENDBRANCH  23  27
ENDBRANCH  21  22
ENDBRANCH   2  21
TORSDOF 8
ENDMDL
MODEL 5
REMARK VINA RESULT:      -4.5      8.456      9.798
REMARK  8 active torsions:
REMARK  status: ('A' for Active; 'I' for Inactive)
REMARK    1  A    between atoms: C_5  and  C_1 
REMARK    2  A    between atoms: C_9  and  N_2 
REMARK    3  A    between atoms: C_8  and  C_5 
REMARK    4  A    between atoms: C_7  and  C_9 
REMARK       I    between atoms: N_12  and  C_7 
REMARK       I    between atoms: N_10  and  C_8 
REMARK    5  A    between atoms: C_20  and  N_10 
REMARK    6  A    between atoms: C_11  and  C_20 
REMARK    7  A    between atoms: C_23  and  N_12 
REMARK    8  A    between atoms: C_24  and  N_12 
ROOT
ATOM      1  C   UNL d   1     -39.174  14.661  19.280  0.00  0.00     0.063 A 
ATOM      2  N   UNL d   1     -38.500  14.071  20.276  0.00  0.00    -0.300 N 
ATOM      3  C   UNL d   1     -38.969  14.723  20.089  0.00  0.00     0.084 A 
ATOM      4  C   UNL d   1     -38.830  13.974  18.981  0.00  0.00     0.021 A 
ATOM      5  C   UNL d   1     -38.411  13.608  19.604  0.00  0.00     0.064 A 
ATOM      6  C   UNL d   1     -38.839  13.632  18.239  0.00  0.00     0.002 A 
ATOM      7  C   UNL d   1     -38.008  12.902  19.461  0.00  0.00     0.018 A 
ATOM      8  C   UNL d   1     -38.435  12.923  18.095  0.00  0.00     0.000 A 
ATOM      9  C   UNL d   1     -38.020  12.562  18.711  0.00  0.00     0.002 A 
ENDROOT
BRANCH   1  10
ATOM     10  C   UNL d   1     -39.639  15.196  18.863  0.00  0.00     0.254 C 
ATOM     11  O   UNL d   1     -39.282  15.710  18.322  0.00  0.00    -0.281 OA
BRANCH  10  12
ATOM     12  C   UNL d   1     -40.454  15.224  18.978  0.00  0.00     0.318 C 
ATOM     13  N   UNL d   1     -40.949  15.448  18.357  0.00  0.00    -0.202 NA
ATOM     14  O   UNL d   1     -40.765  15.026  19.714  0.00  0.00    -0.262 OA
BRANCH  13  15
ATOM     15  C   UNL d   1     -40.630  15.642  17.633  0.00  0.00     0.127 C 
BRANCH  15  16
ATOM     16  C   UNL d   1     -41.118  15.733  16.982  0.00  0.00     0.119 A 
ATOM     17  O   UNL d   1     -40.889  15.716  16.187  0.00  0.00    -0.304 OA
ATOM     18  C   UNL d   1     -41.556  15.831  15.712  0.00  0.00     0.123 A 
ATOM     19  C   UNL d   1     -42.215  15.922  16.217  0.00  0.00     0.029 A 
ATOM     20  C   UNL d   1     -41.946  15.862  16.988  0.00  0.00     0.028 A 
ENDBRANCH  15  16
ENDBRANCH  13  15
ENDBRANCH  10  12
ENDBRANCH   1  10
BRANCH   2  21
ATOM     21  C   UNL d   1     -38.175  13.911  21.017  0.00  0.00     0.142 C 
BRANCH  21  22
ATOM     22  C   UNL d   1     -38.160  14.491  21.596  0.00  0.00     0.282 C 
ATOM     23  N   UNL d   1     -38.365  14.308  22.374  0.00  0.00    -0.271 N 
ATOM     24  O   UNL d   1     -37.940  15.264  21.398  0.00  0.00    -0.265 OA
BRANCH  23  25
ATOM     25  C   UNL d   1     -38.349  14.897  22.954  0.00  0.00     0.083 C 
ATOM     26  C   UNL d   1     -38.918  14.902  23.551  0.00  0.00     0.021 C 
ENDBRANCH  23  25
BRANCH  23  27
ATOM     27  C   UNL d   1     -38.584  13.539  22.572  0.00  0.00     0.083 C 
ATOM     28  C   UNL d   1     -38.193  13.143  23.176  0.00  0.00     0.021 C 
ENDBRANCH  23  27
ENDBRANCH  21  22
ENDBRANCH   2  21
TORSDOF 8
ENDMDL
MODEL 6
REMARK VINA RESULT:      -4.3      1.822      3.286
REMARK  8 active torsions:
REMARK  status: ('A' for Active; 'I' for Inactive)
REMARK    1  A    between atoms: C_5  and  C_1 
REMARK    2  A    between atoms: C_9  and  N_2 
REMARK    3  A    between atoms: C_8  and  C_5 
REMARK    4  A    between atoms: C_7  and  C_9 
REMARK       I    between atoms: N_12  and  C_7 
REMARK       I    between atoms: N_10  and  C_8 
REMARK    5  A    between atoms: C_20  and  N_10 
REMARK    6  A    between atoms: C_11  and  C_20 
REMARK    7  A    between atoms: C_23  and  N_12 
REMARK    8  A    between atoms: C_24  and  N_12 
ROOT
ATOM      1  C   UNL d   1     -44.244  12.289  22.222  0.00  0.00     0.063 A 
ATOM      2  N   UNL d   1     -45.519  12.379  22.626  0.00  0.00    -0.300 N 
ATOM      3  C   UNL d   1     -44.940  12.752  22.173  0.00  0.00     0.084 A 
ATOM      4  C   UNL d   1     -44.404  11.639  22.705  0.00  0.00     0.021 A 
ATOM      5  C   UNL d   1     -45.199  11.698  22.955  0.00  0.00     0.064 A 
ATOM      6  C   UNL d   1     -43.944  11.010  22.949  0.00  0.00     0.002 A 
ATOM      7  C   UNL d   1     -45.511  11.116  23.449  0.00  0.00     0.018 A 
ATOM      8  C   UNL d   1     -44.258  10.424  23.445  0.00  0.00     0.000 A 
ATOM      9  C   UNL d   1     -45.043  10.483  23.692  0.00  0.00     0.002 A 
ENDROOT
BRANCH   1  10
ATOM     10  C   UNL d   1     -43.529  12.458  21.852  0.00  0.00     0.254 C 
ATOM     11  O   UNL d   1     -42.820  12.317  22.253  0.00  0.00    -0.281 OA
BRANCH  10  12
ATOM     12  C   UNL d   1     -43.515  12.767  21.088  0.00  0.00     0.318 C 
ATOM     13  N   UNL d   1     -42.912  13.285  20.866  0.00  0.00    -0.202 NA
ATOM     14  O   UNL d   1     -44.105  12.553  20.555  0.00  0.00    -0.262 OA
BRANCH  13  15
ATOM     15  C   UNL d   1     -42.334  13.489  21.403  0.00  0.00     0.127 C 
BRANCH  15  16
ATOM     16  C   UNL d   1     -41.757  14.032  21.196  0.00  0.00     0.119 A 
ATOM     17  O   UNL d   1     -41.862  14.846  21.087  0.00  0.00    -0.304 OA
ATOM     18  C   UNL d   1     -41.136  15.185  20.882  0.00  0.00     0.123 A 
ATOM     19  C   UNL d   1     -40.567  14.575  20.862  0.00  0.00     0.029 A 
ATOM     20  C   UNL d   1     -40.946  13.875  21.053  0.00  0.00     0.028 A 
ENDBRANCH  15  16
ENDBRANCH  13  15
ENDBRANCH  10  12
ENDBRANCH   1  10
BRANCH   2  21
ATOM     21  C   UNL d   1     -46.292  12.647  22.732  0.00  0.00     0.142 C 
BRANCH  21  22
ATOM     22  C   UNL d   1     -46.450  13.451  22.754  0.00  0.00     0.282 C 
ATOM     23  N   UNL d   1     -47.202  13.731  22.562  0.00  0.00    -0.271 N 
ATOM     24  O   UNL d   1     -45.854  13.982  22.969  0.00  0.00    -0.265 OA
BRANCH  23  25
ATOM     25  C   UNL d   1     -47.358  14.543  22.586  0.00  0.00     0.083 C 
ATOM     26  C   UNL d   1     -48.047  14.820  22.944  0.00  0.00     0.021 C 
ENDBRANCH  23  25
BRANCH  23  27
ATOM     27  C   UNL d   1     -47.797  13.203  22.348  0.00  0.00     0.083 C 
ATOM     28  C   UNL d   1     -48.361  13.423  21.793  0.00  0.00     0.021 C 
ENDBRANCH  23  27
ENDBRANCH  21  22
ENDBRANCH   2  21
TORSDOF 8
ENDMDL
