MODEL 1
REMARK VINA RESULT:       2.1      0.000      0.000
REMARK  1 active torsions:
REMARK  status: ('A' for Active; 'I' for Inactive)
REMARK    1  A    between atoms: C_6  and  CA_1 
ROOT
ATOM      1  CA  UNL d   1     -55.284-102.479 -38.105  0.00  0.00     0.147 A 
ATOM      2  N   UNL d   1     -55.840-102.849 -37.631  0.00  0.00    -0.237 NA
ATOM      3  C   UNL d   1     -54.719-102.124 -37.619  0.00  0.00     0.052 A 
ATOM      4  C   UNL d   1     -55.622-102.725 -36.845  0.00  0.00     0.106 A 
ATOM      5  C   UNL d   1     -54.931-102.278 -36.837  0.00  0.00     0.119 A 
ATOM      6  C   UNL d   1     -55.834-102.880 -36.063  0.00  0.00     0.048 A 
ATOM      7  O   UNL d   1     -54.713-102.155 -36.050  0.00  0.00    -0.303 OA
ATOM      8  C   UNL d   1     -55.271-102.527 -35.569  0.00  0.00     0.124 A 
ENDROOT
BRANCH   1   9
ATOM      9  C   UNL d   1     -55.288-102.463 -38.934  0.00  0.00     0.230 C 
ATOM     10  O   UNL d   1     -55.863-102.875 -39.352  0.00  0.00    -0.643 OA
ATOM     11  OXT UNL d   1     -54.716-102.033 -39.339  0.00  0.00    -0.643 OA
ENDBRANCH   1   9
TORSDOF 1
ENDMDL
