MODEL 1
REMARK VINA RESULT:      71.2      0.000      0.000
REMARK  7 active torsions:
REMARK  status: ('A' for Active; 'I' for Inactive)
REMARK    1  A    between atoms: C_25  and  N_5 
REMARK    2  A    between atoms: C_11  and  C_6 
REMARK       I    between atoms: N_19  and  C_11 
REMARK    3  A    between atoms: N_15  and  C_28 
REMARK    4  A    between atoms: C_27  and  N_19 
REMARK    5  A    between atoms: C_26  and  C_25 
REMARK    6  A    between atoms: C_28  and  C_26 
REMARK    7  A    between atoms: C_29  and  C_27 
ROOT
ATOM      1  C   UNL d   1      14.105  15.203  -3.615  0.00  0.00     0.155 A 
ATOM      2  C   UNL d   1      14.207  15.224  -4.433  0.00  0.00     0.091 A 
ATOM      3  N   UNL d   1      13.757  14.545  -3.262  0.00  0.00    -0.210 NA
ATOM      4  N   UNL d   1      13.614  13.934  -4.540  0.00  0.00    -0.258 N 
ATOM      5  N   UNL d   1      14.350  15.838  -3.150  0.00  0.00    -0.274 N 
ATOM      6  C   UNL d   1      14.804  16.522  -4.330  0.00  0.00     0.094 A 
ATOM      7  C   UNL d   1      13.959  14.585  -4.898  0.00  0.00     0.269 A 
ATOM      8  C   UNL d   1      14.701  16.501  -3.502  0.00  0.00     0.175 A 
ATOM      9  C   UNL d   1      13.514  13.918  -3.722  0.00  0.00     0.152 A 
ATOM     10  C   UNL d   1      14.557  15.883  -4.795  0.00  0.00     0.016 A 
ATOM     11  C   UNL d   1      13.364  13.292  -4.996  0.00  0.00     0.084 A 
ATOM     12  C   UNL d   1      13.165  13.260  -3.359  0.00  0.00     0.038 A 
ATOM     13  N   UNL d   1      14.947  17.136  -3.038  0.00  0.00    -0.128 N 
ATOM     14  C   UNL d   1      13.018  12.640  -4.638  0.00  0.00     0.018 A 
ATOM     15  C   UNL d   1      12.918  12.625  -3.820  0.00  0.00     0.005 A 
ATOM     16  O   UNL d   1      14.061  14.605  -5.717  0.00  0.00    -0.266 OA
ATOM     17  C   UNL d   1      12.771  12.006  -5.088  0.00  0.00     0.002 C 
ENDROOT
BRANCH   6  18
ATOM     18  C   UNL d   1      15.149  17.172  -4.684  0.00  0.00     0.282 C 
ATOM     19  N   UNL d   1      14.697  17.665  -5.179  0.00  0.00    -0.206 NA
ATOM     20  O   UNL d   1      15.945  17.350  -4.557  0.00  0.00    -0.265 OA
BRANCH  19  21
ATOM     21  C   UNL d   1      15.042  18.320  -5.535  0.00  0.00     0.102 C 
BRANCH  21  22
ATOM     22  C   UNL d   1      14.567  18.948  -5.804  0.00  0.00     0.019 A 
ATOM     23  C   UNL d   1      13.818  18.785  -6.110  0.00  0.00     0.002 A 
ATOM     24  C   UNL d   1      13.336  19.403  -6.381  0.00  0.00     0.000 A 
ATOM     25  C   UNL d   1      13.610  20.184  -6.342  0.00  0.00     0.000 A 
ATOM     26  C   UNL d   1      14.369  20.339  -6.030  0.00  0.00     0.000 A 
ATOM     27  C   UNL d   1      14.842  19.720  -5.763  0.00  0.00     0.002 A 
ENDBRANCH  21  22
ENDBRANCH  19  21
ENDBRANCH   6  18
BRANCH   5  28
ATOM     28  C   UNL d   1      14.247  15.813  -2.331  0.00  0.00     0.085 C 
BRANCH  28  29
ATOM     29  C   UNL d   1      14.819  15.461  -1.855  0.00  0.00     0.038 C 
BRANCH  29  30
ATOM     30  C   UNL d   1      14.680  15.359  -1.043  0.00  0.00     0.083 C 
BRANCH  30  31
ATOM     31  N   UNL d   1      15.033  14.733  -0.639  0.00  0.00    -0.285 N 
ATOM     32  C   UNL d   1      15.817  14.696  -0.407  0.00  0.00     0.183 A 
ATOM     33  N   UNL d   1      15.922  13.958  -0.014  0.00  0.00    -0.222 NA
ATOM     34  C   UNL d   1      15.214  13.568  -0.016  0.00  0.00     0.120 A 
ATOM     35  C   UNL d   1      14.658  14.043  -0.401  0.00  0.00     0.102 A 
ENDBRANCH  30  31
ENDBRANCH  29  30
ENDBRANCH  28  29
ENDBRANCH   5  28
TORSDOF 7
ENDMDL
