MODEL 1
REMARK VINA RESULT:      -5.1      0.000      0.000
REMARK  5 active torsions:
REMARK  status: ('A' for Active; 'I' for Inactive)
REMARK    1  A    between atoms: C_5  and  C_1 
REMARK    2  A    between atoms: C_12  and  C_5 
REMARK    3  A    between atoms: C_7  and  C_22 
REMARK       I    between atoms: N_21  and  C_12 
REMARK    4  A    between atoms: C_23  and  N_21 
REMARK    5  A    between atoms: C_22  and  C_23 
ROOT
ATOM      1  C   UNL d   1      57.776   0.001  30.496  0.00  0.00     0.102 C 
ENDROOT
BRANCH   1   2
ATOM      2  C   UNL d   1      57.539   0.682  30.899  0.00  0.00     0.026 C 
BRANCH   2   3
ATOM      3  C   UNL d   1      57.311   0.632  31.702  0.00  0.00     0.059 A 
ATOM      4  C   UNL d   1      57.884   0.632  32.293  0.00  0.00     0.279 A 
ATOM      5  N   UNL d   1      57.662   0.584  33.084  0.00  0.00    -0.208 NA
ATOM      6  O   UNL d   1      58.692   0.682  32.086  0.00  0.00    -0.265 OA
ATOM      7  C   UNL d   1      56.872   0.535  33.289  0.00  0.00     0.085 A 
ATOM      8  C   UNL d   1      56.292   0.535  32.693  0.00  0.00     0.018 A 
ATOM      9  C   UNL d   1      56.646   0.486  34.078  0.00  0.00     0.019 A 
ATOM     10  C   UNL d   1      56.512   0.584  31.898  0.00  0.00     0.006 A 
ATOM     11  C   UNL d   1      55.496   0.487  32.892  0.00  0.00     0.002 A 
ATOM     12  C   UNL d   1      55.275   0.438  33.686  0.00  0.00     0.000 A 
ATOM     13  C   UNL d   1      55.853   0.438  34.280  0.00  0.00     0.002 A 
ATOM     14  C   UNL d   1      54.468   0.388  33.893  0.00  0.00     0.000 C 
ATOM     15  C   UNL d   1      55.633   0.389  35.074  0.00  0.00     0.000 C 
ENDBRANCH   2   3
ENDBRANCH   1   2
BRANCH   1  16
ATOM     16  N   UNL d   1      57.804   0.005  29.677  0.00  0.00    -0.204 NA
ATOM     17  C   UNL d   1      58.162  -0.618  29.279  0.00  0.00     0.318 C 
ATOM     18  O   UNL d   1      58.192  -0.617  28.455  0.00  0.00    -0.262 OA
BRANCH  17  19
ATOM     19  C   UNL d   1      58.496  -1.251  29.705  0.00  0.00     0.254 C 
ATOM     20  O   UNL d   1      58.096  -1.556  30.360  0.00  0.00    -0.281 OA
BRANCH  19  21
ATOM     21  C   UNL d   1      59.216  -1.565  29.473  0.00  0.00     0.064 A 
ATOM     22  C   UNL d   1      59.948  -1.183  29.468  0.00  0.00     0.102 A 
ATOM     23  N   UNL d   1      60.522  -1.704  29.194  0.00  0.00    -0.244 NA
ATOM     24  C   UNL d   1      60.147  -2.420  29.024  0.00  0.00     0.082 A 
ATOM     25  C   UNL d   1      59.342  -2.335  29.196  0.00  0.00     0.022 A 
ATOM     26  C   UNL d   1      60.433  -3.137  28.736  0.00  0.00     0.019 A 
ATOM     27  C   UNL d   1      58.828  -2.966  29.079  0.00  0.00     0.002 A 
ATOM     28  C   UNL d   1      59.119  -3.690  28.788  0.00  0.00     0.000 A 
ATOM     29  C   UNL d   1      59.919  -3.768  28.620  0.00  0.00     0.002 A 
ENDBRANCH  19  21
ENDBRANCH  17  19
ENDBRANCH   1  16
TORSDOF 5
ENDMDL
