MODEL 1
REMARK VINA RESULT:       0.1      0.000      0.000
REMARK  6 active torsions:
REMARK  status: ('A' for Active; 'I' for Inactive)
REMARK    1  A    between atoms: C_3  and  N_1 
REMARK       I    between atoms: C_2  and  N_6 
REMARK       I    between atoms: N_7  and  C_2 
REMARK    2  A    between atoms: C_5  and  C_3 
REMARK    3  A    between atoms: C_8  and  C_3 
REMARK    4  A    between atoms: N_6  and  C_5 
REMARK    5  A    between atoms: C_20  and  N_7 
REMARK    6  A    between atoms: N_12  and  C_9 
ROOT
ATOM      1  C   UNL d   1      58.298  -1.826  29.761  0.00  0.00     0.084 C 
ENDROOT
BRANCH   1   2
ATOM      2  N   UNL d   1      58.358  -2.581  29.436  0.00  0.00    -0.300 N 
ATOM      3  C   UNL d   1      57.762  -2.878  28.943  0.00  0.00     0.100 A 
ATOM      4  C   UNL d   1      57.827  -3.634  28.619  0.00  0.00     0.100 A 
ATOM      5  N   UNL d   1      58.490  -4.094  28.790  0.00  0.00    -0.299 N 
ATOM      6  C   UNL d   1      59.087  -3.805  29.280  0.00  0.00     0.100 A 
ATOM      7  C   UNL d   1      58.545  -4.860  28.456  0.00  0.00     0.100 C 
ATOM      8  C   UNL d   1      59.026  -3.049  29.606  0.00  0.00     0.100 A 
ENDBRANCH   1   2
BRANCH   1   9
ATOM      9  C   UNL d   1      57.638  -1.642  30.218  0.00  0.00     0.121 C 
BRANCH   9  10
ATOM     10  N   UNL d   1      57.647  -0.974  30.710  0.00  0.00    -0.188 NA
ATOM     11  C   UNL d   1      57.084  -0.892  31.305  0.00  0.00     0.369 C 
ATOM     12  N   UNL d   1      57.093  -0.224  31.796  0.00  0.00    -0.191 NA
ATOM     13  O   UNL d   1      56.511  -1.467  31.415  0.00  0.00    -0.242 OA
BRANCH  12  14
ATOM     14  C   UNL d   1      56.530  -0.142  32.390  0.00  0.00     0.086 A 
ATOM     15  C   UNL d   1      56.024   0.512  32.394  0.00  0.00     0.022 A 
ATOM     16  C   UNL d   1      55.460   0.594  32.988  0.00  0.00     0.031 A 
ATOM     17  C   UNL d   1      55.399   0.018  33.586  0.00  0.00     0.140 A 
ATOM     18  C   UNL d   1      55.895  -0.624  33.582  0.00  0.00     0.031 A 
ATOM     19  F   UNL d   1      54.831   0.099  34.186  0.00  0.00    -0.204 F 
ATOM     20  C   UNL d   1      56.468  -0.713  32.983  0.00  0.00     0.022 A 
ENDBRANCH  12  14
ENDBRANCH   9  10
ENDBRANCH   1   9
BRANCH   1  21
ATOM     21  C   UNL d   1      58.894  -1.267  29.627  0.00  0.00     0.018 A 
ATOM     22  C   UNL d   1      58.939  -0.885  28.897  0.00  0.00     0.003 A 
ATOM     23  C   UNL d   1      59.531  -0.332  28.769  0.00  0.00     0.018 A 
ATOM     24  C   UNL d   1      60.082  -0.152  29.356  0.00  0.00     0.064 A 
ATOM     25  C   UNL d   1      60.030  -0.539  30.083  0.00  0.00     0.018 A 
ATOM     26  C   UNL d   1      59.441  -1.093  30.220  0.00  0.00     0.003 A 
BRANCH  24  27
ATOM     27  N   UNL d   1      60.678   0.405  29.224  0.00  0.00    -0.301 N 
ATOM     28  C   UNL d   1      60.806   0.678  28.458  0.00  0.00     0.100 C 
ATOM     29  C   UNL d   1      61.133   0.682  29.835  0.00  0.00     0.100 C 
ENDBRANCH  24  27
ENDBRANCH   1  21
TORSDOF 6
ENDMDL
