MODEL 1
REMARK VINA RESULT:      -7.9      0.000      0.000
REMARK  3 active torsions:
REMARK  status: ('A' for Active; 'I' for Inactive)
REMARK    1  A    between atoms: C_6  and  N_1 
REMARK    2  A    between atoms: C_5  and  C_6 
REMARK       I    between atoms: N_10  and  C_5 
REMARK    3  A    between atoms: C_16  and  N_10 
ROOT
ATOM      1  C   UNL d   1     -48.864  12.501  23.016  0.00  0.00     0.297 C 
ATOM      2  N   UNL d   1     -48.344  12.524  23.651  0.00  0.00    -0.207 NA
ATOM      3  O   UNL d   1     -48.573  12.339  22.258  0.00  0.00    -0.264 OA
ENDROOT
BRANCH   1   4
ATOM      4  C   UNL d   1     -49.667  12.636  23.130  0.00  0.00     0.148 C 
BRANCH   4   5
ATOM      5  N   UNL d   1     -50.059  13.187  22.663  0.00  0.00    -0.235 N 
ATOM      6  C   UNL d   1     -50.190  13.947  22.942  0.00  0.00     0.273 A 
ATOM      7  C   UNL d   1     -50.585  14.501  22.472  0.00  0.00     0.086 A 
ATOM      8  O   UNL d   1     -49.929  14.167  23.697  0.00  0.00    -0.266 OA
ATOM      9  C   UNL d   1     -50.726  15.271  22.735  0.00  0.00     0.012 C 
ATOM     10  S   UNL d   1     -50.841  14.277  21.722  0.00  0.00    -0.077 SA
ATOM     11  C   UNL d   1     -50.713  13.519  21.439  0.00  0.00     0.097 A 
ATOM     12  C   UNL d   1     -50.321  12.968  21.906  0.00  0.00     0.274 A 
ATOM     13  O   UNL d   1     -50.190  12.201  21.621  0.00  0.00    -0.266 OA
ENDBRANCH   4   5
ENDBRANCH   1   4
BRANCH   2  14
ATOM     14  C   UNL d   1     -47.544  12.390  23.540  0.00  0.00     0.087 A 
ATOM     15  C   UNL d   1     -47.248  11.636  23.695  0.00  0.00     0.045 A 
ATOM     16  C   UNL d   1     -46.451  11.477  23.592  0.00  0.00     0.121 A 
ATOM     17  O   UNL d   1     -46.002  10.795  23.698  0.00  0.00    -0.299 OA
ATOM     18  C   UNL d   1     -45.944  12.075  23.331  0.00  0.00     0.119 A 
ATOM     19  C   UNL d   1     -45.219  10.974  23.503  0.00  0.00     0.304 A 
ATOM     20  O   UNL d   1     -45.191  11.754  23.281  0.00  0.00    -0.300 OA
ATOM     21  C   UNL d   1     -46.236  12.831  23.175  0.00  0.00     0.028 A 
ATOM     22  C   UNL d   1     -47.041  12.995  23.278  0.00  0.00     0.021 A 
ENDBRANCH   2  14
TORSDOF 3
ENDMDL
MODEL 2
REMARK VINA RESULT:      -6.5      9.229     10.167
REMARK  3 active torsions:
REMARK  status: ('A' for Active; 'I' for Inactive)
REMARK    1  A    between atoms: C_6  and  N_1 
REMARK    2  A    between atoms: C_5  and  C_6 
REMARK       I    between atoms: N_10  and  C_5 
REMARK    3  A    between atoms: C_16  and  N_10 
ROOT
ATOM      1  C   UNL d   1     -40.213  14.731  19.056  0.00  0.00     0.297 C 
ATOM      2  N   UNL d   1     -40.520  14.485  19.777  0.00  0.00    -0.207 NA
ATOM      3  O   UNL d   1     -39.676  15.362  19.038  0.00  0.00    -0.264 OA
ENDROOT
BRANCH   1   4
ATOM      4  C   UNL d   1     -40.436  14.357  18.359  0.00  0.00     0.148 C 
BRANCH   4   5
ATOM      5  N   UNL d   1     -39.944  14.392  17.701  0.00  0.00    -0.235 N 
ATOM      6  C   UNL d   1     -39.386  13.804  17.571  0.00  0.00     0.273 A 
ATOM      7  C   UNL d   1     -38.892  13.840  16.909  0.00  0.00     0.086 A 
ATOM      8  O   UNL d   1     -39.314  13.171  18.100  0.00  0.00    -0.266 OA
ATOM      9  C   UNL d   1     -38.324  13.259  16.761  0.00  0.00     0.012 C 
ATOM     10  S   UNL d   1     -38.969  14.472  16.388  0.00  0.00    -0.077 SA
ATOM     11  C   UNL d   1     -39.524  15.061  16.514  0.00  0.00     0.097 A 
ATOM     12  C   UNL d   1     -40.016  15.026  17.171  0.00  0.00     0.274 A 
ATOM     13  O   UNL d   1     -40.579  15.621  17.301  0.00  0.00    -0.266 OA
ENDBRANCH   4   5
ENDBRANCH   1   4
BRANCH   2  14
ATOM     14  C   UNL d   1     -40.301  14.856  20.473  0.00  0.00     0.087 A 
ATOM     15  C   UNL d   1     -39.711  14.510  20.933  0.00  0.00     0.045 A 
ATOM     16  C   UNL d   1     -39.473  14.862  21.634  0.00  0.00     0.121 A 
ATOM     17  O   UNL d   1     -38.912  14.654  22.198  0.00  0.00    -0.299 OA
ATOM     18  C   UNL d   1     -39.829  15.567  21.878  0.00  0.00     0.119 A 
ATOM     19  C   UNL d   1     -38.921  15.230  22.790  0.00  0.00     0.304 A 
ATOM     20  O   UNL d   1     -39.481  15.782  22.589  0.00  0.00    -0.300 OA
ATOM     21  C   UNL d   1     -40.420  15.917  21.422  0.00  0.00     0.028 A 
ATOM     22  C   UNL d   1     -40.661  15.563  20.713  0.00  0.00     0.021 A 
ENDBRANCH   2  14
TORSDOF 3
ENDMDL
MODEL 3
REMARK VINA RESULT:      -6.2      8.976     10.345
REMARK  3 active torsions:
REMARK  status: ('A' for Active; 'I' for Inactive)
REMARK    1  A    between atoms: C_6  and  N_1 
REMARK    2  A    between atoms: C_5  and  C_6 
REMARK       I    between atoms: N_10  and  C_5 
REMARK    3  A    between atoms: C_16  and  N_10 
ROOT
ATOM      1  C   UNL d   1     -40.094  14.543  19.282  0.00  0.00     0.297 C 
ATOM      2  N   UNL d   1     -40.292  14.084  18.631  0.00  0.00    -0.207 NA
ATOM      3  O   UNL d   1     -39.506  15.122  19.207  0.00  0.00    -0.264 OA
ENDROOT
BRANCH   1   4
ATOM      4  C   UNL d   1     -40.474  14.431  20.002  0.00  0.00     0.148 C 
BRANCH   4   5
ATOM      5  N   UNL d   1     -40.183  14.794  20.679  0.00  0.00    -0.235 N 
ATOM      6  C   UNL d   1     -39.614  14.420  21.137  0.00  0.00     0.273 A 
ATOM      7  C   UNL d   1     -39.322  14.787  21.818  0.00  0.00     0.086 A 
ATOM      8  O   UNL d   1     -39.327  13.674  20.921  0.00  0.00    -0.266 OA
ATOM      9  C   UNL d   1     -38.748  14.427  22.291  0.00  0.00     0.012 C 
ATOM     10  S   UNL d   1     -39.611  15.529  22.027  0.00  0.00    -0.077 SA
ATOM     11  C   UNL d   1     -40.179  15.906  21.573  0.00  0.00     0.097 A 
ATOM     12  C   UNL d   1     -40.470  15.542  20.896  0.00  0.00     0.274 A 
ATOM     13  O   UNL d   1     -41.046  15.922  20.436  0.00  0.00    -0.266 OA
ENDBRANCH   4   5
ENDBRANCH   1   4
BRANCH   2  14
ATOM     14  C   UNL d   1     -39.915  14.194  17.912  0.00  0.00     0.087 A 
ATOM     15  C   UNL d   1     -39.312  13.673  17.702  0.00  0.00     0.045 A 
ATOM     16  C   UNL d   1     -38.920  13.762  16.988  0.00  0.00     0.121 A 
ATOM     17  O   UNL d   1     -38.309  13.340  16.632  0.00  0.00    -0.299 OA
ATOM     18  C   UNL d   1     -39.131  14.378  16.479  0.00  0.00     0.119 A 
ATOM     19  C   UNL d   1     -38.144  13.696  15.905  0.00  0.00     0.304 A 
ATOM     20  O   UNL d   1     -38.648  14.326  15.818  0.00  0.00    -0.300 OA
ATOM     21  C   UNL d   1     -39.734  14.902  16.685  0.00  0.00     0.028 A 
ATOM     22  C   UNL d   1     -40.132  14.814  17.406  0.00  0.00     0.021 A 
ENDBRANCH   2  14
TORSDOF 3
ENDMDL
MODEL 4
REMARK VINA RESULT:      -5.7      1.851      4.580
REMARK  3 active torsions:
REMARK  status: ('A' for Active; 'I' for Inactive)
REMARK    1  A    between atoms: C_6  and  N_1 
REMARK    2  A    between atoms: C_5  and  C_6 
REMARK       I    between atoms: N_10  and  C_5 
REMARK    3  A    between atoms: C_16  and  N_10 
ROOT
ATOM      1  C   UNL d   1     -47.553  13.033  22.877  0.00  0.00     0.297 C 
ATOM      2  N   UNL d   1     -48.275  13.172  23.241  0.00  0.00    -0.207 NA
ATOM      3  O   UNL d   1     -47.537  12.787  22.086  0.00  0.00    -0.264 OA
ENDROOT
BRANCH   1   4
ATOM      4  C   UNL d   1     -46.850  13.134  23.292  0.00  0.00     0.148 C 
BRANCH   4   5
ATOM      5  N   UNL d   1     -46.155  12.802  23.007  0.00  0.00    -0.235 N 
ATOM      6  C   UNL d   1     -45.656  13.240  22.525  0.00  0.00     0.273 A 
ATOM      7  C   UNL d   1     -44.956  12.905  22.238  0.00  0.00     0.086 A 
ATOM      8  O   UNL d   1     -45.848  14.020  22.321  0.00  0.00    -0.266 OA
ATOM      9  C   UNL d   1     -44.441  13.328  21.751  0.00  0.00     0.012 C 
ATOM     10  S   UNL d   1     -44.771  12.130  22.444  0.00  0.00    -0.077 SA
ATOM     11  C   UNL d   1     -45.267  11.689  22.925  0.00  0.00     0.097 A 
ATOM     12  C   UNL d   1     -45.962  12.021  23.211  0.00  0.00     0.274 A 
ATOM     13  O   UNL d   1     -46.465  11.577  23.698  0.00  0.00    -0.266 OA
ENDBRANCH   4   5
ENDBRANCH   1   4
BRANCH   2  14
ATOM     14  C   UNL d   1     -48.976  13.072  22.830  0.00  0.00     0.087 A 
ATOM     15  C   UNL d   1     -49.270  13.707  22.395  0.00  0.00     0.045 A 
ATOM     16  C   UNL d   1     -49.970  13.631  21.975  0.00  0.00     0.121 A 
ATOM     17  O   UNL d   1     -50.394  14.153  21.501  0.00  0.00    -0.299 OA
ATOM     18  C   UNL d   1     -50.380  12.913  21.989  0.00  0.00     0.119 A 
ATOM     19  C   UNL d   1     -51.064  13.758  21.223  0.00  0.00     0.304 A 
ATOM     20  O   UNL d   1     -51.049  13.005  21.524  0.00  0.00    -0.300 OA
ATOM     21  C   UNL d   1     -50.089  12.275  22.423  0.00  0.00     0.028 A 
ATOM     22  C   UNL d   1     -49.383  12.349  22.849  0.00  0.00     0.021 A 
ENDBRANCH   2  14
TORSDOF 3
ENDMDL
MODEL 5
REMARK VINA RESULT:      -5.5      9.488     10.176
REMARK  3 active torsions:
REMARK  status: ('A' for Active; 'I' for Inactive)
REMARK    1  A    between atoms: C_6  and  N_1 
REMARK    2  A    between atoms: C_5  and  C_6 
REMARK       I    between atoms: N_10  and  C_5 
REMARK    3  A    between atoms: C_16  and  N_10 
ROOT
ATOM      1  C   UNL d   1     -39.149  15.048  19.872  0.00  0.00     0.297 C 
ATOM      2  N   UNL d   1     -38.563  15.114  20.443  0.00  0.00    -0.207 NA
ATOM      3  O   UNL d   1     -39.638  14.379  19.867  0.00  0.00    -0.264 OA
ENDROOT
BRANCH   1   4
ATOM      4  C   UNL d   1     -39.252  15.638  19.310  0.00  0.00     0.148 C 
BRANCH   4   5
ATOM      5  N   UNL d   1     -39.686  15.484  18.629  0.00  0.00    -0.235 N 
ATOM      6  C   UNL d   1     -39.310  15.218  17.950  0.00  0.00     0.273 A 
ATOM      7  C   UNL d   1     -39.747  15.063  17.266  0.00  0.00     0.086 A 
ATOM      8  O   UNL d   1     -38.489  15.101  17.945  0.00  0.00    -0.266 OA
ATOM      9  C   UNL d   1     -39.387  14.794  16.573  0.00  0.00     0.012 C 
ATOM     10  S   UNL d   1     -40.562  15.181  17.279  0.00  0.00    -0.077 SA
ATOM     11  C   UNL d   1     -40.942  15.447  17.954  0.00  0.00     0.097 A 
ATOM     12  C   UNL d   1     -40.508  15.601  18.634  0.00  0.00     0.274 A 
ATOM     13  O   UNL d   1     -40.890  15.870  19.319  0.00  0.00    -0.266 OA
ENDBRANCH   4   5
ENDBRANCH   1   4
BRANCH   2  14
ATOM     14  C   UNL d   1     -38.459  14.526  21.004  0.00  0.00     0.087 A 
ATOM     15  C   UNL d   1     -38.787  14.637  21.752  0.00  0.00     0.045 A 
ATOM     16  C   UNL d   1     -38.697  14.063  22.331  0.00  0.00     0.121 A 
ATOM     17  O   UNL d   1     -38.954  14.016  23.111  0.00  0.00    -0.299 OA
ATOM     18  C   UNL d   1     -38.275  13.373  22.161  0.00  0.00     0.119 A 
ATOM     19  C   UNL d   1     -38.690  13.297  23.422  0.00  0.00     0.304 A 
ATOM     20  O   UNL d   1     -38.278  12.912  22.839  0.00  0.00    -0.300 OA
ATOM     21  C   UNL d   1     -37.945  13.259  21.414  0.00  0.00     0.028 A 
ATOM     22  C   UNL d   1     -38.034  13.836  20.827  0.00  0.00     0.021 A 
ENDBRANCH   2  14
TORSDOF 3
ENDMDL
