MODEL 1
REMARK VINA RESULT:      40.4      0.000      0.000
REMARK  5 active torsions:
REMARK  status: ('A' for Active; 'I' for Inactive)
REMARK    1  A    between atoms: C_5  and  C_1 
REMARK    2  A    between atoms: C_4  and  C_9 
REMARK    3  A    between atoms: N_7  and  C_5 
REMARK    4  A    between atoms: C_10  and  C_5 
REMARK    5  A    between atoms: C_12  and  N_7 
ROOT
ATOM      1  C   UNL d   1      46.375 -18.459  43.418  0.00  0.00     0.086 C 
ENDROOT
BRANCH   1   2
ATOM      2  C   UNL d   1      46.408 -18.337  42.602  0.00  0.00     0.058 A 
ATOM      3  C   UNL d   1      46.465 -18.983  42.091  0.00  0.00     0.214 A 
ATOM      4  C   UNL d   1      46.498 -18.853  41.273  0.00  0.00     0.120 A 
ATOM      5  O   UNL d   1      46.490 -19.744  42.376  0.00  0.00    -0.285 OA
ATOM      6  N   UNL d   1      46.555 -19.496  40.752  0.00  0.00    -0.242 NA
ATOM      7  C   UNL d   1      46.473 -18.086  40.973  0.00  0.00     0.021 A 
ATOM      8  C   UNL d   1      46.588 -19.372  39.939  0.00  0.00     0.082 A 
ATOM      9  C   UNL d   1      46.645 -20.012  39.422  0.00  0.00     0.021 C 
ATOM     10  C   UNL d   1      46.563 -18.597  39.636  0.00  0.00     0.019 A 
ATOM     11  C   UNL d   1      46.505 -17.952  40.161  0.00  0.00     0.003 A 
ATOM     12  C   UNL d   1      46.416 -17.437  41.487  0.00  0.00     0.002 A 
ATOM     13  C   UNL d   1      46.383 -17.562  42.300  0.00  0.00     0.005 A 
ENDBRANCH   1   2
BRANCH   1  14
ATOM     14  N   UNL d   1      46.646 -17.814  43.855  0.00  0.00    -0.245 NA
BRANCH  14  15
ATOM     15  C   UNL d   1      46.151 -17.197  44.034  0.00  0.00     0.081 A 
ATOM     16  C   UNL d   1      46.441 -16.437  44.071  0.00  0.00     0.023 A 
ATOM     17  C   UNL d   1      45.936 -15.803  44.254  0.00  0.00     0.073 A 
ATOM     18  C   UNL d   1      45.131 -15.950  44.400  0.00  0.00     0.004 A 
ATOM     19  C   UNL d   1      44.844 -16.720  44.361  0.00  0.00     0.002 A 
ATOM     20  C   UNL d   1      45.357 -17.338  44.178  0.00  0.00     0.019 A 
BRANCH  17  21
ATOM     21  C   UNL d   1      46.237 -15.038  44.290  0.00  0.00     0.419 C 
ATOM     22  F   UNL d   1      46.509 -14.339  44.333  0.00  0.00    -0.166 F 
ATOM     23  F   UNL d   1      46.241 -14.499  44.955  0.00  0.00    -0.166 F 
ATOM     24  F   UNL d   1      46.624 -14.576  43.685  0.00  0.00    -0.166 F 
ENDBRANCH  17  21
ENDBRANCH  14  15
ENDBRANCH   1  14
BRANCH   1  25
ATOM     25  C   UNL d   1      46.133 -19.081  43.899  0.00  0.00     0.037 A 
ATOM     26  C   UNL d   1      45.371 -19.401  43.808  0.00  0.00     0.100 A 
ATOM     27  N   UNL d   1      45.139 -20.025  44.298  0.00  0.00    -0.242 NA
ATOM     28  C   UNL d   1      45.643 -20.322  44.859  0.00  0.00     0.099 A 
ATOM     29  C   UNL d   1      46.395 -20.007  44.949  0.00  0.00     0.021 A 
ATOM     30  C   UNL d   1      46.643 -19.387  44.472  0.00  0.00     0.005 A 
ENDBRANCH   1  25
TORSDOF 5
ENDMDL
