MODEL 1
REMARK VINA RESULT:     110.6      0.000      0.000
REMARK  4 active torsions:
REMARK  status: ('A' for Active; 'I' for Inactive)
REMARK    1  A    between atoms: N_10  and  C_3 
REMARK    2  A    between atoms: C_11  and  C_4 
REMARK    3  A    between atoms: C_15  and  N_10 
REMARK       I    between atoms: C_12  and  N_13 
REMARK    4  A    between atoms: N_13  and  C_16 
ROOT
ATOM      1  C   UNL d   1      61.016  47.518  50.721  0.00  0.00     0.167 A 
ATOM      2  N   UNL d   1      61.441  47.227  50.084  0.00  0.00    -0.195 N 
ATOM      3  C   UNL d   1      61.503  46.413  49.961  0.00  0.00     0.167 A 
ATOM      4  C   UNL d   1      61.052  48.337  50.701  0.00  0.00     0.057 A 
ATOM      5  N   UNL d   1      61.742  47.865  49.665  0.00  0.00    -0.161 NA
ATOM      6  N   UNL d   1      60.646  46.999  51.247  0.00  0.00    -0.227 NA
ATOM      7  C   UNL d   1      61.132  45.892  50.487  0.00  0.00     0.058 A 
ATOM      8  C   UNL d   1      61.504  48.546  50.043  0.00  0.00     0.124 A 
ATOM      9  C   UNL d   1      60.708  46.182  51.125  0.00  0.00     0.086 A 
ATOM     10  C   UNL d   1      60.344  45.645  51.640  0.00  0.00     0.021 C 
ENDROOT
BRANCH   3  11
ATOM     11  N   UNL d   1      61.927  46.122  49.322  0.00  0.00    -0.227 NA
BRANCH  11  12
ATOM     12  C   UNL d   1      62.133  45.323  49.289  0.00  0.00     0.083 A 
ATOM     13  C   UNL d   1      62.878  45.085  49.549  0.00  0.00     0.021 A 
ATOM     14  C   UNL d   1      63.089  44.280  49.516  0.00  0.00     0.021 A 
ATOM     15  C   UNL d   1      62.556  43.728  49.227  0.00  0.00     0.085 A 
ATOM     16  C   UNL d   1      61.804  43.973  48.965  0.00  0.00     0.021 A 
ATOM     17  C   UNL d   1      61.597  44.769  48.998  0.00  0.00     0.021 A 
BRANCH  15  18
ATOM     18  N   UNL d   1      62.770  42.920  49.195  0.00  0.00    -0.208 NA
ATOM     19  C   UNL d   1      62.938  42.502  49.886  0.00  0.00     0.279 C 
ATOM     20  O   UNL d   1      63.152  41.695  49.851  0.00  0.00    -0.265 OA
ATOM     21  C   UNL d   1      62.896  42.883  50.611  0.00  0.00     0.068 C 
ENDBRANCH  15  18
ENDBRANCH  11  12
ENDBRANCH   3  11
BRANCH   4  22
ATOM     22  C   UNL d   1      60.674  48.795  51.276  0.00  0.00     0.004 A 
ATOM     23  C   UNL d   1      59.858  48.901  51.231  0.00  0.00     0.000 A 
ATOM     24  C   UNL d   1      59.473  49.356  51.801  0.00  0.00     0.000 A 
ATOM     25  C   UNL d   1      59.908  49.707  52.419  0.00  0.00     0.000 A 
ATOM     26  C   UNL d   1      60.720  49.596  52.456  0.00  0.00     0.000 A 
ATOM     27  C   UNL d   1      61.102  49.139  51.883  0.00  0.00     0.000 A 
ENDBRANCH   4  22
TORSDOF 4
ENDMDL
MODEL 2
REMARK VINA RESULT:     111.7      2.489      5.390
REMARK  4 active torsions:
REMARK  status: ('A' for Active; 'I' for Inactive)
REMARK    1  A    between atoms: N_10  and  C_3 
REMARK    2  A    between atoms: C_11  and  C_4 
REMARK    3  A    between atoms: C_15  and  N_10 
REMARK       I    between atoms: C_12  and  N_13 
REMARK    4  A    between atoms: N_13  and  C_16 
ROOT
ATOM      1  C   UNL d   1      61.221  46.745  50.557  0.00  0.00     0.167 A 
ATOM      2  N   UNL d   1      60.912  47.377  50.978  0.00  0.00    -0.195 N 
ATOM      3  C   UNL d   1      61.040  48.151  50.721  0.00  0.00     0.167 A 
ATOM      4  C   UNL d   1      61.006  46.053  50.941  0.00  0.00     0.057 A 
ATOM      5  N   UNL d   1      60.506  47.079  51.625  0.00  0.00    -0.161 NA
ATOM      6  N   UNL d   1      61.662  46.877  49.871  0.00  0.00    -0.227 NA
ATOM      7  C   UNL d   1      61.482  48.285  50.033  0.00  0.00     0.058 A 
ATOM      8  C   UNL d   1      60.563  46.267  51.603  0.00  0.00     0.124 A 
ATOM      9  C   UNL d   1      61.790  47.654  49.612  0.00  0.00     0.086 A 
ATOM     10  C   UNL d   1      62.230  47.807  48.927  0.00  0.00     0.021 C 
ENDROOT
BRANCH   3  11
ATOM     11  N   UNL d   1      60.731  48.783  51.142  0.00  0.00    -0.227 NA
BRANCH  11  12
ATOM     12  C   UNL d   1      59.947  49.016  51.030  0.00  0.00     0.083 A 
ATOM     13  C   UNL d   1      59.373  48.784  51.574  0.00  0.00     0.021 A 
ATOM     14  C   UNL d   1      58.581  49.016  51.464  0.00  0.00     0.021 A 
ATOM     15  C   UNL d   1      58.375  49.473  50.815  0.00  0.00     0.085 A 
ATOM     16  C   UNL d   1      58.958  49.705  50.268  0.00  0.00     0.021 A 
ATOM     17  C   UNL d   1      59.740  49.475  50.378  0.00  0.00     0.021 A 
BRANCH  15  18
ATOM     18  N   UNL d   1      57.579  49.706  50.706  0.00  0.00    -0.208 NA
ATOM     19  C   UNL d   1      57.161  49.474  50.034  0.00  0.00     0.279 C 
ATOM     20  O   UNL d   1      56.366  49.708  49.928  0.00  0.00    -0.265 OA
ATOM     21  C   UNL d   1      57.531  49.012  49.466  0.00  0.00     0.068 C 
ENDBRANCH  15  18
ENDBRANCH  11  12
ENDBRANCH   3  11
BRANCH   4  22
ATOM     22  C   UNL d   1      61.236  45.315  50.648  0.00  0.00     0.004 A 
ATOM     23  C   UNL d   1      60.925  45.054  49.930  0.00  0.00     0.000 A 
ATOM     24  C   UNL d   1      61.149  44.318  49.631  0.00  0.00     0.000 A 
ATOM     25  C   UNL d   1      61.688  43.842  50.053  0.00  0.00     0.000 A 
ATOM     26  C   UNL d   1      61.992  44.111  50.766  0.00  0.00     0.000 A 
ATOM     27  C   UNL d   1      61.765  44.847  51.062  0.00  0.00     0.000 A 
ENDBRANCH   4  22
TORSDOF 4
ENDMDL
