MODEL 1
REMARK VINA RESULT:      -8.3      0.000      0.000
REMARK  4 active torsions:
REMARK  status: ('A' for Active; 'I' for Inactive)
REMARK    1  A    between atoms: N_8  and  C_1 
REMARK    2  A    between atoms: C_12  and  C_2 
REMARK    3  A    between atoms: C_4  and  C_10 
REMARK       I    between atoms: C_10  and  N_8 
REMARK       I    between atoms: C_14  and  N_11 
REMARK    4  A    between atoms: O_22  and  C_12 
ROOT
ATOM      1  C   UNL d   1      51.425  33.842  53.161  0.00  0.00     0.119 A 
ATOM      2  C   UNL d   1      52.215  33.982  53.339  0.00  0.00     0.088 A 
ATOM      3  C   UNL d   1      52.068  32.675  53.127  0.00  0.00     0.049 A 
ATOM      4  C   UNL d   1      52.614  33.256  53.318  0.00  0.00     0.016 A 
ATOM      5  S   UNL d   1      51.335  33.026  53.029  0.00  0.00    -0.066 SA
ATOM      6  N   UNL d   1      53.101  31.685  53.196  0.00  0.00    -0.272 N 
ATOM      7  C   UNL d   1      52.321  31.881  53.067  0.00  0.00     0.089 A 
ATOM      8  C   UNL d   1      53.361  30.900  53.139  0.00  0.00     0.265 C 
ATOM      9  C   UNL d   1      53.408  33.064  53.450  0.00  0.00     0.020 A 
ATOM     10  C   UNL d   1      53.649  32.281  53.389  0.00  0.00     0.083 A 
ATOM     11  O   UNL d   1      52.819  30.310  52.947  0.00  0.00    -0.267 OA
ATOM     12  C   UNL d   1      54.144  30.702  53.268  0.00  0.00     0.066 C 
ENDROOT
BRANCH   1  13
ATOM     13  N   UNL d   1      50.821  34.412  53.119  0.00  0.00    -0.200 NA
ATOM     14  C   UNL d   1      50.075  34.190  52.841  0.00  0.00     0.303 C 
ATOM     15  O   UNL d   1      49.923  33.422  52.607  0.00  0.00    -0.263 OA
BRANCH  14  16
ATOM     16  C   UNL d   1      49.476  34.755  52.799  0.00  0.00     0.169 A 
ATOM     17  N   UNL d   1      49.259  35.291  53.399  0.00  0.00    -0.234 NA
ATOM     18  C   UNL d   1      48.624  35.749  53.095  0.00  0.00     0.088 A 
ATOM     19  C   UNL d   1      48.181  36.361  53.427  0.00  0.00     0.020 A 
ATOM     20  C   UNL d   1      48.479  35.477  52.326  0.00  0.00     0.049 A 
ATOM     21  C   UNL d   1      47.579  36.709  52.977  0.00  0.00     0.002 A 
ATOM     22  C   UNL d   1      47.430  36.441  52.207  0.00  0.00     0.001 A 
ATOM     23  C   UNL d   1      47.875  35.832  51.886  0.00  0.00     0.008 A 
ATOM     24  S   UNL d   1      49.003  34.874  52.160  0.00  0.00    -0.062 SA
ENDBRANCH  14  16
ENDBRANCH   1  13
BRANCH   2  25
ATOM     25  C   UNL d   1      52.546  34.710  53.507  0.00  0.00     0.298 C 
ATOM     26  O   UNL d   1      52.833  35.181  52.896  0.00  0.00    -0.259 OA
BRANCH  25  27
ATOM     27  O   UNL d   1      52.591  34.975  54.301  0.00  0.00    -0.296 OA
ATOM     28  C   UNL d   1      52.976  35.682  54.480  0.00  0.00     0.185 C 
ENDBRANCH  25  27
ENDBRANCH   2  25
TORSDOF 4
ENDMDL
MODEL 2
REMARK VINA RESULT:      -7.4      1.549      2.631
REMARK  4 active torsions:
REMARK  status: ('A' for Active; 'I' for Inactive)
REMARK    1  A    between atoms: N_8  and  C_1 
REMARK    2  A    between atoms: C_12  and  C_2 
REMARK    3  A    between atoms: C_4  and  C_10 
REMARK       I    between atoms: C_10  and  N_8 
REMARK       I    between atoms: C_14  and  N_11 
REMARK    4  A    between atoms: O_22  and  C_12 
ROOT
ATOM      1  C   UNL d   1      52.113  33.596  53.218  0.00  0.00     0.119 A 
ATOM      2  C   UNL d   1      52.559  32.910  53.287  0.00  0.00     0.088 A 
ATOM      3  C   UNL d   1      53.155  33.862  54.006  0.00  0.00     0.049 A 
ATOM      4  C   UNL d   1      53.207  33.076  53.777  0.00  0.00     0.016 A 
ATOM      5  S   UNL d   1      52.486  34.189  53.666  0.00  0.00    -0.066 SA
ATOM      6  N   UNL d   1      54.359  33.719  54.767  0.00  0.00    -0.272 N 
ATOM      7  C   UNL d   1      53.741  34.182  54.506  0.00  0.00     0.089 A 
ATOM      8  C   UNL d   1      54.947  34.026  55.264  0.00  0.00     0.265 C 
ATOM      9  C   UNL d   1      53.832  32.600  54.038  0.00  0.00     0.020 A 
ATOM     10  C   UNL d   1      54.405  32.921  54.531  0.00  0.00     0.083 A 
ATOM     11  O   UNL d   1      54.901  34.815  55.497  0.00  0.00    -0.267 OA
ATOM     12  C   UNL d   1      55.567  33.564  55.526  0.00  0.00     0.066 C 
ENDROOT
BRANCH   1  13
ATOM     13  N   UNL d   1      51.413  33.687  52.778  0.00  0.00    -0.200 NA
ATOM     14  C   UNL d   1      50.993  34.396  52.827  0.00  0.00     0.303 C 
ATOM     15  O   UNL d   1      51.254  35.009  53.301  0.00  0.00    -0.263 OA
BRANCH  14  16
ATOM     16  C   UNL d   1      50.299  34.485  52.391  0.00  0.00     0.169 A 
ATOM     17  N   UNL d   1      50.174  34.241  51.605  0.00  0.00    -0.234 NA
ATOM     18  C   UNL d   1      49.385  34.452  51.408  0.00  0.00     0.088 A 
ATOM     19  C   UNL d   1      48.947  34.355  50.716  0.00  0.00     0.020 A 
ATOM     20  C   UNL d   1      49.060  34.815  52.079  0.00  0.00     0.049 A 
ATOM     21  C   UNL d   1      48.165  34.628  50.695  0.00  0.00     0.002 A 
ATOM     22  C   UNL d   1      47.836  34.992  51.363  0.00  0.00     0.001 A 
ATOM     23  C   UNL d   1      48.279  35.084  52.046  0.00  0.00     0.008 A 
ATOM     24  S   UNL d   1      49.626  34.828  52.667  0.00  0.00    -0.062 SA
ENDBRANCH  14  16
ENDBRANCH   1  13
BRANCH   2  25
ATOM     25  C   UNL d   1      52.392  32.192  52.935  0.00  0.00     0.298 C 
ATOM     26  O   UNL d   1      52.685  32.026  52.184  0.00  0.00    -0.259 OA
BRANCH  25  27
ATOM     27  O   UNL d   1      51.921  31.628  53.339  0.00  0.00    -0.296 OA
ATOM     28  C   UNL d   1      51.930  30.838  53.103  0.00  0.00     0.185 C 
ENDBRANCH  25  27
ENDBRANCH   2  25
TORSDOF 4
ENDMDL
MODEL 3
REMARK VINA RESULT:      -6.1     10.353     11.403
REMARK  4 active torsions:
REMARK  status: ('A' for Active; 'I' for Inactive)
REMARK    1  A    between atoms: N_8  and  C_1 
REMARK    2  A    between atoms: C_12  and  C_2 
REMARK    3  A    between atoms: C_4  and  C_10 
REMARK       I    between atoms: C_10  and  N_8 
REMARK       I    between atoms: C_14  and  N_11 
REMARK    4  A    between atoms: O_22  and  C_12 
ROOT
ATOM      1  C   UNL d   1      44.707  28.981  59.622  0.00  0.00     0.119 A 
ATOM      2  C   UNL d   1      44.808  29.795  59.567  0.00  0.00     0.088 A 
ATOM      3  C   UNL d   1      44.596  29.494  60.847  0.00  0.00     0.049 A 
ATOM      4  C   UNL d   1      44.739  30.113  60.329  0.00  0.00     0.016 A 
ATOM      5  S   UNL d   1      44.574  28.795  60.422  0.00  0.00    -0.066 SA
ATOM      6  N   UNL d   1      44.551  30.420  61.939  0.00  0.00    -0.272 N 
ATOM      7  C   UNL d   1      44.501  29.656  61.661  0.00  0.00     0.089 A 
ATOM      8  C   UNL d   1      44.459  30.592  62.744  0.00  0.00     0.265 C 
ATOM      9  C   UNL d   1      44.791  30.892  60.604  0.00  0.00     0.020 A 
ATOM     10  C   UNL d   1      44.697  31.043  61.406  0.00  0.00     0.083 A 
ATOM     11  O   UNL d   1      44.315  29.975  63.271  0.00  0.00    -0.267 OA
ATOM     12  C   UNL d   1      44.508  31.358  63.024  0.00  0.00     0.066 C 
ENDROOT
BRANCH   1  13
ATOM     13  N   UNL d   1      44.731  28.438  58.993  0.00  0.00    -0.200 NA
ATOM     14  C   UNL d   1      44.678  27.630  59.155  0.00  0.00     0.303 C 
ATOM     15  O   UNL d   1      44.602  27.357  59.922  0.00  0.00    -0.263 OA
BRANCH  14  16
ATOM     16  C   UNL d   1      44.703  27.091  58.532  0.00  0.00     0.169 A 
ATOM     17  N   UNL d   1      44.962  27.244  57.755  0.00  0.00    -0.234 NA
ATOM     18  C   UNL d   1      44.882  26.526  57.327  0.00  0.00     0.088 A 
ATOM     19  C   UNL d   1      45.048  26.334  56.542  0.00  0.00     0.020 A 
ATOM     20  C   UNL d   1      44.579  25.964  57.856  0.00  0.00     0.049 A 
ATOM     21  C   UNL d   1      44.906  25.560  56.280  0.00  0.00     0.002 A 
ATOM     22  C   UNL d   1      44.603  24.995  56.806  0.00  0.00     0.001 A 
ATOM     23  C   UNL d   1      44.441  25.196  57.583  0.00  0.00     0.008 A 
ATOM     24  S   UNL d   1      44.475  26.322  58.582  0.00  0.00    -0.062 SA
ENDBRANCH  14  16
ENDBRANCH   1  13
BRANCH   2  25
ATOM     25  C   UNL d   1      44.952  30.214  58.880  0.00  0.00     0.298 C 
ATOM     26  O   UNL d   1      45.722  30.428  58.684  0.00  0.00    -0.259 OA
BRANCH  25  27
ATOM     27  O   UNL d   1      44.314  30.423  58.378  0.00  0.00    -0.296 OA
ATOM     28  C   UNL d   1      44.450  30.884  57.707  0.00  0.00     0.185 C 
ENDBRANCH  25  27
ENDBRANCH   2  25
TORSDOF 4
ENDMDL
MODEL 4
REMARK VINA RESULT:      -6.1     10.420     11.023
REMARK  4 active torsions:
REMARK  status: ('A' for Active; 'I' for Inactive)
REMARK    1  A    between atoms: N_8  and  C_1 
REMARK    2  A    between atoms: C_12  and  C_2 
REMARK    3  A    between atoms: C_4  and  C_10 
REMARK       I    between atoms: C_10  and  N_8 
REMARK       I    between atoms: C_14  and  N_11 
REMARK    4  A    between atoms: O_22  and  C_12 
ROOT
ATOM      1  C   UNL d   1      44.698  28.506  59.230  0.00  0.00     0.119 A 
ATOM      2  C   UNL d   1      44.849  28.588  58.426  0.00  0.00     0.088 A 
ATOM      3  C   UNL d   1      44.667  27.292  58.679  0.00  0.00     0.049 A 
ATOM      4  C   UNL d   1      44.829  27.834  58.085  0.00  0.00     0.016 A 
ATOM      5  S   UNL d   1      44.585  27.697  59.386  0.00  0.00    -0.066 SA
ATOM      6  N   UNL d   1      44.724  26.227  57.723  0.00  0.00    -0.272 N 
ATOM      7  C   UNL d   1      44.615  26.481  58.490  0.00  0.00     0.089 A 
ATOM      8  C   UNL d   1      44.674  25.424  57.525  0.00  0.00     0.265 C 
ATOM      9  C   UNL d   1      44.941  27.583  57.304  0.00  0.00     0.020 A 
ATOM     10  C   UNL d   1      44.888  26.783  57.125  0.00  0.00     0.083 A 
ATOM     11  O   UNL d   1      44.511  24.875  58.117  0.00  0.00    -0.267 OA
ATOM     12  C   UNL d   1      44.783  25.169  56.756  0.00  0.00     0.066 C 
ENDROOT
BRANCH   1  13
ATOM     13  N   UNL d   1      44.664  29.119  59.791  0.00  0.00    -0.200 NA
ATOM     14  C   UNL d   1      44.472  28.941  60.574  0.00  0.00     0.303 C 
ATOM     15  O   UNL d   1      44.317  28.173  60.806  0.00  0.00    -0.263 OA
BRANCH  14  16
ATOM     16  C   UNL d   1      44.438  29.549  61.129  0.00  0.00     0.169 A 
ATOM     17  N   UNL d   1      44.394  30.365  60.968  0.00  0.00    -0.234 NA
ATOM     18  C   UNL d   1      44.372  30.758  61.710  0.00  0.00     0.088 A 
ATOM     19  C   UNL d   1      44.328  31.558  61.906  0.00  0.00     0.020 A 
ATOM     20  C   UNL d   1      44.403  30.170  62.293  0.00  0.00     0.049 A 
ATOM     21  C   UNL d   1      44.315  31.774  62.706  0.00  0.00     0.002 A 
ATOM     22  C   UNL d   1      44.346  31.189  63.293  0.00  0.00     0.001 A 
ATOM     23  C   UNL d   1      44.389  30.398  63.088  0.00  0.00     0.008 A 
ATOM     24  S   UNL d   1      44.443  29.442  61.926  0.00  0.00    -0.062 SA
ENDBRANCH  14  16
ENDBRANCH   1  13
BRANCH   2  25
ATOM     25  C   UNL d   1      44.992  29.292  58.036  0.00  0.00     0.298 C 
ATOM     26  O   UNL d   1      45.754  29.600  58.015  0.00  0.00    -0.259 OA
BRANCH  25  27
ATOM     27  O   UNL d   1      44.362  29.696  57.659  0.00  0.00    -0.296 OA
ATOM     28  C   UNL d   1      44.516  30.361  57.196  0.00  0.00     0.185 C 
ENDBRANCH  25  27
ENDBRANCH   2  25
TORSDOF 4
ENDMDL
MODEL 5
REMARK VINA RESULT:      -6.0      9.591     10.194
REMARK  4 active torsions:
REMARK  status: ('A' for Active; 'I' for Inactive)
REMARK    1  A    between atoms: N_8  and  C_1 
REMARK    2  A    between atoms: C_12  and  C_2 
REMARK    3  A    between atoms: C_4  and  C_10 
REMARK       I    between atoms: C_10  and  N_8 
REMARK       I    between atoms: C_14  and  N_11 
REMARK    4  A    between atoms: O_22  and  C_12 
ROOT
ATOM      1  C   UNL d   1      44.779  27.194  57.069  0.00  0.00     0.119 A 
ATOM      2  C   UNL d   1      44.866  26.589  57.618  0.00  0.00     0.088 A 
ATOM      3  C   UNL d   1      44.707  26.033  56.418  0.00  0.00     0.049 A 
ATOM      4  C   UNL d   1      44.821  25.868  57.213  0.00  0.00     0.016 A 
ATOM      5  S   UNL d   1      44.680  26.845  56.321  0.00  0.00    -0.066 SA
ATOM      6  N   UNL d   1      44.691  24.630  56.130  0.00  0.00    -0.272 N 
ATOM      7  C   UNL d   1      44.642  25.402  55.874  0.00  0.00     0.089 A 
ATOM      8  C   UNL d   1      44.627  23.997  55.599  0.00  0.00     0.265 C 
ATOM      9  C   UNL d   1      44.872  25.085  57.479  0.00  0.00     0.020 A 
ATOM     10  C   UNL d   1      44.807  24.470  56.939  0.00  0.00     0.083 A 
ATOM     11  O   UNL d   1      44.512  24.155  54.798  0.00  0.00    -0.267 OA
ATOM     12  C   UNL d   1      44.676  23.222  55.854  0.00  0.00     0.066 C 
ENDROOT
BRANCH   1  13
ATOM     13  N   UNL d   1      44.787  28.010  57.229  0.00  0.00    -0.200 NA
ATOM     14  C   UNL d   1      44.554  28.540  56.640  0.00  0.00     0.303 C 
ATOM     15  O   UNL d   1      44.316  28.275  55.904  0.00  0.00    -0.263 OA
BRANCH  14  16
ATOM     16  C   UNL d   1      44.562  29.348  56.799  0.00  0.00     0.169 A 
ATOM     17  N   UNL d   1      44.731  29.707  57.531  0.00  0.00    -0.234 NA
ATOM     18  C   UNL d   1      44.670  30.537  57.414  0.00  0.00     0.088 A 
ATOM     19  C   UNL d   1      44.774  31.173  57.929  0.00  0.00     0.020 A 
ATOM     20  C   UNL d   1      44.467  30.652  56.619  0.00  0.00     0.049 A 
ATOM     21  C   UNL d   1      44.672  31.943  57.640  0.00  0.00     0.002 A 
ATOM     22  C   UNL d   1      44.469  32.063  56.846  0.00  0.00     0.001 A 
ATOM     23  C   UNL d   1      44.368  31.425  56.342  0.00  0.00     0.008 A 
ATOM     24  S   UNL d   1      44.405  29.923  56.258  0.00  0.00    -0.062 SA
ENDBRANCH  14  16
ENDBRANCH   1  13
BRANCH   2  25
ATOM     25  C   UNL d   1      44.977  26.685  58.422  0.00  0.00     0.298 C 
ATOM     26  O   UNL d   1      45.738  26.763  58.724  0.00  0.00    -0.259 OA
BRANCH  25  27
ATOM     27  O   UNL d   1      44.315  26.704  58.936  0.00  0.00    -0.296 OA
ATOM     28  C   UNL d   1      44.421  26.842  59.742  0.00  0.00     0.185 C 
ENDBRANCH  25  27
ENDBRANCH   2  25
TORSDOF 4
ENDMDL
MODEL 6
REMARK VINA RESULT:      -5.5     11.154     12.250
REMARK  4 active torsions:
REMARK  status: ('A' for Active; 'I' for Inactive)
REMARK    1  A    between atoms: N_8  and  C_1 
REMARK    2  A    between atoms: C_12  and  C_2 
REMARK    3  A    between atoms: C_4  and  C_10 
REMARK       I    between atoms: C_10  and  N_8 
REMARK       I    between atoms: C_14  and  N_11 
REMARK    4  A    between atoms: O_22  and  C_12 
ROOT
ATOM      1  C   UNL d   1      44.870  24.084  55.085  0.00  0.00     0.119 A 
ATOM      2  C   UNL d   1      44.965  23.287  54.911  0.00  0.00     0.088 A 
ATOM      3  C   UNL d   1      44.766  23.937  53.764  0.00  0.00     0.049 A 
ATOM      4  C   UNL d   1      44.901  23.196  54.089  0.00  0.00     0.016 A 
ATOM      5  S   UNL d   1      44.746  24.488  54.369  0.00  0.00    -0.066 SA
ATOM      6  N   UNL d   1      44.726  23.354  52.457  0.00  0.00    -0.272 N 
ATOM      7  C   UNL d   1      44.679  24.010  52.937  0.00  0.00     0.089 A 
ATOM      8  C   UNL d   1      44.640  23.416  51.635  0.00  0.00     0.265 C 
ATOM      9  C   UNL d   1      44.950  22.525  53.607  0.00  0.00     0.020 A 
ATOM     10  C   UNL d   1      44.863  22.605  52.794  0.00  0.00     0.083 A 
ATOM     11  O   UNL d   1      44.504  24.157  51.301  0.00  0.00    -0.267 OA
ATOM     12  C   UNL d   1      44.687  22.759  51.152  0.00  0.00     0.066 C 
ENDROOT
BRANCH   1  13
ATOM     13  N   UNL d   1      44.892  24.429  55.842  0.00  0.00    -0.200 NA
ATOM     14  C   UNL d   1      44.649  25.213  55.936  0.00  0.00     0.303 C 
ATOM     15  O   UNL d   1      44.388  25.653  55.298  0.00  0.00    -0.263 OA
BRANCH  14  16
ATOM     16  C   UNL d   1      44.672  25.555  56.685  0.00  0.00     0.169 A 
ATOM     17  N   UNL d   1      44.334  25.245  57.381  0.00  0.00    -0.234 NA
ATOM     18  C   UNL d   1      44.504  25.791  57.996  0.00  0.00     0.088 A 
ATOM     19  C   UNL d   1      44.317  25.787  58.800  0.00  0.00     0.020 A 
ATOM     20  C   UNL d   1      44.936  26.410  57.655  0.00  0.00     0.049 A 
ATOM     21  C   UNL d   1      44.568  26.420  59.272  0.00  0.00     0.002 A 
ATOM     22  C   UNL d   1      45.000  27.041  58.935  0.00  0.00     0.001 A 
ATOM     23  C   UNL d   1      45.181  27.036  58.136  0.00  0.00     0.008 A 
ATOM     24  S   UNL d   1      45.030  26.254  56.859  0.00  0.00    -0.062 SA
ENDBRANCH  14  16
ENDBRANCH   1  13
BRANCH   2  25
ATOM     25  C   UNL d   1      45.100  22.691  55.453  0.00  0.00     0.298 C 
ATOM     26  O   UNL d   1      44.465  22.274  55.769  0.00  0.00    -0.259 OA
BRANCH  25  27
ATOM     27  O   UNL d   1      45.885  22.507  55.686  0.00  0.00    -0.296 OA
ATOM     28  C   UNL d   1      46.026  21.883  56.206  0.00  0.00     0.185 C 
ENDBRANCH  25  27
ENDBRANCH   2  25
TORSDOF 4
ENDMDL
