MODEL 1
REMARK VINA RESULT:      84.0      0.000      0.000
REMARK  3 active torsions:
REMARK  status: ('A' for Active; 'I' for Inactive)
REMARK    1  A    between atoms: N_9  and  C_3 
REMARK    2  A    between atoms: C_12  and  C_5 
REMARK    3  A    between atoms: C_17  and  N_10 
ROOT
ATOM      1  N   UNL d   1     -50.734  25.695  33.901  0.00  0.00    -0.196 N 
ATOM      2  C   UNL d   1     -51.073  24.971  33.695  0.00  0.00     0.167 A 
ATOM      3  C   UNL d   1     -49.916  25.779  33.910  0.00  0.00     0.152 A 
ATOM      4  N   UNL d   1     -51.339  26.225  34.067  0.00  0.00    -0.163 NA
ATOM      5  C   UNL d   1     -51.889  25.051  33.734  0.00  0.00     0.055 A 
ATOM      6  C   UNL d   1     -52.057  25.820  33.963  0.00  0.00     0.104 A 
ATOM      7  N   UNL d   1     -50.593  24.331  33.499  0.00  0.00    -0.227 NA
ATOM      8  C   UNL d   1     -49.428  25.137  33.713  0.00  0.00     0.057 A 
ATOM      9  C   UNL d   1     -49.766  24.413  33.507  0.00  0.00     0.086 A 
ATOM     10  C   UNL d   1     -52.809  26.142  34.071  0.00  0.00     0.023 C 
ATOM     11  C   UNL d   1     -49.284  23.768  33.310  0.00  0.00     0.021 C 
ENDROOT
BRANCH   3  12
ATOM     12  N   UNL d   1     -49.574  26.509  34.117  0.00  0.00    -0.286 N 
ATOM     13  C   UNL d   1     -49.567  26.752  34.912  0.00  0.00     0.101 A 
ATOM     14  C   UNL d   1     -49.229  27.476  35.117  0.00  0.00     0.100 A 
ATOM     15  N   UNL d   1     -48.897  27.957  34.527  0.00  0.00    -0.301 N 
ATOM     16  C   UNL d   1     -48.905  27.714  33.742  0.00  0.00     0.100 A 
ATOM     17  C   UNL d   1     -49.243  26.990  33.536  0.00  0.00     0.101 A 
BRANCH  15  18
ATOM     18  C   UNL d   1     -48.556  28.684  34.734  0.00  0.00     0.064 A 
ATOM     19  C   UNL d   1     -48.898  29.388  34.475  0.00  0.00     0.018 A 
ATOM     20  C   UNL d   1     -48.441  30.013  34.765  0.00  0.00     0.002 A 
ATOM     21  C   UNL d   1     -47.822  29.692  35.199  0.00  0.00     0.002 A 
ATOM     22  C   UNL d   1     -47.888  28.881  35.183  0.00  0.00     0.018 A 
ENDBRANCH  15  18
ENDBRANCH   3  12
BRANCH   5  23
ATOM     23  C   UNL d   1     -52.504  24.524  33.592  0.00  0.00     0.004 A 
ATOM     24  C   UNL d   1     -53.286  24.804  33.535  0.00  0.00     0.000 A 
ATOM     25  C   UNL d   1     -53.901  24.276  33.392  0.00  0.00     0.000 A 
ATOM     26  C   UNL d   1     -53.746  23.470  33.306  0.00  0.00     0.000 A 
ATOM     27  C   UNL d   1     -52.973  23.188  33.362  0.00  0.00     0.000 A 
ATOM     28  C   UNL d   1     -52.349  23.718  33.505  0.00  0.00     0.000 A 
ENDBRANCH   5  23
TORSDOF 3
ENDMDL
