MODEL 1
REMARK VINA RESULT:      46.7      0.000      0.000
REMARK  3 active torsions:
REMARK  status: ('A' for Active; 'I' for Inactive)
REMARK    1  A    between atoms: C_4  and  C_1 
REMARK       I    between atoms: N_7  and  C_4 
REMARK    2  A    between atoms: C_9  and  N_7 
REMARK    3  A    between atoms: N_8  and  C_11 
ROOT
ATOM      1  C   UNL d   1      59.149  49.435  50.291  0.00  0.00     0.263 C 
ATOM      2  N   UNL d   1      58.420  49.621  50.624  0.00  0.00    -0.210 NA
ATOM      3  O   UNL d   1      59.211  49.265  49.485  0.00  0.00    -0.270 OA
ENDROOT
BRANCH   1   4
ATOM      4  C   UNL d   1      59.681  49.474  50.926  0.00  0.00     0.113 A 
ATOM      5  C   UNL d   1      60.323  49.512  52.181  0.00  0.00     0.025 A 
ATOM      6  C   UNL d   1      60.145  49.508  51.437  0.00  0.00     0.074 A 
ATOM      7  C   UNL d   1      60.044  49.473  52.962  0.00  0.00     0.002 C 
ATOM      8  C   UNL d   1      61.097  49.579  52.470  0.00  0.00     0.002 C 
ATOM      9  C   UNL d   1      60.955  49.581  51.591  0.00  0.00     0.012 C 
ATOM     10  C   UNL d   1      59.438  49.445  51.303  0.00  0.00    -0.023 A 
ATOM     11  C   UNL d   1      60.626  49.565  50.740  0.00  0.00     0.172 A 
ATOM     12  C   UNL d   1      58.883  49.400  50.893  0.00  0.00    -0.018 A 
ATOM     13  C   UNL d   1      60.141  49.527  50.335  0.00  0.00     0.024 A 
ATOM     14  O   UNL d   1      61.444  49.643  50.631  0.00  0.00    -0.291 OA
ENDBRANCH   1   4
BRANCH   2  15
ATOM     15  C   UNL d   1      57.743  49.636  50.141  0.00  0.00     0.100 A 
ATOM     16  C   UNL d   1      56.998  49.610  50.494  0.00  0.00     0.082 A 
ATOM     17  C   UNL d   1      56.328  49.625  50.016  0.00  0.00     0.019 A 
ATOM     18  C   UNL d   1      56.399  49.666  49.189  0.00  0.00     0.002 A 
ATOM     19  C   UNL d   1      57.151  49.692  48.849  0.00  0.00     0.002 A 
ATOM     20  C   UNL d   1      57.821  49.677  49.323  0.00  0.00     0.021 A 
BRANCH  16  21
ATOM     21  N   UNL d   1      56.929  49.569  51.316  0.00  0.00    -0.302 N 
ATOM     22  C   UNL d   1      57.550  49.645  51.853  0.00  0.00     0.080 A 
ATOM     23  C   UNL d   1      57.237  49.569  52.620  0.00  0.00     0.021 A 
ATOM     24  C   UNL d   1      56.422  49.446  52.546  0.00  0.00     0.021 A 
ATOM     25  C   UNL d   1      56.230  49.446  51.740  0.00  0.00     0.080 A 
ENDBRANCH  16  21
ENDBRANCH   2  15
TORSDOF 3
ENDMDL
