MODEL 1
REMARK VINA RESULT:      15.5      0.000      0.000
REMARK  2 active torsions:
REMARK  status: ('A' for Active; 'I' for Inactive)
REMARK    1  A    between atoms: N_2  and  C_9 
REMARK    2  A    between atoms: C_11  and  C_7 
ROOT
ATOM      1  C   UNL d   1      46.392 -18.617  43.080  0.00  0.00     0.110 A 
ATOM      2  C   UNL d   1      46.512 -18.676  41.754  0.00  0.00     0.332 A 
ATOM      3  C   UNL d   1      46.572 -19.389  42.876  0.00  0.00     0.060 A 
ATOM      4  S   UNL d   1      46.647 -19.429  42.063  0.00  0.00    -0.018 SA
ATOM      5  O   UNL d   1      46.354 -18.175  42.395  0.00  0.00    -0.268 OA
ATOM      6  C   UNL d   1      46.284 -18.411  43.870  0.00  0.00     0.027 A 
ATOM      7  C   UNL d   1      46.646 -19.969  43.478  0.00  0.00     0.051 A 
ATOM      8  C   UNL d   1      46.355 -18.977  44.465  0.00  0.00     0.044 A 
ATOM      9  O   UNL d   1      46.532 -18.462  40.957  0.00  0.00    -0.251 OA
ATOM     10  C   UNL d   1      46.536 -19.751  44.268  0.00  0.00     0.196 A 
ATOM     11  O   UNL d   1      46.610 -20.330  44.865  0.00  0.00    -0.286 OA
ENDROOT
BRANCH   6  12
ATOM     12  C   UNL d   1      46.102 -17.632  44.072  0.00  0.00     0.002 A 
ATOM     13  C   UNL d   1      45.611 -17.483  44.723  0.00  0.00     0.002 A 
ATOM     14  C   UNL d   1      45.426 -16.701  44.929  0.00  0.00     0.024 A 
ATOM     15  C   UNL d   1      45.733 -16.073  44.483  0.00  0.00     0.127 A 
ATOM     16  C   UNL d   1      46.219 -16.225  43.837  0.00  0.00     0.024 A 
ATOM     17  C   UNL d   1      46.405 -17.007  43.631  0.00  0.00     0.002 A 
BRANCH  15  18
ATOM     18  N   UNL d   1      45.550 -15.285  44.686  0.00  0.00    -0.114 N 
ATOM     19  O   UNL d   1      44.777 -15.084  44.888  0.00  0.00    -0.532 OA
ATOM     20  O   UNL d   1      46.140 -14.713  44.683  0.00  0.00    -0.532 OA
ENDBRANCH  15  18
ENDBRANCH   6  12
TORSDOF 2
ENDMDL
MODEL 2
REMARK VINA RESULT:      18.0      0.698      2.024
REMARK  2 active torsions:
REMARK  status: ('A' for Active; 'I' for Inactive)
REMARK    1  A    between atoms: N_2  and  C_9 
REMARK    2  A    between atoms: C_11  and  C_7 
ROOT
ATOM      1  C   UNL d   1      46.323 -18.921  43.351  0.00  0.00     0.110 A 
ATOM      2  C   UNL d   1      46.373 -19.911  44.242  0.00  0.00     0.332 A 
ATOM      3  C   UNL d   1      46.498 -19.615  42.951  0.00  0.00     0.060 A 
ATOM      4  S   UNL d   1      46.529 -20.223  43.495  0.00  0.00    -0.018 SA
ATOM      5  O   UNL d   1      46.246 -19.098  44.144  0.00  0.00    -0.268 OA
ATOM      6  C   UNL d   1      46.255 -18.211  42.940  0.00  0.00     0.027 A 
ATOM      7  C   UNL d   1      46.607 -19.595  42.119  0.00  0.00     0.051 A 
ATOM      8  C   UNL d   1      46.362 -18.187  42.123  0.00  0.00     0.044 A 
ATOM      9  O   UNL d   1      46.349 -20.329  44.954  0.00  0.00    -0.251 OA
ATOM     10  C   UNL d   1      46.537 -18.876  41.717  0.00  0.00     0.196 A 
ATOM     11  O   UNL d   1      46.647 -18.860  40.890  0.00  0.00    -0.286 OA
ENDROOT
BRANCH   6  12
ATOM     12  C   UNL d   1      46.079 -17.515  43.346  0.00  0.00     0.002 A 
ATOM     13  C   UNL d   1      46.037 -16.799  42.931  0.00  0.00     0.002 A 
ATOM     14  C   UNL d   1      45.861 -16.097  43.336  0.00  0.00     0.024 A 
ATOM     15  C   UNL d   1      45.727 -16.115  44.154  0.00  0.00     0.127 A 
ATOM     16  C   UNL d   1      45.770 -16.827  44.563  0.00  0.00     0.024 A 
ATOM     17  C   UNL d   1      45.946 -17.530  44.158  0.00  0.00     0.002 A 
BRANCH  15  18
ATOM     18  N   UNL d   1      45.549 -15.412  44.566  0.00  0.00    -0.114 N 
ATOM     19  O   UNL d   1      46.098 -14.798  44.584  0.00  0.00    -0.532 OA
ATOM     20  O   UNL d   1      44.828 -15.334  44.952  0.00  0.00    -0.532 OA
ENDBRANCH  15  18
ENDBRANCH   6  12
TORSDOF 2
ENDMDL
