MODEL 1
REMARK VINA RESULT:      -1.0      0.000      0.000
REMARK  6 active torsions:
REMARK  status: ('A' for Active; 'I' for Inactive)
REMARK    1  A    between atoms: C_12  and  C_4 
REMARK    2  A    between atoms: N_16  and  C_5 
REMARK    3  A    between atoms: N_11  and  C_24 
REMARK    4  A    between atoms: C_27  and  N_16 
REMARK    5  A    between atoms: C_24  and  C_25 
REMARK    6  A    between atoms: C_25  and  C_27 
ROOT
ATOM      1  N   UNL d   1      32.895  20.932 -22.011  0.00  0.00    -0.195 N 
ATOM      2  C   UNL d   1      32.858  21.078 -21.197  0.00  0.00     0.167 A 
ATOM      3  N   UNL d   1      32.761  21.641 -22.395  0.00  0.00    -0.163 NA
ATOM      4  C   UNL d   1      32.702  21.874 -21.097  0.00  0.00     0.055 A 
ATOM      5  C   UNL d   1      33.045  20.174 -22.283  0.00  0.00     0.167 A 
ATOM      6  C   UNL d   1      32.643  22.217 -21.821  0.00  0.00     0.104 A 
ATOM      7  N   UNL d   1      32.972  20.463 -20.668  0.00  0.00    -0.227 NA
ATOM      8  C   UNL d   1      33.160  19.552 -21.743  0.00  0.00     0.058 A 
ATOM      9  C   UNL d   1      33.124  19.694 -20.946  0.00  0.00     0.086 A 
ATOM     10  C   UNL d   1      32.489  23.019 -21.959  0.00  0.00     0.023 C 
ATOM     11  C   UNL d   1      33.241  19.063 -20.405  0.00  0.00     0.021 C 
ENDROOT
BRANCH   5  12
ATOM     12  N   UNL d   1      33.082  20.028 -23.097  0.00  0.00    -0.225 NA
BRANCH  12  13
ATOM     13  C   UNL d   1      33.111  19.255 -23.371  0.00  0.00     0.102 C 
BRANCH  13  14
ATOM     14  C   UNL d   1      32.521  18.978 -23.881  0.00  0.00     0.040 C 
BRANCH  14  15
ATOM     15  C   UNL d   1      32.472  18.176 -24.064  0.00  0.00     0.083 C 
BRANCH  15  16
ATOM     16  N   UNL d   1      31.754  17.845 -24.290  0.00  0.00    -0.285 N 
ATOM     17  C   UNL d   1      31.077  18.163 -24.642  0.00  0.00     0.183 A 
ATOM     18  N   UNL d   1      30.532  17.564 -24.737  0.00  0.00    -0.222 NA
ATOM     19  C   UNL d   1      30.854  16.873 -24.451  0.00  0.00     0.120 A 
ATOM     20  C   UNL d   1      31.614  17.044 -24.172  0.00  0.00     0.102 A 
ENDBRANCH  15  16
ENDBRANCH  14  15
ENDBRANCH  13  14
ENDBRANCH  12  13
ENDBRANCH   5  12
BRANCH   4  21
ATOM     21  C   UNL d   1      32.606  22.331 -20.410  0.00  0.00     0.004 A 
ATOM     22  C   UNL d   1      33.241  22.452 -19.898  0.00  0.00     0.001 A 
ATOM     23  C   UNL d   1      33.148  22.905 -19.217  0.00  0.00     0.011 A 
ATOM     24  C   UNL d   1      32.413  23.239 -19.050  0.00  0.00     0.058 A 
ATOM     25  C   UNL d   1      31.775  23.117 -19.564  0.00  0.00     0.011 A 
ATOM     26 CL   UNL d   1      32.323  23.700 -18.354  0.00  0.00    -0.082 Cl
ATOM     27  C   UNL d   1      31.871  22.665 -20.243  0.00  0.00     0.001 A 
ENDBRANCH   4  21
TORSDOF 6
ENDMDL
MODEL 2
REMARK VINA RESULT:       1.5      2.307      5.284
REMARK  6 active torsions:
REMARK  status: ('A' for Active; 'I' for Inactive)
REMARK    1  A    between atoms: C_12  and  C_4 
REMARK    2  A    between atoms: N_16  and  C_5 
REMARK    3  A    between atoms: N_11  and  C_24 
REMARK    4  A    between atoms: C_27  and  N_16 
REMARK    5  A    between atoms: C_24  and  C_25 
REMARK    6  A    between atoms: C_25  and  C_27 
ROOT
ATOM      1  N   UNL d   1      32.985  20.168 -23.333  0.00  0.00    -0.195 N 
ATOM      2  C   UNL d   1      32.900  19.412 -23.005  0.00  0.00     0.167 A 
ATOM      3  N   UNL d   1      32.873  20.101 -24.139  0.00  0.00    -0.163 NA
ATOM      4  C   UNL d   1      32.737  18.896 -23.617  0.00  0.00     0.055 A 
ATOM      5  C   UNL d   1      33.153  20.805 -22.846  0.00  0.00     0.167 A 
ATOM      6  C   UNL d   1      32.720  19.311 -24.305  0.00  0.00     0.104 A 
ATOM      7  N   UNL d   1      32.984  19.307 -22.197  0.00  0.00    -0.227 NA
ATOM      8  C   UNL d   1      33.238  20.695 -22.027  0.00  0.00     0.058 A 
ATOM      9  C   UNL d   1      33.155  19.956 -21.706  0.00  0.00     0.086 A 
ATOM     10  C   UNL d   1      32.572  18.989 -25.054  0.00  0.00     0.023 C 
ATOM     11  C   UNL d   1      33.241  19.849 -20.877  0.00  0.00     0.021 C 
ENDROOT
BRANCH   5  12
ATOM     12  N   UNL d   1      33.238  21.561 -23.174  0.00  0.00    -0.225 NA
BRANCH  12  13
ATOM     13  C   UNL d   1      33.000  22.219 -22.746  0.00  0.00     0.102 C 
BRANCH  13  14
ATOM     14  C   UNL d   1      32.638  22.854 -23.136  0.00  0.00     0.040 C 
BRANCH  14  15
ATOM     15  C   UNL d   1      32.543  23.577 -22.754  0.00  0.00     0.083 C 
BRANCH  15  16
ATOM     16  N   UNL d   1      32.240  23.607 -21.989  0.00  0.00    -0.285 N 
ATOM     17  C   UNL d   1      31.469  23.594 -21.693  0.00  0.00     0.183 A 
ATOM     18  N   UNL d   1      31.507  23.640 -20.880  0.00  0.00    -0.222 NA
ATOM     19  C   UNL d   1      32.289  23.682 -20.658  0.00  0.00     0.120 A 
ATOM     20  C   UNL d   1      32.749  23.662 -21.346  0.00  0.00     0.102 A 
ENDBRANCH  15  16
ENDBRANCH  14  15
ENDBRANCH  13  14
ENDBRANCH  12  13
ENDBRANCH   5  12
BRANCH   4  21
ATOM     21  C   UNL d   1      32.600  18.077 -23.622  0.00  0.00     0.004 A 
ATOM     22  C   UNL d   1      33.230  17.549 -23.684  0.00  0.00     0.001 A 
ATOM     23  C   UNL d   1      33.097  16.737 -23.689  0.00  0.00     0.011 A 
ATOM     24  C   UNL d   1      32.325  16.453 -23.630  0.00  0.00     0.058 A 
ATOM     25  C   UNL d   1      31.691  16.983 -23.567  0.00  0.00     0.011 A 
ATOM     26 CL   UNL d   1      32.193  15.624 -23.635  0.00  0.00    -0.082 Cl
ATOM     27  C   UNL d   1      31.827  17.793 -23.563  0.00  0.00     0.001 A 
ENDBRANCH   4  21
TORSDOF 6
ENDMDL
