MODEL 1
REMARK VINA RESULT:      -7.5      0.000      0.000
REMARK  3 active torsions:
REMARK  status: ('A' for Active; 'I' for Inactive)
REMARK    1  A    between atoms: C_8  and  N_1 
REMARK    2  A    between atoms: N_7  and  C_2 
REMARK    3  A    between atoms: C_16  and  C_8 
ROOT
ATOM      1  N   UNL d   1     -47.717  12.398  23.482  0.00  0.00    -0.225 N 
ATOM      2  C   UNL d   1     -46.166  11.903  23.243  0.00  0.00     0.158 A 
ATOM      3  C   UNL d   1     -47.121  12.953  23.342  0.00  0.00     0.358 A 
ATOM      4  N   UNL d   1     -46.350  12.705  23.224  0.00  0.00    -0.174 NA
ATOM      5  C   UNL d   1     -47.542  11.594  23.504  0.00  0.00     0.271 A 
ATOM      6  C   UNL d   1     -46.762  11.347  23.383  0.00  0.00     0.099 A 
ATOM      7  O   UNL d   1     -47.305  13.761  23.323  0.00  0.00    -0.244 OA
ATOM      8  O   UNL d   1     -48.139  11.039  23.644  0.00  0.00    -0.266 OA
ENDROOT
BRANCH   1   9
ATOM      9  C   UNL d   1     -48.494  12.647  23.602  0.00  0.00     0.087 C 
BRANCH   9  10
ATOM     10  C   UNL d   1     -49.023  12.669  22.968  0.00  0.00     0.018 A 
ATOM     11  C   UNL d   1     -49.710  12.210  23.001  0.00  0.00     0.004 A 
ATOM     12  C   UNL d   1     -50.238  12.231  22.368  0.00  0.00     0.030 A 
ATOM     13  C   UNL d   1     -50.075  12.705  21.717  0.00  0.00     0.140 A 
ATOM     14  C   UNL d   1     -49.397  13.155  21.689  0.00  0.00     0.030 A 
ATOM     15  F   UNL d   1     -50.611  12.721  21.084  0.00  0.00    -0.204 F 
ATOM     16  C   UNL d   1     -48.867  13.139  22.314  0.00  0.00     0.004 A 
ENDBRANCH   9  10
ENDBRANCH   1   9
BRANCH   2  17
ATOM     17  N   UNL d   1     -45.392  11.651  23.124  0.00  0.00    -0.285 N 
ATOM     18  C   UNL d   1     -45.129  10.959  23.469  0.00  0.00     0.106 A 
ATOM     19  C   UNL d   1     -44.355  10.707  23.350  0.00  0.00     0.118 A 
ATOM     20  C   UNL d   1     -44.089  10.008  23.698  0.00  0.00     0.028 C 
ATOM     21  O   UNL d   1     -43.841  11.143  22.887  0.00  0.00    -0.304 OA
ATOM     22  C   UNL d   1     -44.107  11.857  22.529  0.00  0.00     0.118 A 
ATOM     23  C   UNL d   1     -44.884  12.107  22.651  0.00  0.00     0.106 A 
ATOM     24  C   UNL d   1     -43.593  12.299  22.063  0.00  0.00     0.028 C 
ENDBRANCH   2  17
TORSDOF 3
ENDMDL
MODEL 2
REMARK VINA RESULT:      -7.3      2.185      4.933
REMARK  3 active torsions:
REMARK  status: ('A' for Active; 'I' for Inactive)
REMARK    1  A    between atoms: C_8  and  N_1 
REMARK    2  A    between atoms: N_7  and  C_2 
REMARK    3  A    between atoms: C_16  and  C_8 
ROOT
ATOM      1  N   UNL d   1     -47.129  13.651  23.249  0.00  0.00    -0.225 N 
ATOM      2  C   UNL d   1     -48.670  14.003  22.791  0.00  0.00     0.158 A 
ATOM      3  C   UNL d   1     -47.318  14.407  22.972  0.00  0.00     0.358 A 
ATOM      4  N   UNL d   1     -48.085  14.579  22.745  0.00  0.00    -0.174 NA
ATOM      5  C   UNL d   1     -47.708  13.068  23.299  0.00  0.00     0.271 A 
ATOM      6  C   UNL d   1     -48.482  13.247  23.068  0.00  0.00     0.099 A 
ATOM      7  O   UNL d   1     -46.728  14.988  22.925  0.00  0.00    -0.244 OA
ATOM      8  O   UNL d   1     -47.520  12.312  23.576  0.00  0.00    -0.266 OA
ENDROOT
BRANCH   1   9
ATOM      9  C   UNL d   1     -46.357  13.475  23.479  0.00  0.00     0.087 C 
BRANCH   9  10
ATOM     10  C   UNL d   1     -45.806  13.228  22.916  0.00  0.00     0.018 A 
ATOM     11  C   UNL d   1     -45.547  12.442  22.924  0.00  0.00     0.004 A 
ATOM     12  C   UNL d   1     -44.997  12.194  22.362  0.00  0.00     0.030 A 
ATOM     13  C   UNL d   1     -44.714  12.728  21.805  0.00  0.00     0.140 A 
ATOM     14  C   UNL d   1     -44.971  13.500  21.801  0.00  0.00     0.030 A 
ATOM     15  F   UNL d   1     -44.161  12.472  21.243  0.00  0.00    -0.204 F 
ATOM     16  C   UNL d   1     -45.519  13.754  22.356  0.00  0.00     0.004 A 
ENDBRANCH   9  10
ENDBRANCH   1   9
BRANCH   2  17
ATOM     17  N   UNL d   1     -49.442  14.175  22.563  0.00  0.00    -0.285 N 
ATOM     18  C   UNL d   1     -49.789  13.762  21.950  0.00  0.00     0.106 A 
ATOM     19  C   UNL d   1     -50.561  13.934  21.722  0.00  0.00     0.118 A 
ATOM     20  C   UNL d   1     -50.912  13.517  21.102  0.00  0.00     0.028 C 
ATOM     21  O   UNL d   1     -50.989  14.517  22.104  0.00  0.00    -0.304 OA
ATOM     22  C   UNL d   1     -50.635  14.944  22.737  0.00  0.00     0.118 A 
ATOM     23  C   UNL d   1     -49.861  14.770  22.963  0.00  0.00     0.106 A 
ATOM     24  C   UNL d   1     -51.062  15.532  23.124  0.00  0.00     0.028 C 
ENDBRANCH   2  17
TORSDOF 3
ENDMDL
MODEL 3
REMARK VINA RESULT:      -7.1      8.016      9.337
REMARK  3 active torsions:
REMARK  status: ('A' for Active; 'I' for Inactive)
REMARK    1  A    between atoms: C_8  and  N_1 
REMARK    2  A    between atoms: N_7  and  C_2 
REMARK    3  A    between atoms: C_16  and  C_8 
ROOT
ATOM      1  N   UNL d   1     -39.835  15.210  20.693  0.00  0.00    -0.225 N 
ATOM      2  C   UNL d   1     -39.977  15.163  19.054  0.00  0.00     0.158 A 
ATOM      3  C   UNL d   1     -39.254  15.554  20.216  0.00  0.00     0.358 A 
ATOM      4  N   UNL d   1     -39.327  15.529  19.401  0.00  0.00    -0.174 NA
ATOM      5  C   UNL d   1     -40.489  14.843  20.355  0.00  0.00     0.271 A 
ATOM      6  C   UNL d   1     -40.559  14.820  19.532  0.00  0.00     0.099 A 
ATOM      7  O   UNL d   1     -38.597  15.922  20.564  0.00  0.00    -0.244 OA
ATOM      8  O   UNL d   1     -41.070  14.500  20.833  0.00  0.00    -0.266 OA
ENDROOT
BRANCH   1   9
ATOM      9  C   UNL d   1     -39.762  15.235  21.515  0.00  0.00     0.087 C 
BRANCH   9  10
ATOM     10  C   UNL d   1     -39.308  14.667  21.905  0.00  0.00     0.018 A 
ATOM     11  C   UNL d   1     -38.617  14.902  22.295  0.00  0.00     0.004 A 
ATOM     12  C   UNL d   1     -38.163  14.335  22.685  0.00  0.00     0.030 A 
ATOM     13  C   UNL d   1     -38.401  13.549  22.681  0.00  0.00     0.140 A 
ATOM     14  C   UNL d   1     -39.082  13.322  22.297  0.00  0.00     0.030 A 
ATOM     15  F   UNL d   1     -37.940  12.984  23.076  0.00  0.00    -0.204 F 
ATOM     16  C   UNL d   1     -39.539  13.880  21.906  0.00  0.00     0.004 A 
ENDBRANCH   9  10
ENDBRANCH   1   9
BRANCH   2  17
ATOM     17  N   UNL d   1     -40.053  15.137  18.235  0.00  0.00    -0.285 N 
ATOM     18  C   UNL d   1     -39.506  14.731  17.786  0.00  0.00     0.106 A 
ATOM     19  C   UNL d   1     -39.582  14.705  16.968  0.00  0.00     0.118 A 
ATOM     20  C   UNL d   1     -39.029  14.294  16.513  0.00  0.00     0.028 C 
ATOM     21  O   UNL d   1     -40.203  15.084  16.594  0.00  0.00    -0.304 OA
ATOM     22  C   UNL d   1     -40.769  15.505  17.053  0.00  0.00     0.118 A 
ATOM     23  C   UNL d   1     -40.691  15.529  17.874  0.00  0.00     0.106 A 
ATOM     24  C   UNL d   1     -41.396  15.887  16.681  0.00  0.00     0.028 C 
ENDBRANCH   2  17
TORSDOF 3
ENDMDL
MODEL 4
REMARK VINA RESULT:      -6.7      8.626      9.628
REMARK  3 active torsions:
REMARK  status: ('A' for Active; 'I' for Inactive)
REMARK    1  A    between atoms: C_8  and  N_1 
REMARK    2  A    between atoms: N_7  and  C_2 
REMARK    3  A    between atoms: C_16  and  C_8 
ROOT
ATOM      1  N   UNL d   1     -39.605  14.918  18.581  0.00  0.00    -0.225 N 
ATOM      2  C   UNL d   1     -39.291  14.789  20.192  0.00  0.00     0.158 A 
ATOM      3  C   UNL d   1     -38.979  15.340  18.917  0.00  0.00     0.358 A 
ATOM      4  N   UNL d   1     -38.824  15.274  19.718  0.00  0.00    -0.174 NA
ATOM      5  C   UNL d   1     -40.077  14.430  19.047  0.00  0.00     0.271 A 
ATOM      6  C   UNL d   1     -39.917  14.366  19.855  0.00  0.00     0.099 A 
ATOM      7  O   UNL d   1     -38.508  15.830  18.441  0.00  0.00    -0.244 OA
ATOM      8  O   UNL d   1     -40.703  14.008  18.711  0.00  0.00    -0.266 OA
ENDROOT
BRANCH   1   9
ATOM      9  C   UNL d   1     -39.762  14.983  17.774  0.00  0.00     0.087 C 
BRANCH   9  10
ATOM     10  C   UNL d   1     -39.315  14.550  17.231  0.00  0.00     0.018 A 
ATOM     11  C   UNL d   1     -39.025  14.929  16.555  0.00  0.00     0.004 A 
ATOM     12  C   UNL d   1     -38.579  14.496  16.013  0.00  0.00     0.030 A 
ATOM     13  C   UNL d   1     -38.430  13.700  16.150  0.00  0.00     0.140 A 
ATOM     14  C   UNL d   1     -38.718  13.332  16.816  0.00  0.00     0.030 A 
ATOM     15  F   UNL d   1     -37.981  13.272  15.600  0.00  0.00    -0.204 F 
ATOM     16  C   UNL d   1     -39.162  13.755  17.361  0.00  0.00     0.004 A 
ENDBRANCH   9  10
ENDBRANCH   1   9
BRANCH   2  17
ATOM     17  N   UNL d   1     -39.137  14.721  20.997  0.00  0.00    -0.285 N 
ATOM     18  C   UNL d   1     -38.820  14.032  21.297  0.00  0.00     0.106 A 
ATOM     19  C   UNL d   1     -38.666  13.964  22.102  0.00  0.00     0.118 A 
ATOM     20  C   UNL d   1     -38.345  13.268  22.406  0.00  0.00     0.028 C 
ATOM     21  O   UNL d   1     -38.829  14.584  22.611  0.00  0.00    -0.304 OA
ATOM     22  C   UNL d   1     -39.157  15.297  22.307  0.00  0.00     0.118 A 
ATOM     23  C   UNL d   1     -39.310  15.361  21.498  0.00  0.00     0.106 A 
ATOM     24  C   UNL d   1     -39.322  15.922  22.815  0.00  0.00     0.028 C 
ENDBRANCH   2  17
TORSDOF 3
ENDMDL
MODEL 5
REMARK VINA RESULT:      -6.5      8.708      9.711
REMARK  3 active torsions:
REMARK  status: ('A' for Active; 'I' for Inactive)
REMARK    1  A    between atoms: C_8  and  N_1 
REMARK    2  A    between atoms: N_7  and  C_2 
REMARK    3  A    between atoms: C_16  and  C_8 
ROOT
ATOM      1  N   UNL d   1     -39.541  14.963  18.704  0.00  0.00    -0.225 N 
ATOM      2  C   UNL d   1     -39.219  14.810  20.311  0.00  0.00     0.158 A 
ATOM      3  C   UNL d   1     -39.994  14.453  19.172  0.00  0.00     0.358 A 
ATOM      4  N   UNL d   1     -39.832  14.379  19.971  0.00  0.00    -0.174 NA
ATOM      5  C   UNL d   1     -38.926  15.397  19.035  0.00  0.00     0.271 A 
ATOM      6  C   UNL d   1     -38.766  15.319  19.843  0.00  0.00     0.099 A 
ATOM      7  O   UNL d   1     -40.612  14.018  18.830  0.00  0.00    -0.244 OA
ATOM      8  O   UNL d   1     -38.473  15.907  18.567  0.00  0.00    -0.266 OA
ENDROOT
BRANCH   1   9
ATOM      9  C   UNL d   1     -39.703  15.038  17.899  0.00  0.00     0.087 C 
BRANCH   9  10
ATOM     10  C   UNL d   1     -39.276  14.594  17.349  0.00  0.00     0.018 A 
ATOM     11  C   UNL d   1     -38.933  14.978  16.701  0.00  0.00     0.004 A 
ATOM     12  C   UNL d   1     -38.507  14.535  16.152  0.00  0.00     0.030 A 
ATOM     13  C   UNL d   1     -38.429  13.723  16.254  0.00  0.00     0.140 A 
ATOM     14  C   UNL d   1     -38.768  13.350  16.893  0.00  0.00     0.030 A 
ATOM     15  F   UNL d   1     -37.998  13.284  15.697  0.00  0.00    -0.204 F 
ATOM     16  C   UNL d   1     -39.194  13.784  17.444  0.00  0.00     0.004 A 
ENDBRANCH   9  10
ENDBRANCH   1   9
BRANCH   2  17
ATOM     17  N   UNL d   1     -39.054  14.737  21.114  0.00  0.00    -0.285 N 
ATOM     18  C   UNL d   1     -39.194  15.363  21.618  0.00  0.00     0.106 A 
ATOM     19  C   UNL d   1     -39.029  15.290  22.421  0.00  0.00     0.118 A 
ATOM     20  C   UNL d   1     -39.169  15.922  22.932  0.00  0.00     0.028 C 
ATOM     21  O   UNL d   1     -38.725  14.593  22.723  0.00  0.00    -0.304 OA
ATOM     22  C   UNL d   1     -38.580  13.944  22.206  0.00  0.00     0.118 A 
ATOM     23  C   UNL d   1     -38.746  14.021  21.401  0.00  0.00     0.106 A 
ATOM     24  C   UNL d   1     -38.274  13.242  22.506  0.00  0.00     0.028 C 
ENDBRANCH   2  17
TORSDOF 3
ENDMDL
