MODEL 1
REMARK VINA RESULT:      57.3      0.000      0.000
REMARK  4 active torsions:
REMARK  status: ('A' for Active; 'I' for Inactive)
REMARK    1  A    between atoms: C_7  and  N_1 
REMARK    2  A    between atoms: C_9  and  C_7 
REMARK       I    between atoms: N_16  and  C_9 
REMARK    3  A    between atoms: C_21  and  N_16 
REMARK    4  A    between atoms: C_20  and  C_21 
ROOT
ATOM      1  C   UNL d   1     -50.362  26.087  33.306  0.00  0.00     0.146 C 
ENDROOT
BRANCH   1   2
ATOM      2  N   UNL d   1     -50.951  25.518  33.306  0.00  0.00    -0.269 N 
ATOM      3  C   UNL d   1     -51.729  25.774  33.306  0.00  0.00     0.265 A 
ATOM      4  C   UNL d   1     -52.428  25.266  33.306  0.00  0.00     0.068 A 
ATOM      5  O   UNL d   1     -51.852  26.603  33.306  0.00  0.00    -0.267 OA
ATOM      6  C   UNL d   1     -52.455  24.415  33.306  0.00  0.00     0.034 A 
ATOM      7  C   UNL d   1     -53.193  24.074  33.306  0.00  0.00     0.007 C 
ATOM      8  S   UNL d   1     -51.816  23.903  33.306  0.00  0.00    -0.085 SA
ATOM      9  C   UNL d   1     -51.142  24.093  33.306  0.00  0.00     0.046 A 
ATOM     10  C   UNL d   1     -50.728  24.826  33.306  0.00  0.00     0.073 A 
ATOM     11  C   UNL d   1     -50.707  23.376  33.306  0.00  0.00     0.008 A 
ATOM     12  C   UNL d   1     -49.896  24.843  33.306  0.00  0.00     0.018 A 
ATOM     13  C   UNL d   1     -49.468  24.129  33.306  0.00  0.00     0.002 A 
ATOM     14  C   UNL d   1     -49.875  23.392  33.306  0.00  0.00     0.001 A 
ENDBRANCH   1   2
BRANCH   1  15
ATOM     15  C   UNL d   1     -50.321  26.622  33.929  0.00  0.00     0.297 C 
ATOM     16  N   UNL d   1     -49.690  27.131  34.008  0.00  0.00    -0.205 NA
ATOM     17  O   UNL d   1     -50.928  26.642  34.478  0.00  0.00    -0.264 OA
BRANCH  16  18
ATOM     18  C   UNL d   1     -49.656  27.656  34.623  0.00  0.00     0.102 C 
BRANCH  18  19
ATOM     19  C   UNL d   1     -48.953  28.033  34.805  0.00  0.00     0.021 A 
ATOM     20  C   UNL d   1     -48.967  28.819  35.049  0.00  0.00     0.028 A 
ATOM     21  C   UNL d   1     -48.253  29.199  35.233  0.00  0.00     0.119 A 
ATOM     22  O   UNL d   1     -48.084  29.947  35.482  0.00  0.00    -0.300 OA
ATOM     23  C   UNL d   1     -47.551  28.789  35.167  0.00  0.00     0.119 A 
ATOM     24  C   UNL d   1     -47.277  30.011  35.575  0.00  0.00     0.304 A 
ATOM     25  O   UNL d   1     -46.941  29.295  35.381  0.00  0.00    -0.300 OA
ATOM     26  C   UNL d   1     -47.553  28.001  34.921  0.00  0.00     0.026 A 
ATOM     27  C   UNL d   1     -48.261  27.631  34.741  0.00  0.00     0.004 A 
ENDBRANCH  18  19
ENDBRANCH  16  18
ENDBRANCH   1  15
TORSDOF 4
ENDMDL
