MODEL 1
REMARK VINA RESULT:      -8.8      0.000      0.000
REMARK  1 active torsions:
REMARK  status: ('A' for Active; 'I' for Inactive)
REMARK    1  A    between atoms: C_6  and  C_1 
REMARK       I    between atoms: N_9  and  C_6 
ROOT
ATOM      1  C   UNL d   1     -49.540  13.642  22.791  0.00  0.00     0.107 A 
ATOM      2  C   UNL d   1     -48.581  12.779  23.122  0.00  0.00     0.044 A 
ATOM      3  S   UNL d   1     -48.828  13.920  22.485  0.00  0.00    -0.061 SA
ATOM      4  C   UNL d   1     -48.235  13.386  22.689  0.00  0.00     0.112 A 
ATOM      5  C   UNL d   1     -49.382  12.933  23.187  0.00  0.00     0.116 A 
ATOM      6  N   UNL d   1     -47.416  13.371  22.537  0.00  0.00    -0.239 NA
ATOM      7  C   UNL d   1     -48.116  12.155  23.405  0.00  0.00     0.005 A 
ATOM      8  C   UNL d   1     -46.959  12.750  22.820  0.00  0.00     0.082 A 
ATOM      9  C   UNL d   1     -47.317  12.145  23.254  0.00  0.00     0.018 A 
ATOM     10  N   UNL d   1     -49.931  12.477  23.568  0.00  0.00    -0.147 N 
ATOM     11  C   UNL d   1     -46.190  12.918  22.569  0.00  0.00     0.019 A 
ATOM     12  C   UNL d   1     -47.052  11.448  23.620  0.00  0.00     0.002 A 
ATOM     13  C   UNL d   1     -45.459  12.543  22.650  0.00  0.00     0.002 A 
ATOM     14  C   UNL d   1     -46.309  11.075  23.698  0.00  0.00     0.000 A 
ATOM     15  C   UNL d   1     -45.541  11.243  23.446  0.00  0.00     0.000 A 
ATOM     16  C   UNL d   1     -45.190  11.852  23.012  0.00  0.00     0.000 A 
ENDROOT
BRANCH   1  17
ATOM     17  C   UNL d   1     -50.256  13.997  22.719  0.00  0.00     0.272 C 
ATOM     18  N   UNL d   1     -50.372  14.718  23.035  0.00  0.00    -0.272 N 
ATOM     19  C   UNL d   1     -49.842  15.159  23.437  0.00  0.00     0.083 A 
ATOM     20  C   UNL d   1     -51.064  15.137  23.002  0.00  0.00     0.083 A 
ATOM     21  C   UNL d   1     -50.194  15.838  23.651  0.00  0.00     0.021 A 
ATOM     22  C   UNL d   1     -50.941  15.830  23.388  0.00  0.00     0.021 A 
ATOM     23  O   UNL d   1     -50.847  13.623  22.328  0.00  0.00    -0.266 OA
ENDBRANCH   1  17
TORSDOF 1
ENDMDL
MODEL 2
REMARK VINA RESULT:      -8.3      1.118      1.808
REMARK  1 active torsions:
REMARK  status: ('A' for Active; 'I' for Inactive)
REMARK    1  A    between atoms: C_6  and  C_1 
REMARK       I    between atoms: N_9  and  C_6 
ROOT
ATOM      1  C   UNL d   1     -48.607  14.202  22.943  0.00  0.00     0.107 A 
ATOM      2  C   UNL d   1     -47.396  13.667  22.793  0.00  0.00     0.044 A 
ATOM      3  S   UNL d   1     -48.604  13.466  23.312  0.00  0.00    -0.061 SA
ATOM      4  C   UNL d   1     -47.855  13.136  23.220  0.00  0.00     0.112 A 
ATOM      5  C   UNL d   1     -47.855  14.324  22.621  0.00  0.00     0.116 A 
ATOM      6  N   UNL d   1     -47.525  12.413  23.469  0.00  0.00    -0.239 NA
ATOM      7  C   UNL d   1     -46.609  13.485  22.614  0.00  0.00     0.005 A 
ATOM      8  C   UNL d   1     -46.744  12.235  23.289  0.00  0.00     0.082 A 
ATOM      9  C   UNL d   1     -46.291  12.777  22.860  0.00  0.00     0.018 A 
ATOM     10  N   UNL d   1     -47.622  14.980  22.211  0.00  0.00    -0.147 N 
ATOM     11  C   UNL d   1     -46.611  11.490  23.618  0.00  0.00     0.019 A 
ATOM     12  C   UNL d   1     -45.510  12.799  22.579  0.00  0.00     0.002 A 
ATOM     13  C   UNL d   1     -45.964  10.978  23.652  0.00  0.00     0.002 A 
ATOM     14  C   UNL d   1     -44.860  12.276  22.618  0.00  0.00     0.000 A 
ATOM     15  C   UNL d   1     -44.729  11.531  22.947  0.00  0.00     0.000 A 
ATOM     16  C   UNL d   1     -45.187  10.994  23.376  0.00  0.00     0.000 A 
ENDROOT
BRANCH   1  17
ATOM     17  C   UNL d   1     -49.229  14.707  22.903  0.00  0.00     0.272 C 
ATOM     18  N   UNL d   1     -49.881  14.499  22.497  0.00  0.00    -0.272 N 
ATOM     19  C   UNL d   1     -50.005  13.817  22.102  0.00  0.00     0.083 A 
ATOM     20  C   UNL d   1     -50.545  14.955  22.413  0.00  0.00     0.083 A 
ATOM     21  C   UNL d   1     -50.729  13.845  21.778  0.00  0.00     0.021 A 
ATOM     22  C   UNL d   1     -51.064  14.538  21.965  0.00  0.00     0.021 A 
ATOM     23  O   UNL d   1     -49.188  15.417  23.273  0.00  0.00    -0.266 OA
ENDBRANCH   1  17
TORSDOF 1
ENDMDL
MODEL 3
REMARK VINA RESULT:      -7.1      1.124      1.476
REMARK  1 active torsions:
REMARK  status: ('A' for Active; 'I' for Inactive)
REMARK    1  A    between atoms: C_6  and  C_1 
REMARK       I    between atoms: N_9  and  C_6 
ROOT
ATOM      1  C   UNL d   1     -48.847  13.165  22.922  0.00  0.00     0.107 A 
ATOM      2  C   UNL d   1     -47.852  12.327  23.209  0.00  0.00     0.044 A 
ATOM      3  S   UNL d   1     -48.155  13.467  22.594  0.00  0.00    -0.061 SA
ATOM      4  C   UNL d   1     -47.540  12.949  22.772  0.00  0.00     0.112 A 
ATOM      5  C   UNL d   1     -48.655  12.456  23.303  0.00  0.00     0.116 A 
ATOM      6  N   UNL d   1     -46.726  12.960  22.592  0.00  0.00    -0.239 NA
ATOM      7  C   UNL d   1     -47.359  11.715  23.469  0.00  0.00     0.005 A 
ATOM      8  C   UNL d   1     -46.241  12.350  22.852  0.00  0.00     0.082 A 
ATOM      9  C   UNL d   1     -46.566  11.730  23.291  0.00  0.00     0.018 A 
ATOM     10  N   UNL d   1     -49.176  11.980  23.698  0.00  0.00    -0.147 N 
ATOM     11  C   UNL d   1     -45.487  12.543  22.577  0.00  0.00     0.019 A 
ATOM     12  C   UNL d   1     -46.268  11.038  23.640  0.00  0.00     0.002 A 
ATOM     13  C   UNL d   1     -44.743  12.190  22.629  0.00  0.00     0.002 A 
ATOM     14  C   UNL d   1     -45.511  10.687  23.689  0.00  0.00     0.000 A 
ATOM     15  C   UNL d   1     -44.758  10.880  23.413  0.00  0.00     0.000 A 
ATOM     16  C   UNL d   1     -44.441  11.504  22.974  0.00  0.00     0.000 A 
ENDROOT
BRANCH   1  17
ATOM     17  C   UNL d   1     -49.575  13.498  22.878  0.00  0.00     0.272 C 
ATOM     18  N   UNL d   1     -49.968  13.497  22.186  0.00  0.00    -0.272 N 
ATOM     19  C   UNL d   1     -49.720  13.191  21.492  0.00  0.00     0.083 A 
ATOM     20  C   UNL d   1     -50.704  13.814  22.065  0.00  0.00     0.083 A 
ATOM     21  C   UNL d   1     -50.287  13.313  20.950  0.00  0.00     0.021 A 
ATOM     22  C   UNL d   1     -50.891  13.693  21.294  0.00  0.00     0.021 A 
ATOM     23  O   UNL d   1     -49.900  13.830  23.531  0.00  0.00    -0.266 OA
ENDBRANCH   1  17
TORSDOF 1
ENDMDL
MODEL 4
REMARK VINA RESULT:      -6.7      9.259     11.197
REMARK  1 active torsions:
REMARK  status: ('A' for Active; 'I' for Inactive)
REMARK    1  A    between atoms: C_6  and  C_1 
REMARK       I    between atoms: N_9  and  C_6 
ROOT
ATOM      1  C   UNL d   1     -38.939  15.064  17.167  0.00  0.00     0.107 A 
ATOM      2  C   UNL d   1     -39.599  15.296  18.301  0.00  0.00     0.044 A 
ATOM      3  S   UNL d   1     -38.387  15.150  17.772  0.00  0.00    -0.061 SA
ATOM      4  C   UNL d   1     -38.795  15.293  18.473  0.00  0.00     0.112 A 
ATOM      5  C   UNL d   1     -39.691  15.156  17.500  0.00  0.00     0.116 A 
ATOM      6  N   UNL d   1     -38.540  15.424  19.255  0.00  0.00    -0.239 NA
ATOM      7  C   UNL d   1     -40.151  15.428  18.903  0.00  0.00     0.005 A 
ATOM      8  C   UNL d   1     -39.091  15.554  19.849  0.00  0.00     0.082 A 
ATOM      9  C   UNL d   1     -39.897  15.555  19.665  0.00  0.00     0.018 A 
ATOM     10  N   UNL d   1     -40.390  15.112  17.095  0.00  0.00    -0.147 N 
ATOM     11  C   UNL d   1     -38.646  15.659  20.536  0.00  0.00     0.019 A 
ATOM     12  C   UNL d   1     -40.599  15.663  20.096  0.00  0.00     0.002 A 
ATOM     13  C   UNL d   1     -38.827  15.810  21.328  0.00  0.00     0.002 A 
ATOM     14  C   UNL d   1     -40.774  15.815  20.898  0.00  0.00     0.000 A 
ATOM     15  C   UNL d   1     -40.328  15.920  21.585  0.00  0.00     0.000 A 
ATOM     16  C   UNL d   1     -39.521  15.917  21.761  0.00  0.00     0.000 A 
ENDROOT
BRANCH   1  17
ATOM     17  C   UNL d   1     -38.775  14.918  16.396  0.00  0.00     0.272 C 
ATOM     18  N   UNL d   1     -38.447  14.224  16.187  0.00  0.00    -0.272 N 
ATOM     19  C   UNL d   1     -38.249  13.620  16.670  0.00  0.00     0.083 A 
ATOM     20  C   UNL d   1     -38.254  14.006  15.431  0.00  0.00     0.083 A 
ATOM     21  C   UNL d   1     -37.940  13.038  16.227  0.00  0.00     0.021 A 
ATOM     22  C   UNL d   1     -37.940  13.268  15.469  0.00  0.00     0.021 A 
ATOM     23  O   UNL d   1     -38.943  15.472  15.842  0.00  0.00    -0.266 OA
ENDBRANCH   1  17
TORSDOF 1
ENDMDL
MODEL 5
REMARK VINA RESULT:      -6.6      9.266     10.170
REMARK  1 active torsions:
REMARK  status: ('A' for Active; 'I' for Inactive)
REMARK    1  A    between atoms: C_6  and  C_1 
REMARK       I    between atoms: N_9  and  C_6 
ROOT
ATOM      1  C   UNL d   1     -39.256  15.250  21.286  0.00  0.00     0.107 A 
ATOM      2  C   UNL d   1     -39.937  15.465  20.162  0.00  0.00     0.044 A 
ATOM      3  S   UNL d   1     -38.816  14.950  20.659  0.00  0.00    -0.061 SA
ATOM      4  C   UNL d   1     -39.237  15.083  19.964  0.00  0.00     0.112 A 
ATOM      5  C   UNL d   1     -39.952  15.570  20.974  0.00  0.00     0.116 A 
ATOM      6  N   UNL d   1     -39.076  14.905  19.166  0.00  0.00    -0.239 NA
ATOM      7  C   UNL d   1     -40.478  15.672  19.571  0.00  0.00     0.005 A 
ATOM      8  C   UNL d   1     -39.616  15.112  18.583  0.00  0.00     0.082 A 
ATOM      9  C   UNL d   1     -40.316  15.496  18.794  0.00  0.00     0.018 A 
ATOM     10  N   UNL d   1     -40.539  15.922  21.404  0.00  0.00    -0.147 N 
ATOM     11  C   UNL d   1     -39.277  14.854  17.875  0.00  0.00     0.019 A 
ATOM     12  C   UNL d   1     -40.976  15.785  18.380  0.00  0.00     0.002 A 
ATOM     13  C   UNL d   1     -39.505  14.876  17.081  0.00  0.00     0.002 A 
ATOM     14  C   UNL d   1     -41.199  15.804  17.576  0.00  0.00     0.000 A 
ATOM     15  C   UNL d   1     -40.860  15.546  16.869  0.00  0.00     0.000 A 
ATOM     16  C   UNL d   1     -40.158  15.161  16.666  0.00  0.00     0.000 A 
ENDROOT
BRANCH   1  17
ATOM     17  C   UNL d   1     -39.045  15.234  22.060  0.00  0.00     0.272 C 
ATOM     18  N   UNL d   1     -38.914  14.536  22.419  0.00  0.00    -0.272 N 
ATOM     19  C   UNL d   1     -38.967  13.810  22.093  0.00  0.00     0.083 A 
ATOM     20  C   UNL d   1     -38.699  14.442  23.194  0.00  0.00     0.083 A 
ATOM     21  C   UNL d   1     -38.789  13.273  22.651  0.00  0.00     0.021 A 
ATOM     22  C   UNL d   1     -38.625  13.654  23.326  0.00  0.00     0.021 A 
ATOM     23  O   UNL d   1     -38.969  15.922  22.465  0.00  0.00    -0.266 OA
ENDBRANCH   1  17
TORSDOF 1
ENDMDL
MODEL 6
REMARK VINA RESULT:      -6.6      9.669     10.052
REMARK  1 active torsions:
REMARK  status: ('A' for Active; 'I' for Inactive)
REMARK    1  A    between atoms: C_6  and  C_1 
REMARK       I    between atoms: N_9  and  C_6 
ROOT
ATOM      1  C   UNL d   1     -39.497  15.123  18.403  0.00  0.00     0.107 A 
ATOM      2  C   UNL d   1     -39.266  14.602  19.608  0.00  0.00     0.044 A 
ATOM      3  S   UNL d   1     -39.509  15.735  18.954  0.00  0.00    -0.061 SA
ATOM      4  C   UNL d   1     -39.367  15.413  19.698  0.00  0.00     0.112 A 
ATOM      5  C   UNL d   1     -39.346  14.420  18.814  0.00  0.00     0.116 A 
ATOM      6  N   UNL d   1     -39.313  15.753  20.457  0.00  0.00    -0.239 NA
ATOM      7  C   UNL d   1     -39.113  14.127  20.268  0.00  0.00     0.005 A 
ATOM      8  C   UNL d   1     -39.161  15.277  21.109  0.00  0.00     0.082 A 
ATOM      9  C   UNL d   1     -39.062  14.464  21.006  0.00  0.00     0.018 A 
ATOM     10  N   UNL d   1     -39.289  13.686  18.479  0.00  0.00    -0.147 N 
ATOM     11  C   UNL d   1     -39.148  15.794  21.753  0.00  0.00     0.019 A 
ATOM     12  C   UNL d   1     -38.907  13.822  21.510  0.00  0.00     0.002 A 
ATOM     13  C   UNL d   1     -39.028  15.705  22.566  0.00  0.00     0.002 A 
ATOM     14  C   UNL d   1     -38.787  13.740  22.332  0.00  0.00     0.000 A 
ATOM     15  C   UNL d   1     -38.773  14.257  22.976  0.00  0.00     0.000 A 
ATOM     16  C   UNL d   1     -38.874  15.072  23.071  0.00  0.00     0.000 A 
ENDROOT
BRANCH   1  17
ATOM     17  C   UNL d   1     -39.612  15.197  17.613  0.00  0.00     0.272 C 
ATOM     18  N   UNL d   1     -40.308  15.468  17.339  0.00  0.00    -0.272 N 
ATOM     19  C   UNL d   1     -40.942  15.688  17.771  0.00  0.00     0.083 A 
ATOM     20  C   UNL d   1     -40.497  15.569  16.558  0.00  0.00     0.083 A 
ATOM     21  C   UNL d   1     -41.514  15.922  17.272  0.00  0.00     0.021 A 
ATOM     22  C   UNL d   1     -41.247  15.851  16.529  0.00  0.00     0.021 A 
ATOM     23  O   UNL d   1     -39.025  14.997  17.106  0.00  0.00    -0.266 OA
ENDBRANCH   1  17
TORSDOF 1
ENDMDL
MODEL 7
REMARK VINA RESULT:      -6.5      1.599      4.476
REMARK  1 active torsions:
REMARK  status: ('A' for Active; 'I' for Inactive)
REMARK    1  A    between atoms: C_6  and  C_1 
REMARK       I    between atoms: N_9  and  C_6 
ROOT
ATOM      1  C   UNL d   1     -46.714  12.758  23.081  0.00  0.00     0.107 A 
ATOM      2  C   UNL d   1     -48.025  12.983  23.010  0.00  0.00     0.044 A 
ATOM      3  S   UNL d   1     -46.834  13.572  23.063  0.00  0.00    -0.061 SA
ATOM      4  C   UNL d   1     -47.644  13.711  23.019  0.00  0.00     0.112 A 
ATOM      5  C   UNL d   1     -47.457  12.395  23.048  0.00  0.00     0.116 A 
ATOM      6  N   UNL d   1     -48.093  14.412  22.986  0.00  0.00    -0.239 NA
ATOM      7  C   UNL d   1     -48.851  12.948  22.969  0.00  0.00     0.005 A 
ATOM      8  C   UNL d   1     -48.912  14.373  22.945  0.00  0.00     0.082 A 
ATOM      9  C   UNL d   1     -49.285  13.635  22.937  0.00  0.00     0.018 A 
ATOM     10  N   UNL d   1     -47.589  11.597  23.053  0.00  0.00    -0.147 N 
ATOM     11  C   UNL d   1     -49.164  15.159  22.921  0.00  0.00     0.019 A 
ATOM     12  C   UNL d   1     -50.073  13.375  22.900  0.00  0.00     0.002 A 
ATOM     13  C   UNL d   1     -49.901  15.530  22.878  0.00  0.00     0.002 A 
ATOM     14  C   UNL d   1     -50.813  13.758  22.857  0.00  0.00     0.000 A 
ATOM     15  C   UNL d   1     -51.065  14.544  22.833  0.00  0.00     0.000 A 
ATOM     16  C   UNL d   1     -50.685  15.277  22.842  0.00  0.00     0.000 A 
ENDROOT
BRANCH   1  17
ATOM     17  C   UNL d   1     -46.005  12.386  23.122  0.00  0.00     0.272 C 
ATOM     18  N   UNL d   1     -45.437  12.558  22.592  0.00  0.00    -0.272 N 
ATOM     19  C   UNL d   1     -45.484  13.081  21.991  0.00  0.00     0.083 A 
ATOM     20  C   UNL d   1     -44.700  12.225  22.571  0.00  0.00     0.083 A 
ATOM     21  C   UNL d   1     -44.791  13.075  21.602  0.00  0.00     0.021 A 
ATOM     22  C   UNL d   1     -44.308  12.554  21.952  0.00  0.00     0.021 A 
ATOM     23  O   UNL d   1     -45.873  11.844  23.698  0.00  0.00    -0.266 OA
ENDBRANCH   1  17
TORSDOF 1
ENDMDL
MODEL 8
REMARK VINA RESULT:      -6.2      9.008     10.537
REMARK  1 active torsions:
REMARK  status: ('A' for Active; 'I' for Inactive)
REMARK    1  A    between atoms: C_6  and  C_1 
REMARK       I    between atoms: N_9  and  C_6 
ROOT
ATOM      1  C   UNL d   1     -40.026  14.837  19.634  0.00  0.00     0.107 A 
ATOM      2  C   UNL d   1     -39.671  14.817  18.350  0.00  0.00     0.044 A 
ATOM      3  S   UNL d   1     -39.557  14.172  19.508  0.00  0.00    -0.061 SA
ATOM      4  C   UNL d   1     -39.337  14.160  18.714  0.00  0.00     0.112 A 
ATOM      5  C   UNL d   1     -40.094  15.235  18.912  0.00  0.00     0.116 A 
ATOM      6  N   UNL d   1     -38.873  13.632  18.267  0.00  0.00    -0.239 NA
ATOM      7  C   UNL d   1     -39.545  14.953  17.543  0.00  0.00     0.005 A 
ATOM      8  C   UNL d   1     -38.750  13.771  17.467  0.00  0.00     0.082 A 
ATOM      9  C   UNL d   1     -39.090  14.434  17.112  0.00  0.00     0.018 A 
ATOM     10  N   UNL d   1     -40.510  15.919  18.792  0.00  0.00    -0.147 N 
ATOM     11  C   UNL d   1     -38.274  13.147  17.212  0.00  0.00     0.019 A 
ATOM     12  C   UNL d   1     -39.095  14.753  16.344  0.00  0.00     0.002 A 
ATOM     13  C   UNL d   1     -37.940  12.931  16.487  0.00  0.00     0.002 A 
ATOM     14  C   UNL d   1     -38.753  14.528  15.616  0.00  0.00     0.000 A 
ATOM     15  C   UNL d   1     -38.277  13.904  15.362  0.00  0.00     0.000 A 
ATOM     16  C   UNL d   1     -37.940  13.243  15.724  0.00  0.00     0.000 A 
ENDROOT
BRANCH   1  17
ATOM     17  C   UNL d   1     -40.355  15.056  20.331  0.00  0.00     0.272 C 
ATOM     18  N   UNL d   1     -39.889  15.202  20.959  0.00  0.00    -0.272 N 
ATOM     19  C   UNL d   1     -39.093  15.156  20.988  0.00  0.00     0.083 A 
ATOM     20  C   UNL d   1     -40.148  15.427  21.693  0.00  0.00     0.083 A 
ATOM     21  C   UNL d   1     -38.859  15.347  21.723  0.00  0.00     0.021 A 
ATOM     22  C   UNL d   1     -39.500  15.514  22.158  0.00  0.00     0.021 A 
ATOM     23  O   UNL d   1     -41.151  15.127  20.390  0.00  0.00    -0.266 OA
ENDBRANCH   1  17
TORSDOF 1
ENDMDL
MODEL 9
REMARK VINA RESULT:      -6.1      1.576      4.647
REMARK  1 active torsions:
REMARK  status: ('A' for Active; 'I' for Inactive)
REMARK    1  A    between atoms: C_6  and  C_1 
REMARK       I    between atoms: N_9  and  C_6 
ROOT
ATOM      1  C   UNL d   1     -46.687  12.916  22.691  0.00  0.00     0.107 A 
ATOM      2  C   UNL d   1     -47.681  13.797  22.797  0.00  0.00     0.044 A 
ATOM      3  S   UNL d   1     -47.362  12.581  22.361  0.00  0.00    -0.061 SA
ATOM      4  C   UNL d   1     -47.977  13.125  22.426  0.00  0.00     0.112 A 
ATOM      5  C   UNL d   1     -46.889  13.672  22.961  0.00  0.00     0.116 A 
ATOM      6  N   UNL d   1     -48.777  13.100  22.195  0.00  0.00    -0.239 NA
ATOM      7  C   UNL d   1     -48.176  14.444  22.939  0.00  0.00     0.005 A 
ATOM      8  C   UNL d   1     -49.265  13.745  22.339  0.00  0.00     0.082 A 
ATOM      9  C   UNL d   1     -48.957  14.414  22.712  0.00  0.00     0.018 A 
ATOM     10  N   UNL d   1     -46.384  14.190  23.323  0.00  0.00    -0.147 N 
ATOM     11  C   UNL d   1     -50.003  13.525  22.041  0.00  0.00     0.019 A 
ATOM     12  C   UNL d   1     -49.262  15.151  22.945  0.00  0.00     0.002 A 
ATOM     13  C   UNL d   1     -50.742  13.892  21.995  0.00  0.00     0.002 A 
ATOM     14  C   UNL d   1     -50.013  15.514  22.895  0.00  0.00     0.000 A 
ATOM     15  C   UNL d   1     -50.750  15.294  22.597  0.00  0.00     0.000 A 
ATOM     16  C   UNL d   1     -51.051  14.621  22.224  0.00  0.00     0.000 A 
ENDROOT
BRANCH   1  17
ATOM     17  C   UNL d   1     -45.964  12.571  22.741  0.00  0.00     0.272 C 
ATOM     18  N   UNL d   1     -45.891  11.859  23.090  0.00  0.00    -0.272 N 
ATOM     19  C   UNL d   1     -46.473  11.420  23.414  0.00  0.00     0.083 A 
ATOM     20  C   UNL d   1     -45.198  11.450  23.177  0.00  0.00     0.083 A 
ATOM     21  C   UNL d   1     -46.151  10.751  23.698  0.00  0.00     0.021 A 
ATOM     22  C   UNL d   1     -45.372  10.765  23.556  0.00  0.00     0.021 A 
ATOM     23  O   UNL d   1     -45.323  12.945  22.439  0.00  0.00    -0.266 OA
ENDBRANCH   1  17
TORSDOF 1
ENDMDL
