MODEL 1
REMARK VINA RESULT:      18.0      0.000      0.000
REMARK  5 active torsions:
REMARK  status: ('A' for Active; 'I' for Inactive)
REMARK    1  A    between atoms: C_6  and  C_1 
REMARK    2  A    between atoms: C_7  and  C_6 
REMARK    3  A    between atoms: C_11  and  C_19 
REMARK    4  A    between atoms: O_18  and  C_17 
REMARK    5  A    between atoms: C_19  and  O_18 
ROOT
ATOM      1  C   UNL d   1      46.317 -17.724  44.036  0.00  0.00     0.139 A 
ATOM      2  C   UNL d   1      45.504 -16.799  44.570  0.00  0.00     0.064 A 
ATOM      3  C   UNL d   1      45.633 -17.608  44.490  0.00  0.00     0.220 A 
ATOM      4  C   UNL d   1      46.108 -16.406  44.165  0.00  0.00     0.105 A 
ATOM      5  O   UNL d   1      46.612 -16.982  43.835  0.00  0.00    -0.304 OA
ATOM      6  C   UNL d   1      46.129 -15.584  44.146  0.00  0.00     0.049 A 
ATOM      7  C   UNL d   1      44.921 -16.370  44.955  0.00  0.00     0.007 A 
ATOM      8  O   UNL d   1      45.162 -18.206  44.807  0.00  0.00    -0.284 OA
ATOM      9  C   UNL d   1      45.539 -15.158  44.536  0.00  0.00     0.097 A 
ATOM     10  C   UNL d   1      44.938 -15.549  44.938  0.00  0.00     0.025 A 
ENDROOT
BRANCH   1  11
ATOM     11  C   UNL d   1      46.647 -18.452  43.821  0.00  0.00     0.034 C 
BRANCH  11  12
ATOM     12  C   UNL d   1      46.547 -18.744  43.058  0.00  0.00     0.032 A 
ATOM     13  S   UNL d   1      46.545 -18.304  42.364  0.00  0.00    -0.086 SA
ATOM     14  C   UNL d   1      46.427 -18.824  41.728  0.00  0.00     0.035 A 
ATOM     15  C   UNL d   1      46.355 -19.586  42.035  0.00  0.00     0.007 A 
ATOM     16  C   UNL d   1      46.428 -19.544  42.859  0.00  0.00     0.007 A 
ENDBRANCH  11  12
ENDBRANCH   1  11
BRANCH   9  17
ATOM     17  O   UNL d   1      45.562 -14.333  44.515  0.00  0.00    -0.319 OA
BRANCH  17  18
ATOM     18  C   UNL d   1      45.571 -13.948  43.783  0.00  0.00     0.246 C 
BRANCH  18  19
ATOM     19  C   UNL d   1      45.528 -13.126  43.758  0.00  0.00     0.217 C 
ATOM     20  O   UNL d   1      45.940 -12.669  44.310  0.00  0.00    -0.645 OA
ATOM     21  O   UNL d   1      45.043 -12.730  43.141  0.00  0.00    -0.645 OA
ENDBRANCH  18  19
ENDBRANCH  17  18
ENDBRANCH   9  17
TORSDOF 5
ENDMDL
