MODEL 1
REMARK VINA RESULT:      92.9      0.000      0.000
REMARK  4 active torsions:
REMARK  status: ('A' for Active; 'I' for Inactive)
REMARK    1  A    between atoms: C_2  and  S_1 
REMARK    2  A    between atoms: C_15  and  S_1 
REMARK    3  A    between atoms: C_5  and  C_3 
REMARK    4  A    between atoms: C_16  and  C_5 
ROOT
ATOM      1  C   UNL d   1      44.442 -16.013  37.621  0.00  0.00     0.094 A 
ATOM      2  C   UNL d   1      44.673 -16.714  37.993  0.00  0.00     0.069 A 
ATOM      3  C   UNL d   1      43.648 -15.886  37.439  0.00  0.00     0.031 A 
ATOM      4  C   UNL d   1      43.085 -16.458  37.628  0.00  0.00     0.084 A 
ATOM      5  C   UNL d   1      43.419 -15.187  37.068  0.00  0.00     0.029 A 
ATOM      6  N   UNL d   1      43.314 -17.157  37.999  0.00  0.00    -0.244 NA
ATOM      7  C   UNL d   1      44.110 -17.285  38.182  0.00  0.00     0.103 A 
ATOM      8  C   UNL d   1      42.291 -16.332  37.446  0.00  0.00     0.046 A 
ATOM      9  C   UNL d   1      42.626 -15.062  36.887  0.00  0.00     0.123 A 
ATOM     10  C   UNL d   1      42.063 -15.633  37.075  0.00  0.00     0.124 A 
ATOM     11  O   UNL d   1      42.397 -14.363  36.516  0.00  0.00    -0.301 OA
ATOM     12  O   UNL d   1      41.270 -15.508  36.894  0.00  0.00    -0.301 OA
ATOM     13  C   UNL d   1      41.598 -14.232  36.331  0.00  0.00     0.149 A 
ATOM     14  C   UNL d   1      41.035 -14.804  36.520  0.00  0.00     0.149 A 
ENDROOT
BRANCH   1  15
ATOM     15  S   UNL d   1      44.999 -15.435  37.429  0.00  0.00     0.210 S 
ATOM     16  O   UNL d   1      44.679 -14.946  38.011  0.00  0.00    -0.217 OA
ATOM     17  O   UNL d   1      45.318 -15.925  36.847  0.00  0.00    -0.217 OA
BRANCH  15  18
ATOM     18  C   UNL d   1      45.549 -14.847  37.250  0.00  0.00     0.088 A 
ATOM     19  C   UNL d   1      45.980 -14.881  36.548  0.00  0.00     0.011 A 
ATOM     20  C   UNL d   1      46.532 -14.286  36.375  0.00  0.00     0.001 A 
ATOM     21  C   UNL d   1      46.646 -13.665  36.903  0.00  0.00     0.000 A 
ATOM     22  C   UNL d   1      46.218 -13.629  37.601  0.00  0.00     0.001 A 
ATOM     23  C   UNL d   1      45.664 -14.225  37.778  0.00  0.00     0.011 A 
ENDBRANCH  15  18
ENDBRANCH   1  15
BRANCH   2  24
ATOM     24  C   UNL d   1      45.473 -16.844  38.178  0.00  0.00     0.198 C 
ATOM     25  O   UNL d   1      46.062 -16.629  37.642  0.00  0.00    -0.286 OA
BRANCH  24  26
ATOM     26  C   UNL d   1      45.676 -17.190  38.900  0.00  0.00     0.039 A 
ATOM     27  C   UNL d   1      45.116 -17.627  39.330  0.00  0.00     0.003 A 
ATOM     28  C   UNL d   1      45.318 -17.973  40.052  0.00  0.00     0.000 A 
ATOM     29  C   UNL d   1      46.081 -17.888  40.354  0.00  0.00     0.000 A 
ATOM     30  C   UNL d   1      46.646 -17.447  39.919  0.00  0.00     0.000 A 
ATOM     31  C   UNL d   1      46.290 -18.229  41.071  0.00  0.00     0.000 C 
ATOM     32  C   UNL d   1      46.448 -17.100  39.199  0.00  0.00     0.003 A 
ENDBRANCH  24  26
ENDBRANCH   2  24
TORSDOF 4
ENDMDL
MODEL 2
REMARK VINA RESULT:      94.2      5.819      6.788
REMARK  4 active torsions:
REMARK  status: ('A' for Active; 'I' for Inactive)
REMARK    1  A    between atoms: C_2  and  S_1 
REMARK    2  A    between atoms: C_15  and  S_1 
REMARK    3  A    between atoms: C_5  and  C_3 
REMARK    4  A    between atoms: C_16  and  C_5 
ROOT
ATOM      1  C   UNL d   1      45.090 -15.352  43.888  0.00  0.00     0.094 A 
ATOM      2  C   UNL d   1      45.571 -16.011  44.020  0.00  0.00     0.069 A 
ATOM      3  C   UNL d   1      45.387 -14.701  43.480  0.00  0.00     0.031 A 
ATOM      4  C   UNL d   1      46.163 -14.706  43.203  0.00  0.00     0.084 A 
ATOM      5  C   UNL d   1      44.906 -14.044  43.349  0.00  0.00     0.029 A 
ATOM      6  N   UNL d   1      46.644 -15.363  43.333  0.00  0.00    -0.244 NA
ATOM      7  C   UNL d   1      46.347 -16.016  43.743  0.00  0.00     0.103 A 
ATOM      8  C   UNL d   1      46.460 -14.055  42.794  0.00  0.00     0.046 A 
ATOM      9  C   UNL d   1      45.204 -13.394  42.941  0.00  0.00     0.123 A 
ATOM     10  C   UNL d   1      45.980 -13.400  42.664  0.00  0.00     0.124 A 
ATOM     11  O   UNL d   1      44.723 -12.739  42.811  0.00  0.00    -0.301 OA
ATOM     12  O   UNL d   1      46.277 -12.750  42.256  0.00  0.00    -0.301 OA
ATOM     13  C   UNL d   1      45.019 -12.080  42.399  0.00  0.00     0.149 A 
ATOM     14  C   UNL d   1      45.795 -12.086  42.122  0.00  0.00     0.149 A 
ENDROOT
BRANCH   1  15
ATOM     15  S   UNL d   1      44.312 -15.338  44.162  0.00  0.00     0.210 S 
ATOM     16  O   UNL d   1      44.121 -15.933  43.624  0.00  0.00    -0.217 OA
ATOM     17  O   UNL d   1      44.503 -14.743  44.701  0.00  0.00    -0.217 OA
BRANCH  15  18
ATOM     18  C   UNL d   1      43.530 -15.337  44.425  0.00  0.00     0.088 A 
ATOM     19  C   UNL d   1      43.103 -14.633  44.459  0.00  0.00     0.011 A 
ATOM     20  C   UNL d   1      42.317 -14.641  44.724  0.00  0.00     0.001 A 
ATOM     21  C   UNL d   1      41.966 -15.350  44.952  0.00  0.00     0.000 A 
ATOM     22  C   UNL d   1      42.389 -16.051  44.919  0.00  0.00     0.001 A 
ATOM     23  C   UNL d   1      43.178 -16.047  44.653  0.00  0.00     0.011 A 
ENDBRANCH  15  18
ENDBRANCH   1  15
BRANCH   2  24
ATOM     24  C   UNL d   1      45.275 -16.669  44.432  0.00  0.00     0.198 C 
ATOM     25  O   UNL d   1      44.642 -16.580  44.953  0.00  0.00    -0.286 OA
BRANCH  24  26
ATOM     26  C   UNL d   1      45.615 -17.412  44.317  0.00  0.00     0.039 A 
ATOM     27  C   UNL d   1      45.591 -17.776  43.572  0.00  0.00     0.003 A 
ATOM     28  C   UNL d   1      45.931 -18.519  43.456  0.00  0.00     0.000 A 
ATOM     29  C   UNL d   1      46.300 -18.910  44.082  0.00  0.00     0.000 A 
ATOM     30  C   UNL d   1      46.324 -18.541  44.835  0.00  0.00     0.000 A 
ATOM     31  C   UNL d   1      46.641 -19.649  43.975  0.00  0.00     0.000 C 
ATOM     32  C   UNL d   1      45.986 -17.800  44.954  0.00  0.00     0.003 A 
ENDBRANCH  24  26
ENDBRANCH   2  24
TORSDOF 4
ENDMDL
