MODEL 1
REMARK VINA RESULT:      -3.4      0.000      0.000
REMARK  1 active torsions:
REMARK  status: ('A' for Active; 'I' for Inactive)
REMARK    1  A    between atoms: C_9  and  C_1 
ROOT
ATOM      1  C   UNL d   1      31.248  16.974 -24.031  0.00  0.00     0.064 A 
ATOM      2  C   UNL d   1      30.503  17.237 -24.292  0.00  0.00     0.199 A 
ATOM      3  C   UNL d   1      29.831  16.785 -24.106  0.00  0.00     0.062 A 
ATOM      4  C   UNL d   1      31.318  16.280 -23.597  0.00  0.00     0.126 A 
ATOM      5  C   UNL d   1      29.901  16.090 -23.672  0.00  0.00     0.106 A 
ATOM      6  O   UNL d   1      30.645  15.834 -23.415  0.00  0.00    -0.305 OA
ATOM      7  C   UNL d   1      29.093  17.048 -24.366  0.00  0.00     0.009 A 
ATOM      8  C   UNL d   1      29.234  15.646 -23.489  0.00  0.00     0.067 A 
ATOM      9  O   UNL d   1      30.434  17.928 -24.724  0.00  0.00    -0.286 OA
ATOM     10  C   UNL d   1      28.490  15.902 -23.746  0.00  0.00     0.198 A 
ATOM     11  C   UNL d   1      28.420  16.596 -24.180  0.00  0.00     0.042 A 
ATOM     12  O   UNL d   1      27.797  15.454 -23.565  0.00  0.00    -0.286 OA
ENDROOT
BRANCH   1  13
ATOM     13  C   UNL d   1      31.917  17.426 -24.218  0.00  0.00     0.005 A 
ATOM     14  C   UNL d   1      32.330  17.293 -24.911  0.00  0.00     0.000 A 
ATOM     15  C   UNL d   1      33.002  17.749 -25.097  0.00  0.00     0.000 A 
ATOM     16  C   UNL d   1      33.241  18.334 -24.567  0.00  0.00     0.000 A 
ATOM     17  C   UNL d   1      32.828  18.466 -23.873  0.00  0.00     0.000 A 
ATOM     18  C   UNL d   1      32.162  18.017 -23.686  0.00  0.00     0.000 A 
ENDBRANCH   1  13
TORSDOF 1
ENDMDL
MODEL 2
REMARK VINA RESULT:      -2.6      4.185      5.814
REMARK  1 active torsions:
REMARK  status: ('A' for Active; 'I' for Inactive)
REMARK    1  A    between atoms: C_9  and  C_1 
ROOT
ATOM      1  C   UNL d   1      32.763  21.429 -21.256  0.00  0.00     0.064 A 
ATOM      2  C   UNL d   1      32.953  21.385 -22.065  0.00  0.00     0.199 A 
ATOM      3  C   UNL d   1      33.003  20.638 -22.426  0.00  0.00     0.062 A 
ATOM      4  C   UNL d   1      32.628  20.744 -20.821  0.00  0.00     0.126 A 
ATOM      5  C   UNL d   1      32.867  19.954 -21.991  0.00  0.00     0.106 A 
ATOM      6  O   UNL d   1      32.679  20.004 -21.187  0.00  0.00    -0.305 OA
ATOM      7  C   UNL d   1      33.191  20.598 -23.229  0.00  0.00     0.009 A 
ATOM      8  C   UNL d   1      32.917  19.217 -22.350  0.00  0.00     0.067 A 
ATOM      9  O   UNL d   1      33.087  22.066 -22.498  0.00  0.00    -0.286 OA
ATOM     10  C   UNL d   1      33.105  19.167 -23.155  0.00  0.00     0.198 A 
ATOM     11  C   UNL d   1      33.241  19.851 -23.590  0.00  0.00     0.042 A 
ATOM     12  O   UNL d   1      33.160  18.415 -23.536  0.00  0.00    -0.286 OA
ENDROOT
BRANCH   1  13
ATOM     13  C   UNL d   1      32.714  22.174 -20.899  0.00  0.00     0.005 A 
ATOM     14  C   UNL d   1      33.199  22.368 -20.269  0.00  0.00     0.000 A 
ATOM     15  C   UNL d   1      33.147  23.118 -19.911  0.00  0.00     0.000 A 
ATOM     16  C   UNL d   1      32.598  23.659 -20.205  0.00  0.00     0.000 A 
ATOM     17  C   UNL d   1      32.113  23.465 -20.834  0.00  0.00     0.000 A 
ATOM     18  C   UNL d   1      32.161  22.723 -21.192  0.00  0.00     0.000 A 
ENDBRANCH   1  13
TORSDOF 1
ENDMDL
MODEL 3
REMARK VINA RESULT:      -2.3      2.345      4.193
REMARK  1 active torsions:
REMARK  status: ('A' for Active; 'I' for Inactive)
REMARK    1  A    between atoms: C_9  and  C_1 
ROOT
ATOM      1  C   UNL d   1      32.675  17.852 -23.833  0.00  0.00     0.064 A 
ATOM      2  C   UNL d   1      32.865  18.075 -23.054  0.00  0.00     0.199 A 
ATOM      3  C   UNL d   1      32.957  18.883 -22.880  0.00  0.00     0.062 A 
ATOM      4  C   UNL d   1      32.580  18.420 -24.419  0.00  0.00     0.126 A 
ATOM      5  C   UNL d   1      32.861  19.451 -23.466  0.00  0.00     0.106 A 
ATOM      6  O   UNL d   1      32.672  19.223 -24.238  0.00  0.00    -0.305 OA
ATOM      7  C   UNL d   1      33.146  19.101 -22.106  0.00  0.00     0.009 A 
ATOM      8  C   UNL d   1      32.953  20.249 -23.290  0.00  0.00     0.067 A 
ATOM      9  O   UNL d   1      32.960  17.510 -22.471  0.00  0.00    -0.286 OA
ATOM     10  C   UNL d   1      33.142  20.477 -22.517  0.00  0.00     0.198 A 
ATOM     11  C   UNL d   1      33.237  19.909 -21.931  0.00  0.00     0.042 A 
ATOM     12  O   UNL d   1      33.238  21.294 -22.323  0.00  0.00    -0.286 OA
ENDROOT
BRANCH   1  13
ATOM     13  C   UNL d   1      32.584  17.047 -24.005  0.00  0.00     0.005 A 
ATOM     14  C   UNL d   1      33.236  16.574 -24.147  0.00  0.00     0.000 A 
ATOM     15  C   UNL d   1      33.142  15.765 -24.320  0.00  0.00     0.000 A 
ATOM     16  C   UNL d   1      32.379  15.453 -24.345  0.00  0.00     0.000 A 
ATOM     17  C   UNL d   1      31.727  15.926 -24.202  0.00  0.00     0.000 A 
ATOM     18  C   UNL d   1      31.816  16.728 -24.031  0.00  0.00     0.000 A 
ENDBRANCH   1  13
TORSDOF 1
ENDMDL
MODEL 4
REMARK VINA RESULT:      -2.2      0.642      1.288
REMARK  1 active torsions:
REMARK  status: ('A' for Active; 'I' for Inactive)
REMARK    1  A    between atoms: C_9  and  C_1 
ROOT
ATOM      1  C   UNL d   1      30.958  17.261 -24.318  0.00  0.00     0.064 A 
ATOM      2  C   UNL d   1      30.678  16.749 -23.725  0.00  0.00     0.199 A 
ATOM      3  C   UNL d   1      29.914  16.430 -23.798  0.00  0.00     0.062 A 
ATOM      4  C   UNL d   1      30.486  17.448 -24.965  0.00  0.00     0.126 A 
ATOM      5  C   UNL d   1      29.442  16.618 -24.445  0.00  0.00     0.106 A 
ATOM      6  O   UNL d   1      29.726  17.128 -25.031  0.00  0.00    -0.305 OA
ATOM      7  C   UNL d   1      29.639  15.922 -23.208  0.00  0.00     0.009 A 
ATOM      8  C   UNL d   1      28.687  16.301 -24.513  0.00  0.00     0.067 A 
ATOM      9  O   UNL d   1      31.148  16.562 -23.082  0.00  0.00    -0.286 OA
ATOM     10  C   UNL d   1      28.403  15.791 -23.927  0.00  0.00     0.198 A 
ATOM     11  C   UNL d   1      28.875  15.604 -23.280  0.00  0.00     0.042 A 
ATOM     12  O   UNL d   1      27.628  15.459 -23.986  0.00  0.00    -0.286 OA
ENDROOT
BRANCH   1  13
ATOM     13  C   UNL d   1      31.720  17.577 -24.244  0.00  0.00     0.005 A 
ATOM     14  C   UNL d   1      31.838  18.386 -24.245  0.00  0.00     0.000 A 
ATOM     15  C   UNL d   1      32.604  18.702 -24.171  0.00  0.00     0.000 A 
ATOM     16  C   UNL d   1      33.240  18.182 -24.096  0.00  0.00     0.000 A 
ATOM     17  C   UNL d   1      33.122  17.372 -24.095  0.00  0.00     0.000 A 
ATOM     18  C   UNL d   1      32.364  17.056 -24.169  0.00  0.00     0.000 A 
ENDBRANCH   1  13
TORSDOF 1
ENDMDL
MODEL 5
REMARK VINA RESULT:      -2.0      2.397      3.983
REMARK  1 active torsions:
REMARK  status: ('A' for Active; 'I' for Inactive)
REMARK    1  A    between atoms: C_9  and  C_1 
ROOT
ATOM      1  C   UNL d   1      32.662  17.583 -23.762  0.00  0.00     0.064 A 
ATOM      2  C   UNL d   1      32.804  18.286 -24.183  0.00  0.00     0.199 A 
ATOM      3  C   UNL d   1      32.912  18.993 -23.758  0.00  0.00     0.062 A 
ATOM      4  C   UNL d   1      32.630  17.586 -22.941  0.00  0.00     0.126 A 
ATOM      5  C   UNL d   1      32.880  18.996 -22.937  0.00  0.00     0.106 A 
ATOM      6  O   UNL d   1      32.738  18.293 -22.524  0.00  0.00    -0.305 OA
ATOM      7  C   UNL d   1      33.053  19.689 -24.179  0.00  0.00     0.009 A 
ATOM      8  C   UNL d   1      32.987  19.696 -22.520  0.00  0.00     0.067 A 
ATOM      9  O   UNL d   1      32.836  18.283 -25.000  0.00  0.00    -0.286 OA
ATOM     10  C   UNL d   1      33.129  20.399 -22.933  0.00  0.00     0.198 A 
ATOM     11  C   UNL d   1      33.161  20.396 -23.754  0.00  0.00     0.042 A 
ATOM     12  O   UNL d   1      33.241  21.126 -22.516  0.00  0.00    -0.286 OA
ENDROOT
BRANCH   1  13
ATOM     13  C   UNL d   1      32.554  16.880 -24.186  0.00  0.00     0.005 A 
ATOM     14  C   UNL d   1      33.197  16.440 -24.435  0.00  0.00     0.000 A 
ATOM     15  C   UNL d   1      33.086  15.733 -24.862  0.00  0.00     0.000 A 
ATOM     16  C   UNL d   1      32.316  15.489 -25.027  0.00  0.00     0.000 A 
ATOM     17  C   UNL d   1      31.673  15.929 -24.779  0.00  0.00     0.000 A 
ATOM     18  C   UNL d   1      31.779  16.629 -24.356  0.00  0.00     0.000 A 
ENDBRANCH   1  13
TORSDOF 1
ENDMDL
MODEL 6
REMARK VINA RESULT:      -1.9      4.670      6.281
REMARK  1 active torsions:
REMARK  status: ('A' for Active; 'I' for Inactive)
REMARK    1  A    between atoms: C_9  and  C_1 
ROOT
ATOM      1  C   UNL d   1      32.926  20.850 -21.376  0.00  0.00     0.064 A 
ATOM      2  C   UNL d   1      32.564  21.591 -21.480  0.00  0.00     0.199 A 
ATOM      3  C   UNL d   1      32.525  22.113 -20.833  0.00  0.00     0.062 A 
ATOM      4  C   UNL d   1      33.241  20.637 -20.647  0.00  0.00     0.126 A 
ATOM      5  C   UNL d   1      32.840  21.900 -20.105  0.00  0.00     0.106 A 
ATOM      6  O   UNL d   1      33.199  21.161 -20.008  0.00  0.00    -0.305 OA
ATOM      7  C   UNL d   1      32.164  22.848 -20.940  0.00  0.00     0.009 A 
ATOM      8  C   UNL d   1      32.800  22.418 -19.468  0.00  0.00     0.067 A 
ATOM      9  O   UNL d   1      32.251  21.803 -22.205  0.00  0.00    -0.286 OA
ATOM     10  C   UNL d   1      32.440  23.157 -19.565  0.00  0.00     0.198 A 
ATOM     11  C   UNL d   1      32.126  23.370 -20.294  0.00  0.00     0.042 A 
ATOM     12  O   UNL d   1      32.393  23.699 -18.918  0.00  0.00    -0.286 OA
ENDROOT
BRANCH   1  13
ATOM     13  C   UNL d   1      32.964  20.332 -22.021  0.00  0.00     0.005 A 
ATOM     14  C   UNL d   1      33.204  20.597 -22.756  0.00  0.00     0.000 A 
ATOM     15  C   UNL d   1      33.241  20.074 -23.403  0.00  0.00     0.000 A 
ATOM     16  C   UNL d   1      33.031  19.285 -23.285  0.00  0.00     0.000 A 
ATOM     17  C   UNL d   1      32.791  19.020 -22.550  0.00  0.00     0.000 A 
ATOM     18  C   UNL d   1      32.753  19.535 -21.906  0.00  0.00     0.000 A 
ENDBRANCH   1  13
TORSDOF 1
ENDMDL
MODEL 7
REMARK VINA RESULT:      -1.6      3.109      4.948
REMARK  1 active torsions:
REMARK  status: ('A' for Active; 'I' for Inactive)
REMARK    1  A    between atoms: C_9  and  C_1 
ROOT
ATOM      1  C   UNL d   1      32.931  19.401 -22.823  0.00  0.00     0.064 A 
ATOM      2  C   UNL d   1      32.872  20.230 -22.843  0.00  0.00     0.199 A 
ATOM      3  C   UNL d   1      32.966  20.656 -22.135  0.00  0.00     0.062 A 
ATOM      4  C   UNL d   1      33.079  19.009 -22.116  0.00  0.00     0.126 A 
ATOM      5  C   UNL d   1      33.114  20.264 -21.428  0.00  0.00     0.106 A 
ATOM      6  O   UNL d   1      33.171  19.438 -21.415  0.00  0.00    -0.305 OA
ATOM      7  C   UNL d   1      32.907  21.479 -22.158  0.00  0.00     0.009 A 
ATOM      8  C   UNL d   1      33.206  20.688 -20.730  0.00  0.00     0.067 A 
ATOM      9  O   UNL d   1      32.725  20.620 -23.547  0.00  0.00    -0.286 OA
ATOM     10  C   UNL d   1      33.148  21.513 -20.743  0.00  0.00     0.198 A 
ATOM     11  C   UNL d   1      33.000  21.905 -21.450  0.00  0.00     0.042 A 
ATOM     12  O   UNL d   1      33.241  21.960 -20.032  0.00  0.00    -0.286 OA
ENDROOT
BRANCH   1  13
ATOM     13  C   UNL d   1      32.838  18.978 -23.530  0.00  0.00     0.005 A 
ATOM     14  C   UNL d   1      33.241  19.200 -24.206  0.00  0.00     0.000 A 
ATOM     15  C   UNL d   1      33.145  18.774 -24.914  0.00  0.00     0.000 A 
ATOM     16  C   UNL d   1      32.637  18.125 -24.919  0.00  0.00     0.000 A 
ATOM     17  C   UNL d   1      32.233  17.903 -24.243  0.00  0.00     0.000 A 
ATOM     18  C   UNL d   1      32.325  18.322 -23.539  0.00  0.00     0.000 A 
ENDBRANCH   1  13
TORSDOF 1
ENDMDL
MODEL 8
REMARK VINA RESULT:      -1.5      6.337      7.902
REMARK  1 active torsions:
REMARK  status: ('A' for Active; 'I' for Inactive)
REMARK    1  A    between atoms: C_9  and  C_1 
ROOT
ATOM      1  C   UNL d   1      32.641  22.496 -19.248  0.00  0.00     0.064 A 
ATOM      2  C   UNL d   1      32.942  22.951 -19.876  0.00  0.00     0.199 A 
ATOM      3  C   UNL d   1      32.941  22.627 -20.642  0.00  0.00     0.062 A 
ATOM      4  C   UNL d   1      32.346  21.741 -19.383  0.00  0.00     0.126 A 
ATOM      5  C   UNL d   1      32.646  21.872 -20.777  0.00  0.00     0.106 A 
ATOM      6  O   UNL d   1      32.348  21.425 -20.147  0.00  0.00    -0.305 OA
ATOM      7  C   UNL d   1      33.241  23.081 -21.263  0.00  0.00     0.009 A 
ATOM      8  C   UNL d   1      32.646  21.555 -21.535  0.00  0.00     0.067 A 
ATOM      9  O   UNL d   1      33.236  23.702 -19.742  0.00  0.00    -0.286 OA
ATOM     10  C   UNL d   1      32.945  22.002 -22.164  0.00  0.00     0.198 A 
ATOM     11  C   UNL d   1      33.239  22.758 -22.030  0.00  0.00     0.042 A 
ATOM     12  O   UNL d   1      32.950  21.688 -22.948  0.00  0.00    -0.286 OA
ENDROOT
BRANCH   1  13
ATOM     13  C   UNL d   1      32.643  22.820 -18.486  0.00  0.00     0.005 A 
ATOM     14  C   UNL d   1      32.077  23.366 -18.262  0.00  0.00     0.000 A 
ATOM     15  C   UNL d   1      32.081  23.690 -17.495  0.00  0.00     0.000 A 
ATOM     16  C   UNL d   1      32.668  23.449 -16.968  0.00  0.00     0.000 A 
ATOM     17  C   UNL d   1      33.235  22.903 -17.192  0.00  0.00     0.000 A 
ATOM     18  C   UNL d   1      33.234  22.580 -17.951  0.00  0.00     0.000 A 
ENDBRANCH   1  13
TORSDOF 1
ENDMDL
MODEL 9
REMARK VINA RESULT:      -0.6      6.666      8.161
REMARK  1 active torsions:
REMARK  status: ('A' for Active; 'I' for Inactive)
REMARK    1  A    between atoms: C_9  and  C_1 
ROOT
ATOM      1  C   UNL d   1      32.609  22.446 -19.767  0.00  0.00     0.064 A 
ATOM      2  C   UNL d   1      32.860  22.042 -19.085  0.00  0.00     0.199 A 
ATOM      3  C   UNL d   1      32.925  22.463 -18.371  0.00  0.00     0.062 A 
ATOM      4  C   UNL d   1      32.427  23.247 -19.736  0.00  0.00     0.126 A 
ATOM      5  C   UNL d   1      32.743  23.264 -18.340  0.00  0.00     0.106 A 
ATOM      6  O   UNL d   1      32.493  23.660 -19.022  0.00  0.00    -0.305 OA
ATOM      7  C   UNL d   1      33.175  22.059 -17.695  0.00  0.00     0.009 A 
ATOM      8  C   UNL d   1      32.808  23.677 -17.632  0.00  0.00     0.067 A 
ATOM      9  O   UNL d   1      33.041  21.245 -19.116  0.00  0.00    -0.286 OA
ATOM     10  C   UNL d   1      33.057  23.281 -16.950  0.00  0.00     0.198 A 
ATOM     11  C   UNL d   1      33.239  22.480 -16.981  0.00  0.00     0.042 A 
ATOM     12  O   UNL d   1      33.128  23.694 -16.216  0.00  0.00    -0.286 OA
ENDROOT
BRANCH   1  13
ATOM     13  C   UNL d   1      32.545  22.025 -20.478  0.00  0.00     0.005 A 
ATOM     14  C   UNL d   1      33.178  21.979 -20.994  0.00  0.00     0.000 A 
ATOM     15  C   UNL d   1      33.112  21.556 -21.708  0.00  0.00     0.000 A 
ATOM     16  C   UNL d   1      32.396  21.185 -21.882  0.00  0.00     0.000 A 
ATOM     17  C   UNL d   1      31.763  21.231 -21.366  0.00  0.00     0.000 A 
ATOM     18  C   UNL d   1      31.825  21.649 -20.658  0.00  0.00     0.000 A 
ENDBRANCH   1  13
TORSDOF 1
ENDMDL
