MODEL 1
REMARK VINA RESULT:      -4.4      0.000      0.000
REMARK  6 active torsions:
REMARK  status: ('A' for Active; 'I' for Inactive)
REMARK    1  A    between atoms: C_12  and  N_4 
REMARK    2  A    between atoms: C_10  and  N_6 
REMARK    3  A    between atoms: C_11  and  C_10 
REMARK    4  A    between atoms: O_15  and  C_11 
REMARK    5  A    between atoms: C_16  and  O_15 
REMARK    6  A    between atoms: C_17  and  C_16 
ROOT
ATOM      1  C   UNL d   1      59.710  -1.460  29.315  0.00  0.00     0.172 A 
ATOM      2  C   UNL d   1      60.141  -0.759  29.366  0.00  0.00     0.113 A 
ATOM      3  N   UNL d   1      58.921  -1.477  29.537  0.00  0.00    -0.206 NA
ATOM      4  N   UNL d   1      60.221  -2.045  29.022  0.00  0.00    -0.212 N 
ATOM      5  C   UNL d   1      59.783  -0.074  29.640  0.00  0.00     0.271 A 
ATOM      6  N   UNL d   1      58.987  -0.085  29.866  0.00  0.00    -0.250 N 
ATOM      7  N   UNL d   1      60.952  -1.698  28.898  0.00  0.00    -0.162 NA
ATOM      8  C   UNL d   1      58.556  -0.786  29.814  0.00  0.00     0.187 A 
ATOM      9  C   UNL d   1      60.911  -0.922  29.104  0.00  0.00     0.129 A 
ATOM     10  O   UNL d   1      60.215   0.628  29.691  0.00  0.00    -0.266 OA
ENDROOT
BRANCH   6  11
ATOM     11  C   UNL d   1      58.615   0.608  30.145  0.00  0.00     0.153 C 
BRANCH  11  12
ATOM     12  C   UNL d   1      57.821   0.584  30.390  0.00  0.00     0.318 C 
ATOM     13  O   UNL d   1      57.224   0.682  29.842  0.00  0.00    -0.257 OA
BRANCH  12  14
ATOM     14  O   UNL d   1      57.652   0.462  31.189  0.00  0.00    -0.270 OA
BRANCH  14  15
ATOM     15  C   UNL d   1      56.861   0.483  31.441  0.00  0.00     0.126 C 
BRANCH  15  16
ATOM     16  C   UNL d   1      56.690   0.292  32.218  0.00  0.00     0.025 A 
ATOM     17  C   UNL d   1      56.077  -0.247  32.372  0.00  0.00     0.002 A 
ATOM     18  C   UNL d   1      55.898  -0.446  33.159  0.00  0.00     0.000 A 
ATOM     19  C   UNL d   1      56.325  -0.110  33.770  0.00  0.00     0.000 A 
ATOM     20  C   UNL d   1      56.939   0.430  33.616  0.00  0.00     0.000 A 
ATOM     21  C   UNL d   1      57.113   0.624  32.834  0.00  0.00     0.002 A 
ENDBRANCH  15  16
ENDBRANCH  14  15
ENDBRANCH  12  14
ENDBRANCH  11  12
ENDBRANCH   6  11
BRANCH   4  22
ATOM     22  C   UNL d   1      60.065  -2.829  28.871  0.00  0.00     0.085 A 
ATOM     23  C   UNL d   1      60.660  -3.402  28.982  0.00  0.00     0.019 A 
ATOM     24  C   UNL d   1      60.496  -4.189  28.828  0.00  0.00     0.002 A 
ATOM     25  C   UNL d   1      59.733  -4.421  28.560  0.00  0.00     0.000 A 
ATOM     26  C   UNL d   1      59.162  -3.852  28.455  0.00  0.00     0.002 A 
ATOM     27  C   UNL d   1      59.316  -3.059  28.607  0.00  0.00     0.019 A 
ENDBRANCH   4  22
TORSDOF 6
ENDMDL
MODEL 2
REMARK VINA RESULT:      -3.9      1.880      5.737
REMARK  6 active torsions:
REMARK  status: ('A' for Active; 'I' for Inactive)
REMARK    1  A    between atoms: C_12  and  N_4 
REMARK    2  A    between atoms: C_10  and  N_6 
REMARK    3  A    between atoms: C_11  and  C_10 
REMARK    4  A    between atoms: O_15  and  C_11 
REMARK    5  A    between atoms: C_16  and  O_15 
REMARK    6  A    between atoms: C_17  and  C_16 
ROOT
ATOM      1  C   UNL d   1      56.279  -0.372  32.585  0.00  0.00     0.172 A 
ATOM      2  C   UNL d   1      56.510  -1.037  32.155  0.00  0.00     0.113 A 
ATOM      3  N   UNL d   1      56.499   0.378  32.336  0.00  0.00    -0.206 NA
ATOM      4  N   UNL d   1      55.835  -0.638  33.234  0.00  0.00    -0.212 N 
ATOM      5  C   UNL d   1      56.961  -0.952  31.476  0.00  0.00     0.271 A 
ATOM      6  N   UNL d   1      57.186  -0.197  31.220  0.00  0.00    -0.250 N 
ATOM      7  N   UNL d   1      55.799  -1.455  33.194  0.00  0.00    -0.162 NA
ATOM      8  C   UNL d   1      56.955   0.468  31.650  0.00  0.00     0.187 A 
ATOM      9  C   UNL d   1      56.204  -1.702  32.545  0.00  0.00     0.129 A 
ATOM     10  O   UNL d   1      57.192  -1.617  31.046  0.00  0.00    -0.266 OA
ENDROOT
BRANCH   6  11
ATOM     11  C   UNL d   1      57.645  -0.102  30.529  0.00  0.00     0.153 C 
BRANCH  11  12
ATOM     12  C   UNL d   1      58.466   0.013  30.588  0.00  0.00     0.318 C 
ATOM     13  O   UNL d   1      58.756   0.681  30.959  0.00  0.00    -0.257 OA
BRANCH  12  14
ATOM     14  O   UNL d   1      58.974  -0.552  30.267  0.00  0.00    -0.270 OA
BRANCH  14  15
ATOM     15  C   UNL d   1      59.487  -0.330  29.652  0.00  0.00     0.126 C 
BRANCH  15  16
ATOM     16  C   UNL d   1      59.899  -0.914  29.254  0.00  0.00     0.025 A 
ATOM     17  C   UNL d   1      59.519  -1.637  29.099  0.00  0.00     0.002 A 
ATOM     18  C   UNL d   1      59.931  -2.235  28.694  0.00  0.00     0.000 A 
ATOM     19  C   UNL d   1      60.702  -2.106  28.455  0.00  0.00     0.000 A 
ATOM     20  C   UNL d   1      61.083  -1.383  28.610  0.00  0.00     0.000 A 
ATOM     21  C   UNL d   1      60.670  -0.793  29.012  0.00  0.00     0.002 A 
ENDBRANCH  15  16
ENDBRANCH  14  15
ENDBRANCH  12  14
ENDBRANCH  11  12
ENDBRANCH   6  11
BRANCH   4  22
ATOM     22  C   UNL d   1      55.482  -0.202  33.824  0.00  0.00     0.085 A 
ATOM     23  C   UNL d   1      54.741   0.156  33.692  0.00  0.00     0.019 A 
ATOM     24  C   UNL d   1      54.392   0.593  34.289  0.00  0.00     0.002 A 
ATOM     25  C   UNL d   1      54.777   0.682  35.033  0.00  0.00     0.000 A 
ATOM     26  C   UNL d   1      55.499   0.328  35.148  0.00  0.00     0.002 A 
ATOM     27  C   UNL d   1      55.858  -0.113  34.554  0.00  0.00     0.019 A 
ENDBRANCH   4  22
TORSDOF 6
ENDMDL
