MODEL 1
REMARK VINA RESULT:      -8.3      0.000      0.000
REMARK  2 active torsions:
REMARK  status: ('A' for Active; 'I' for Inactive)
REMARK    1  A    between atoms: C_10  and  N_3 
REMARK    2  A    between atoms: C_11  and  C_4 
ROOT
ATOM      1  C   UNL d   1     -48.392  12.866  23.114  0.00  0.00     0.154 A 
ATOM      2  C   UNL d   1     -49.116  13.239  23.202  0.00  0.00     0.094 A 
ATOM      3  N   UNL d   1     -47.853  13.418  22.817  0.00  0.00    -0.290 N 
ATOM      4  C   UNL d   1     -49.031  14.026  22.960  0.00  0.00     0.025 A 
ATOM      5  C   UNL d   1     -48.253  14.132  22.725  0.00  0.00     0.082 A 
ATOM      6  N   UNL d   1     -48.307  12.070  23.313  0.00  0.00    -0.206 NA
ATOM      7  C   UNL d   1     -49.767  12.823  23.490  0.00  0.00     0.284 A 
ATOM      8  N   UNL d   1     -49.682  12.026  23.689  0.00  0.00    -0.186 NA
ATOM      9  C   UNL d   1     -48.959  11.653  23.601  0.00  0.00     0.203 A 
ATOM     10  O   UNL d   1     -50.491  13.196  23.578  0.00  0.00    -0.265 OA
ENDROOT
BRANCH   3  11
ATOM     11  C   UNL d   1     -47.065  13.319  22.636  0.00  0.00     0.065 A 
ATOM     12  C   UNL d   1     -46.487  13.480  23.202  0.00  0.00     0.018 A 
ATOM     13  C   UNL d   1     -45.688  13.380  23.019  0.00  0.00     0.002 A 
ATOM     14  C   UNL d   1     -45.462  13.115  22.260  0.00  0.00     0.000 A 
ATOM     15  C   UNL d   1     -46.047  12.956  21.700  0.00  0.00     0.002 A 
ATOM     16  C   UNL d   1     -46.844  13.058  21.886  0.00  0.00     0.018 A 
ENDBRANCH   3  11
BRANCH   4  17
ATOM     17  C   UNL d   1     -49.699  14.508  23.003  0.00  0.00     0.002 A 
ATOM     18  C   UNL d   1     -50.256  14.500  22.392  0.00  0.00     0.000 A 
ATOM     19  C   UNL d   1     -50.924  14.983  22.435  0.00  0.00     0.000 A 
ATOM     20  C   UNL d   1     -51.034  15.473  23.087  0.00  0.00     0.000 A 
ATOM     21  C   UNL d   1     -50.476  15.481  23.698  0.00  0.00     0.000 A 
ATOM     22  C   UNL d   1     -49.812  15.001  23.655  0.00  0.00     0.000 A 
ENDBRANCH   4  17
TORSDOF 2
ENDMDL
MODEL 2
REMARK VINA RESULT:      -6.6      8.581     10.658
REMARK  2 active torsions:
REMARK  status: ('A' for Active; 'I' for Inactive)
REMARK    1  A    between atoms: C_10  and  N_3 
REMARK    2  A    between atoms: C_11  and  C_4 
ROOT
ATOM      1  C   UNL d   1     -40.555  15.335  18.259  0.00  0.00     0.154 A 
ATOM      2  C   UNL d   1     -40.149  15.078  17.596  0.00  0.00     0.094 A 
ATOM      3  N   UNL d   1     -40.132  15.096  18.928  0.00  0.00    -0.290 N 
ATOM      4  C   UNL d   1     -39.470  14.679  17.849  0.00  0.00     0.025 A 
ATOM      5  C   UNL d   1     -39.464  14.691  18.668  0.00  0.00     0.082 A 
ATOM      6  N   UNL d   1     -41.261  15.754  18.179  0.00  0.00    -0.206 NA
ATOM      7  C   UNL d   1     -40.441  15.237  16.840  0.00  0.00     0.284 A 
ATOM      8  N   UNL d   1     -41.147  15.657  16.760  0.00  0.00    -0.186 NA
ATOM      9  C   UNL d   1     -41.554  15.913  17.423  0.00  0.00     0.203 A 
ATOM     10  O   UNL d   1     -40.034  14.981  16.177  0.00  0.00    -0.265 OA
ENDROOT
BRANCH   3  11
ATOM     11  C   UNL d   1     -40.306  15.216  19.715  0.00  0.00     0.065 A 
ATOM     12  C   UNL d   1     -39.910  15.799  20.141  0.00  0.00     0.018 A 
ATOM     13  C   UNL d   1     -40.085  15.922  20.939  0.00  0.00     0.002 A 
ATOM     14  C   UNL d   1     -40.665  15.455  21.317  0.00  0.00     0.000 A 
ATOM     15  C   UNL d   1     -41.057  14.873  20.881  0.00  0.00     0.002 A 
ATOM     16  C   UNL d   1     -40.879  14.754  20.086  0.00  0.00     0.018 A 
ENDBRANCH   3  11
BRANCH   4  17
ATOM     17  C   UNL d   1     -38.974  14.370  17.266  0.00  0.00     0.002 A 
ATOM     18  C   UNL d   1     -39.017  13.570  17.065  0.00  0.00     0.000 A 
ATOM     19  C   UNL d   1     -38.521  13.261  16.482  0.00  0.00     0.000 A 
ATOM     20  C   UNL d   1     -37.982  13.753  16.100  0.00  0.00     0.000 A 
ATOM     21  C   UNL d   1     -37.940  14.554  16.302  0.00  0.00     0.000 A 
ATOM     22  C   UNL d   1     -38.433  14.861  16.881  0.00  0.00     0.000 A 
ENDBRANCH   4  17
TORSDOF 2
ENDMDL
MODEL 3
REMARK VINA RESULT:      -6.6      8.829     10.360
REMARK  2 active torsions:
REMARK  status: ('A' for Active; 'I' for Inactive)
REMARK    1  A    between atoms: C_10  and  N_3 
REMARK    2  A    between atoms: C_11  and  C_4 
ROOT
ATOM      1  C   UNL d   1     -40.081  15.104  17.597  0.00  0.00     0.154 A 
ATOM      2  C   UNL d   1     -40.332  15.289  18.355  0.00  0.00     0.094 A 
ATOM      3  N   UNL d   1     -39.363  14.697  17.656  0.00  0.00    -0.290 N 
ATOM      4  C   UNL d   1     -39.772  14.997  18.889  0.00  0.00     0.025 A 
ATOM      5  C   UNL d   1     -39.178  14.634  18.456  0.00  0.00     0.082 A 
ATOM      6  N   UNL d   1     -40.532  15.326  16.943  0.00  0.00    -0.206 NA
ATOM      7  C   UNL d   1     -41.038  15.699  18.472  0.00  0.00     0.284 A 
ATOM      8  N   UNL d   1     -41.490  15.922  17.817  0.00  0.00    -0.186 NA
ATOM      9  C   UNL d   1     -41.239  15.737  17.060  0.00  0.00     0.203 A 
ATOM     10  O   UNL d   1     -41.289  15.883  19.229  0.00  0.00    -0.265 OA
ENDROOT
BRANCH   3  11
ATOM     11  C   UNL d   1     -38.894  14.396  17.062  0.00  0.00     0.065 A 
ATOM     12  C   UNL d   1     -38.429  14.902  16.607  0.00  0.00     0.018 A 
ATOM     13  C   UNL d   1     -37.953  14.598  16.004  0.00  0.00     0.002 A 
ATOM     14  C   UNL d   1     -37.940  13.777  15.854  0.00  0.00     0.000 A 
ATOM     15  C   UNL d   1     -38.410  13.278  16.315  0.00  0.00     0.002 A 
ATOM     16  C   UNL d   1     -38.884  13.585  16.915  0.00  0.00     0.018 A 
ENDBRANCH   3  11
BRANCH   4  17
ATOM     17  C   UNL d   1     -39.915  15.123  19.692  0.00  0.00     0.002 A 
ATOM     18  C   UNL d   1     -39.616  15.797  20.066  0.00  0.00     0.000 A 
ATOM     19  C   UNL d   1     -39.759  15.922  20.870  0.00  0.00     0.000 A 
ATOM     20  C   UNL d   1     -40.200  15.374  21.297  0.00  0.00     0.000 A 
ATOM     21  C   UNL d   1     -40.499  14.700  20.922  0.00  0.00     0.000 A 
ATOM     22  C   UNL d   1     -40.356  14.575  20.124  0.00  0.00     0.000 A 
ENDBRANCH   4  17
TORSDOF 2
ENDMDL
MODEL 4
REMARK VINA RESULT:      -6.0      9.644     10.463
REMARK  2 active torsions:
REMARK  status: ('A' for Active; 'I' for Inactive)
REMARK    1  A    between atoms: C_10  and  N_3 
REMARK    2  A    between atoms: C_11  and  C_4 
ROOT
ATOM      1  C   UNL d   1     -38.907  13.922  19.151  0.00  0.00     0.154 A 
ATOM      2  C   UNL d   1     -39.192  14.128  18.411  0.00  0.00     0.094 A 
ATOM      3  N   UNL d   1     -39.214  14.456  19.703  0.00  0.00    -0.290 N 
ATOM      4  C   UNL d   1     -39.678  14.791  18.499  0.00  0.00     0.025 A 
ATOM      5  C   UNL d   1     -39.689  14.990  19.294  0.00  0.00     0.082 A 
ATOM      6  N   UNL d   1     -38.402  13.275  19.238  0.00  0.00    -0.206 NA
ATOM      7  C   UNL d   1     -38.978  13.691  17.745  0.00  0.00     0.284 A 
ATOM      8  N   UNL d   1     -38.473  13.043  17.831  0.00  0.00    -0.186 NA
ATOM      9  C   UNL d   1     -38.188  12.837  18.571  0.00  0.00     0.203 A 
ATOM     10  O   UNL d   1     -39.263  13.897  17.005  0.00  0.00    -0.265 OA
ENDROOT
BRANCH   3  11
ATOM     11  C   UNL d   1     -39.096  14.486  20.508  0.00  0.00     0.065 A 
ATOM     12  C   UNL d   1     -38.471  14.926  20.818  0.00  0.00     0.018 A 
ATOM     13  C   UNL d   1     -38.350  14.957  21.634  0.00  0.00     0.002 A 
ATOM     14  C   UNL d   1     -38.860  14.543  22.149  0.00  0.00     0.000 A 
ATOM     15  C   UNL d   1     -39.484  14.105  21.830  0.00  0.00     0.002 A 
ATOM     16  C   UNL d   1     -39.600  14.077  21.015  0.00  0.00     0.018 A 
ENDBRANCH   3  11
BRANCH   4  17
ATOM     17  C   UNL d   1     -40.028  15.096  17.816  0.00  0.00     0.002 A 
ATOM     18  C   UNL d   1     -39.607  15.615  17.330  0.00  0.00     0.000 A 
ATOM     19  C   UNL d   1     -39.957  15.920  16.648  0.00  0.00     0.000 A 
ATOM     20  C   UNL d   1     -40.727  15.706  16.452  0.00  0.00     0.000 A 
ATOM     21  C   UNL d   1     -41.148  15.186  16.939  0.00  0.00     0.000 A 
ATOM     22  C   UNL d   1     -40.801  14.883  17.617  0.00  0.00     0.000 A 
ENDBRANCH   4  17
TORSDOF 2
ENDMDL
MODEL 5
REMARK VINA RESULT:      -6.0      8.355     10.050
REMARK  2 active torsions:
REMARK  status: ('A' for Active; 'I' for Inactive)
REMARK    1  A    between atoms: C_10  and  N_3 
REMARK    2  A    between atoms: C_11  and  C_4 
ROOT
ATOM      1  C   UNL d   1     -40.254  15.258  19.737  0.00  0.00     0.154 A 
ATOM      2  C   UNL d   1     -39.974  15.075  20.484  0.00  0.00     0.094 A 
ATOM      3  N   UNL d   1     -39.726  14.949  19.181  0.00  0.00    -0.290 N 
ATOM      4  C   UNL d   1     -39.269  14.651  20.397  0.00  0.00     0.025 A 
ATOM      5  C   UNL d   1     -39.120  14.576  19.595  0.00  0.00     0.082 A 
ATOM      6  N   UNL d   1     -40.956  15.683  19.647  0.00  0.00    -0.206 NA
ATOM      7  C   UNL d   1     -40.389  15.313  21.155  0.00  0.00     0.284 A 
ATOM      8  N   UNL d   1     -41.092  15.738  21.067  0.00  0.00    -0.186 NA
ATOM      9  C   UNL d   1     -41.372  15.922  20.319  0.00  0.00     0.203 A 
ATOM     10  O   UNL d   1     -40.109  15.130  21.903  0.00  0.00    -0.265 OA
ENDROOT
BRANCH   3  11
ATOM     11  C   UNL d   1     -39.758  14.984  18.367  0.00  0.00     0.065 A 
ATOM     12  C   UNL d   1     -39.383  15.597  17.965  0.00  0.00     0.018 A 
ATOM     13  C   UNL d   1     -39.415  15.634  17.140  0.00  0.00     0.002 A 
ATOM     14  C   UNL d   1     -39.828  15.049  16.711  0.00  0.00     0.000 A 
ATOM     15  C   UNL d   1     -40.201  14.437  17.123  0.00  0.00     0.002 A 
ATOM     16  C   UNL d   1     -40.167  14.405  17.946  0.00  0.00     0.018 A 
ENDBRANCH   3  11
BRANCH   4  17
ATOM     17  C   UNL d   1     -38.887  14.407  21.087  0.00  0.00     0.002 A 
ATOM     18  C   UNL d   1     -38.326  14.898  21.446  0.00  0.00     0.000 A 
ATOM     19  C   UNL d   1     -37.944  14.654  22.136  0.00  0.00     0.000 A 
ATOM     20  C   UNL d   1     -38.122  13.922  22.466  0.00  0.00     0.000 A 
ATOM     21  C   UNL d   1     -38.683  13.432  22.106  0.00  0.00     0.000 A 
ATOM     22  C   UNL d   1     -39.063  13.673  21.420  0.00  0.00     0.000 A 
ENDBRANCH   4  17
TORSDOF 2
ENDMDL
MODEL 6
REMARK VINA RESULT:      -5.8      9.587     10.500
REMARK  2 active torsions:
REMARK  status: ('A' for Active; 'I' for Inactive)
REMARK    1  A    between atoms: C_10  and  N_3 
REMARK    2  A    between atoms: C_11  and  C_4 
ROOT
ATOM      1  C   UNL d   1     -39.156  14.243  18.599  0.00  0.00     0.154 A 
ATOM      2  C   UNL d   1     -38.948  14.183  19.388  0.00  0.00     0.094 A 
ATOM      3  N   UNL d   1     -39.692  14.868  18.521  0.00  0.00    -0.290 N 
ATOM      4  C   UNL d   1     -39.354  14.770  19.807  0.00  0.00     0.025 A 
ATOM      5  C   UNL d   1     -39.810  15.189  19.270  0.00  0.00     0.082 A 
ATOM      6  N   UNL d   1     -38.836  13.725  18.042  0.00  0.00    -0.206 NA
ATOM      7  C   UNL d   1     -38.416  13.603  19.636  0.00  0.00     0.284 A 
ATOM      8  N   UNL d   1     -38.095  13.084  19.080  0.00  0.00    -0.186 NA
ATOM      9  C   UNL d   1     -38.303  13.144  18.290  0.00  0.00     0.203 A 
ATOM     10  O   UNL d   1     -38.208  13.542  20.426  0.00  0.00    -0.265 OA
ENDROOT
BRANCH   3  11
ATOM     11  C   UNL d   1     -40.060  15.149  17.850  0.00  0.00     0.065 A 
ATOM     12  C   UNL d   1     -39.648  15.636  17.327  0.00  0.00     0.018 A 
ATOM     13  C   UNL d   1     -40.020  15.921  16.647  0.00  0.00     0.002 A 
ATOM     14  C   UNL d   1     -40.813  15.717  16.486  0.00  0.00     0.000 A 
ATOM     15  C   UNL d   1     -41.217  15.228  17.016  0.00  0.00     0.002 A 
ATOM     16  C   UNL d   1     -40.843  14.946  17.694  0.00  0.00     0.018 A 
ENDBRANCH   3  11
BRANCH   4  17
ATOM     17  C   UNL d   1     -39.225  14.810  20.621  0.00  0.00     0.002 A 
ATOM     18  C   UNL d   1     -38.635  15.303  20.924  0.00  0.00     0.000 A 
ATOM     19  C   UNL d   1     -38.506  15.344  21.738  0.00  0.00     0.000 A 
ATOM     20  C   UNL d   1     -38.968  14.892  22.248  0.00  0.00     0.000 A 
ATOM     21  C   UNL d   1     -39.559  14.400  21.945  0.00  0.00     0.000 A 
ATOM     22  C   UNL d   1     -39.687  14.359  21.136  0.00  0.00     0.000 A 
ENDBRANCH   4  17
TORSDOF 2
ENDMDL
MODEL 7
REMARK VINA RESULT:      -5.4      1.239      1.451
REMARK  2 active torsions:
REMARK  status: ('A' for Active; 'I' for Inactive)
REMARK    1  A    between atoms: C_10  and  N_3 
REMARK    2  A    between atoms: C_11  and  C_4 
ROOT
ATOM      1  C   UNL d   1     -48.471  13.024  22.214  0.00  0.00     0.154 A 
ATOM      2  C   UNL d   1     -49.094  13.550  22.288  0.00  0.00     0.094 A 
ATOM      3  N   UNL d   1     -47.965  13.132  22.859  0.00  0.00    -0.290 N 
ATOM      4  C   UNL d   1     -48.979  13.989  22.980  0.00  0.00     0.025 A 
ATOM      5  C   UNL d   1     -48.284  13.729  23.328  0.00  0.00     0.082 A 
ATOM      6  N   UNL d   1     -48.435  12.508  21.570  0.00  0.00    -0.206 NA
ATOM      7  C   UNL d   1     -49.693  13.571  21.721  0.00  0.00     0.284 A 
ATOM      8  N   UNL d   1     -49.657  13.055  21.077  0.00  0.00    -0.186 NA
ATOM      9  C   UNL d   1     -49.034  12.529  21.002  0.00  0.00     0.203 A 
ATOM     10  O   UNL d   1     -50.316  14.097  21.795  0.00  0.00    -0.265 OA
ENDROOT
BRANCH   3  11
ATOM     11  C   UNL d   1     -47.271  12.744  23.037  0.00  0.00     0.065 A 
ATOM     12  C   UNL d   1     -47.287  12.057  23.493  0.00  0.00     0.018 A 
ATOM     13  C   UNL d   1     -46.584  11.663  23.674  0.00  0.00     0.002 A 
ATOM     14  C   UNL d   1     -45.854  11.959  23.396  0.00  0.00     0.000 A 
ATOM     15  C   UNL d   1     -45.848  12.647  22.940  0.00  0.00     0.002 A 
ATOM     16  C   UNL d   1     -46.552  13.037  22.761  0.00  0.00     0.018 A 
ENDBRANCH   3  11
BRANCH   4  17
ATOM     17  C   UNL d   1     -49.547  14.558  23.165  0.00  0.00     0.002 A 
ATOM     18  C   UNL d   1     -50.262  14.332  23.512  0.00  0.00     0.000 A 
ATOM     19  C   UNL d   1     -50.830  14.902  23.698  0.00  0.00     0.000 A 
ATOM     20  C   UNL d   1     -50.683  15.695  23.536  0.00  0.00     0.000 A 
ATOM     21  C   UNL d   1     -49.967  15.920  23.189  0.00  0.00     0.000 A 
ATOM     22  C   UNL d   1     -49.402  15.355  23.005  0.00  0.00     0.000 A 
ENDBRANCH   4  17
TORSDOF 2
ENDMDL
