MODEL 1
REMARK VINA RESULT:      -3.1      0.000      0.000
REMARK  7 active torsions:
REMARK  status: ('A' for Active; 'I' for Inactive)
REMARK       I    between atoms: N_3  and  C_1 
REMARK    1  A    between atoms: C_10  and  C_1 
REMARK    2  A    between atoms: C_2  and  C_5 
REMARK    3  A    between atoms: O_15  and  C_2 
REMARK    4  A    between atoms: C_11  and  N_3 
REMARK    5  A    between atoms: C_4  and  C_11 
REMARK       I    between atoms: N_6  and  C_4 
REMARK    6  A    between atoms: C_14  and  N_6 
REMARK    7  A    between atoms: C_20  and  O_15 
ROOT
ATOM      1  C   UNL d   1      32.837  19.146 -22.750  0.00  0.00     0.299 C 
ATOM      2  N   UNL d   1      33.239  19.411 -22.083  0.00  0.00    -0.207 NA
ATOM      3  O   UNL d   1      32.332  19.660 -23.151  0.00  0.00    -0.263 OA
ENDROOT
BRANCH   1   4
ATOM      4  C   UNL d   1      32.934  18.379 -23.017  0.00  0.00     0.165 C 
BRANCH   4   5
ATOM      5  N   UNL d   1      32.281  17.919 -23.217  0.00  0.00    -0.201 NA
ATOM      6  C   UNL d   1      32.388  17.140 -23.462  0.00  0.00     0.279 C 
ATOM      7  O   UNL d   1      33.203  16.846 -23.495  0.00  0.00    -0.265 OA
BRANCH   6   8
ATOM      8  C   UNL d   1      31.733  16.676 -23.663  0.00  0.00     0.058 A 
ATOM      9  C   UNL d   1      31.221  16.923 -24.261  0.00  0.00     0.005 A 
ATOM     10  C   UNL d   1      30.572  16.462 -24.459  0.00  0.00     0.000 A 
ATOM     11  C   UNL d   1      30.431  15.760 -24.066  0.00  0.00     0.000 A 
ATOM     12  C   UNL d   1      30.942  15.513 -23.468  0.00  0.00     0.000 A 
ATOM     13  C   UNL d   1      31.595  15.968 -23.263  0.00  0.00     0.005 A 
ENDBRANCH   6   8
ENDBRANCH   4   5
ENDBRANCH   1   4
BRANCH   2  14
ATOM     14  C   UNL d   1      33.139  20.188 -21.815  0.00  0.00     0.085 A 
ATOM     15  C   UNL d   1      33.241  20.814 -22.336  0.00  0.00     0.019 A 
ATOM     16  C   UNL d   1      33.143  21.582 -22.074  0.00  0.00     0.007 A 
ATOM     17  C   UNL d   1      32.940  21.730 -21.279  0.00  0.00     0.064 A 
ATOM     18  C   UNL d   1      32.840  21.096 -20.761  0.00  0.00     0.007 A 
ATOM     19  C   UNL d   1      32.939  20.323 -21.026  0.00  0.00     0.019 A 
BRANCH  17  20
ATOM     20  C   UNL d   1      32.842  22.507 -21.014  0.00  0.00     0.300 C 
ATOM     21  O   UNL d   1      32.984  23.142 -21.521  0.00  0.00    -0.259 OA
BRANCH  20  22
ATOM     22  O   UNL d   1      32.599  22.644 -20.237  0.00  0.00    -0.271 OA
BRANCH  22  23
ATOM     23  C   UNL d   1      32.619  23.409 -19.924  0.00  0.00     0.126 C 
ATOM     24  C   UNL d   1      32.494  23.523 -19.116  0.00  0.00     0.029 C 
ENDBRANCH  22  23
ENDBRANCH  20  22
ENDBRANCH  17  20
ENDBRANCH   2  14
TORSDOF 7
ENDMDL
MODEL 2
REMARK VINA RESULT:      -2.8      1.164      5.924
REMARK  7 active torsions:
REMARK  status: ('A' for Active; 'I' for Inactive)
REMARK       I    between atoms: N_3  and  C_1 
REMARK    1  A    between atoms: C_10  and  C_1 
REMARK    2  A    between atoms: C_2  and  C_5 
REMARK    3  A    between atoms: O_15  and  C_2 
REMARK    4  A    between atoms: C_11  and  N_3 
REMARK    5  A    between atoms: C_4  and  C_11 
REMARK       I    between atoms: N_6  and  C_4 
REMARK    6  A    between atoms: C_14  and  N_6 
REMARK    7  A    between atoms: C_20  and  O_15 
ROOT
ATOM      1  C   UNL d   1      32.982  19.878 -22.766  0.00  0.00     0.299 C 
ATOM      2  N   UNL d   1      32.852  19.545 -23.507  0.00  0.00    -0.207 NA
ATOM      3  O   UNL d   1      32.853  19.425 -22.088  0.00  0.00    -0.263 OA
ENDROOT
BRANCH   1   4
ATOM      4  C   UNL d   1      33.238  20.651 -22.695  0.00  0.00     0.165 C 
BRANCH   4   5
ATOM      5  N   UNL d   1      32.957  21.132 -22.088  0.00  0.00    -0.201 NA
ATOM      6  C   UNL d   1      32.932  21.949 -22.191  0.00  0.00     0.279 C 
ATOM      7  O   UNL d   1      33.210  22.259 -22.952  0.00  0.00    -0.265 OA
BRANCH   6   8
ATOM      8  C   UNL d   1      32.650  22.434 -21.583  0.00  0.00     0.058 A 
ATOM      9  C   UNL d   1      32.795  22.233 -20.796  0.00  0.00     0.005 A 
ATOM     10  C   UNL d   1      32.514  22.715 -20.194  0.00  0.00     0.000 A 
ATOM     11  C   UNL d   1      32.093  23.392 -20.372  0.00  0.00     0.000 A 
ATOM     12  C   UNL d   1      31.948  23.593 -21.159  0.00  0.00     0.000 A 
ATOM     13  C   UNL d   1      32.225  23.116 -21.768  0.00  0.00     0.005 A 
ENDBRANCH   6   8
ENDBRANCH   4   5
ENDBRANCH   1   4
BRANCH   2  14
ATOM     14  C   UNL d   1      32.593  18.761 -23.575  0.00  0.00     0.085 A 
ATOM     15  C   UNL d   1      32.965  18.172 -23.142  0.00  0.00     0.019 A 
ATOM     16  C   UNL d   1      32.711  17.398 -23.208  0.00  0.00     0.007 A 
ATOM     17  C   UNL d   1      32.076  17.207 -23.714  0.00  0.00     0.064 A 
ATOM     18  C   UNL d   1      31.707  17.805 -24.146  0.00  0.00     0.007 A 
ATOM     19  C   UNL d   1      31.964  18.584 -24.079  0.00  0.00     0.019 A 
BRANCH  17  20
ATOM     20  C   UNL d   1      31.820  16.424 -23.780  0.00  0.00     0.300 C 
ATOM     21  O   UNL d   1      32.367  15.811 -23.862  0.00  0.00    -0.259 OA
BRANCH  20  22
ATOM     22  O   UNL d   1      31.012  16.257 -23.763  0.00  0.00    -0.271 OA
BRANCH  22  23
ATOM     23  C   UNL d   1      30.742  15.533 -23.471  0.00  0.00     0.126 C 
ATOM     24  C   UNL d   1      29.953  15.453 -23.242  0.00  0.00     0.029 C 
ENDBRANCH  22  23
ENDBRANCH  20  22
ENDBRANCH  17  20
ENDBRANCH   2  14
TORSDOF 7
ENDMDL
MODEL 3
REMARK VINA RESULT:      -1.8      1.341      5.996
REMARK  7 active torsions:
REMARK  status: ('A' for Active; 'I' for Inactive)
REMARK       I    between atoms: N_3  and  C_1 
REMARK    1  A    between atoms: C_10  and  C_1 
REMARK    2  A    between atoms: C_2  and  C_5 
REMARK    3  A    between atoms: O_15  and  C_2 
REMARK    4  A    between atoms: C_11  and  N_3 
REMARK    5  A    between atoms: C_4  and  C_11 
REMARK       I    between atoms: N_6  and  C_4 
REMARK    6  A    between atoms: C_14  and  N_6 
REMARK    7  A    between atoms: C_20  and  O_15 
ROOT
ATOM      1  C   UNL d   1      32.657  18.958 -23.172  0.00  0.00     0.299 C 
ATOM      2  N   UNL d   1      32.366  18.834 -23.931  0.00  0.00    -0.207 NA
ATOM      3  O   UNL d   1      32.525  18.390 -22.588  0.00  0.00    -0.263 OA
ENDROOT
BRANCH   1   4
ATOM      4  C   UNL d   1      33.074  19.638 -22.992  0.00  0.00     0.165 C 
BRANCH   4   5
ATOM      5  N   UNL d   1      32.933  20.041 -22.288  0.00  0.00    -0.201 NA
ATOM      6  C   UNL d   1      33.010  20.862 -22.265  0.00  0.00     0.279 C 
ATOM      7  O   UNL d   1      33.240  21.257 -23.001  0.00  0.00    -0.265 OA
BRANCH   6   8
ATOM      8  C   UNL d   1      32.868  21.270 -21.559  0.00  0.00     0.058 A 
ATOM      9  C   UNL d   1      32.466  21.990 -21.573  0.00  0.00     0.005 A 
ATOM     10  C   UNL d   1      32.327  22.393 -20.873  0.00  0.00     0.000 A 
ATOM     11  C   UNL d   1      32.585  22.084 -20.162  0.00  0.00     0.000 A 
ATOM     12  C   UNL d   1      32.987  21.364 -20.147  0.00  0.00     0.000 A 
ATOM     13  C   UNL d   1      33.131  20.953 -20.844  0.00  0.00     0.005 A 
ENDBRANCH   6   8
ENDBRANCH   4   5
ENDBRANCH   1   4
BRANCH   2  14
ATOM     14  C   UNL d   1      31.944  18.144 -24.111  0.00  0.00     0.085 A 
ATOM     15  C   UNL d   1      31.664  17.670 -23.503  0.00  0.00     0.019 A 
ATOM     16  C   UNL d   1      31.247  16.989 -23.678  0.00  0.00     0.007 A 
ATOM     17  C   UNL d   1      31.106  16.776 -24.472  0.00  0.00     0.064 A 
ATOM     18  C   UNL d   1      31.390  17.259 -25.077  0.00  0.00     0.007 A 
ATOM     19  C   UNL d   1      31.810  17.944 -24.900  0.00  0.00     0.019 A 
BRANCH  17  20
ATOM     20  C   UNL d   1      30.684  16.088 -24.648  0.00  0.00     0.300 C 
ATOM     21  O   UNL d   1      31.058  15.453 -25.019  0.00  0.00    -0.259 OA
BRANCH  20  22
ATOM     22  O   UNL d   1      29.884  16.039 -24.450  0.00  0.00    -0.271 OA
BRANCH  22  23
ATOM     23  C   UNL d   1      29.407  15.454 -24.788  0.00  0.00     0.126 C 
ATOM     24  C   UNL d   1      28.586  15.539 -24.773  0.00  0.00     0.029 C 
ENDBRANCH  22  23
ENDBRANCH  20  22
ENDBRANCH  17  20
ENDBRANCH   2  14
TORSDOF 7
ENDMDL
MODEL 4
REMARK VINA RESULT:      -0.5      1.666      2.615
REMARK  7 active torsions:
REMARK  status: ('A' for Active; 'I' for Inactive)
REMARK       I    between atoms: N_3  and  C_1 
REMARK    1  A    between atoms: C_10  and  C_1 
REMARK    2  A    between atoms: C_2  and  C_5 
REMARK    3  A    between atoms: O_15  and  C_2 
REMARK    4  A    between atoms: C_11  and  N_3 
REMARK    5  A    between atoms: C_4  and  C_11 
REMARK       I    between atoms: N_6  and  C_4 
REMARK    6  A    between atoms: C_14  and  N_6 
REMARK    7  A    between atoms: C_20  and  O_15 
ROOT
ATOM      1  C   UNL d   1      32.748  21.318 -21.948  0.00  0.00     0.299 C 
ATOM      2  N   UNL d   1      32.360  21.134 -21.246  0.00  0.00    -0.207 NA
ATOM      3  O   UNL d   1      33.240  21.979 -21.979  0.00  0.00    -0.263 OA
ENDROOT
BRANCH   1   4
ATOM      4  C   UNL d   1      32.651  20.851 -22.612  0.00  0.00     0.165 C 
BRANCH   4   5
ATOM      5  N   UNL d   1      32.785  20.040 -22.578  0.00  0.00    -0.201 NA
ATOM      6  C   UNL d   1      32.765  19.592 -23.269  0.00  0.00     0.279 C 
ATOM      7  O   UNL d   1      32.599  20.014 -24.008  0.00  0.00    -0.265 OA
BRANCH   6   8
ATOM      8  C   UNL d   1      32.900  18.776 -23.237  0.00  0.00     0.058 A 
ATOM      9  C   UNL d   1      33.084  18.417 -22.517  0.00  0.00     0.005 A 
ATOM     10  C   UNL d   1      33.217  17.608 -22.487  0.00  0.00     0.000 A 
ATOM     11  C   UNL d   1      33.168  17.157 -23.167  0.00  0.00     0.000 A 
ATOM     12  C   UNL d   1      32.984  17.516 -23.887  0.00  0.00     0.000 A 
ATOM     13  C   UNL d   1      32.849  18.326 -23.927  0.00  0.00     0.005 A 
ENDBRANCH   6   8
ENDBRANCH   4   5
ENDBRANCH   1   4
BRANCH   2  14
ATOM     14  C   UNL d   1      32.461  21.609 -20.575  0.00  0.00     0.085 A 
ATOM     15  C   UNL d   1      33.124  21.508 -20.103  0.00  0.00     0.019 A 
ATOM     16  C   UNL d   1      33.226  21.975 -19.440  0.00  0.00     0.007 A 
ATOM     17  C   UNL d   1      32.657  22.552 -19.243  0.00  0.00     0.064 A 
ATOM     18  C   UNL d   1      31.993  22.647 -19.722  0.00  0.00     0.007 A 
ATOM     19  C   UNL d   1      31.891  22.177 -20.389  0.00  0.00     0.019 A 
BRANCH  17  20
ATOM     20  C   UNL d   1      32.760  23.024 -18.572  0.00  0.00     0.300 C 
ATOM     21  O   UNL d   1      33.240  23.694 -18.603  0.00  0.00    -0.259 OA
BRANCH  20  22
ATOM     22  O   UNL d   1      32.380  22.820 -17.869  0.00  0.00    -0.271 OA
BRANCH  22  23
ATOM     23  C   UNL d   1      32.139  23.408 -17.340  0.00  0.00     0.126 C 
ATOM     24  C   UNL d   1      32.161  23.262 -16.528  0.00  0.00     0.029 C 
ENDBRANCH  22  23
ENDBRANCH  20  22
ENDBRANCH  17  20
ENDBRANCH   2  14
TORSDOF 7
ENDMDL
