MODEL 1
REMARK VINA RESULT:      -5.4      0.000      0.000
REMARK  8 active torsions:
REMARK  status: ('A' for Active; 'I' for Inactive)
REMARK    1  A    between atoms: C_2  and  C_1 
REMARK    2  A    between atoms: C_12  and  C_5 
REMARK    3  A    between atoms: C_14  and  C_6 
REMARK    4  A    between atoms: O_20  and  C_13 
REMARK    5  A    between atoms: O_21  and  C_14 
REMARK    6  A    between atoms: O_23  and  C_15 
REMARK    7  A    between atoms: O_22  and  C_16 
REMARK    8  A    between atoms: C_26  and  O_21 
ROOT
ATOM      1  C   UNL d   1     -46.102  13.426  22.674  0.00  0.00     0.206 A 
ATOM      2  O   UNL d   1     -46.912  13.255  22.433  0.00  0.00    -0.268 OA
ATOM      3  N   UNL d   1     -46.082  14.236  22.975  0.00  0.00    -0.121 NA
ATOM      4  C   UNL d   1     -47.395  13.957  22.582  0.00  0.00     0.205 A 
ATOM      5  N   UNL d   1     -46.876  14.572  22.922  0.00  0.00    -0.121 NA
ENDROOT
BRANCH   1   6
ATOM      6  C   UNL d   1     -45.472  12.906  22.624  0.00  0.00     0.061 A 
ATOM      7  C   UNL d   1     -44.868  13.059  22.099  0.00  0.00     0.012 A 
ATOM      8  C   UNL d   1     -44.239  12.554  22.039  0.00  0.00     0.081 A 
ATOM      9  C   UNL d   1     -44.208  11.883  22.508  0.00  0.00     0.086 A 
ATOM     10  N   UNL d   1     -44.806  11.728  23.031  0.00  0.00    -0.245 NA
ATOM     11  C   UNL d   1     -43.578  11.377  22.448  0.00  0.00     0.021 C 
ATOM     12  C   UNL d   1     -45.441  12.235  23.093  0.00  0.00     0.085 A 
ATOM     13  C   UNL d   1     -46.039  12.075  23.620  0.00  0.00     0.021 C 
BRANCH   8  14
ATOM     14  C   UNL d   1     -43.645  12.710  21.519  0.00  0.00     0.302 C 
ATOM     15  O   UNL d   1     -43.647  12.363  20.782  0.00  0.00    -0.259 OA
BRANCH  14  16
ATOM     16  O   UNL d   1     -43.040  13.212  21.720  0.00  0.00    -0.271 OA
BRANCH  16  17
ATOM     17  C   UNL d   1     -42.451  13.369  21.186  0.00  0.00     0.126 C 
ATOM     18  C   UNL d   1     -41.991  14.049  21.270  0.00  0.00     0.029 C 
ENDBRANCH  16  17
ENDBRANCH  14  16
ENDBRANCH   8  14
ENDBRANCH   1   6
BRANCH   4  19
ATOM     19  C   UNL d   1     -48.252  14.040  22.422  0.00  0.00     0.047 A 
ATOM     20  C   UNL d   1     -48.669  13.413  22.006  0.00  0.00     0.030 A 
ATOM     21  C   UNL d   1     -49.515  13.491  21.847  0.00  0.00     0.118 A 
ATOM     22  C   UNL d   1     -49.944  14.207  22.109  0.00  0.00     0.138 A 
ATOM     23  C   UNL d   1     -49.515  14.834  22.527  0.00  0.00     0.118 A 
ATOM     24  C   UNL d   1     -48.669  14.751  22.684  0.00  0.00     0.030 A 
BRANCH  21  25
ATOM     25  O   UNL d   1     -50.208  13.103  21.487  0.00  0.00    -0.326 OA
ATOM     26  C   UNL d   1     -50.155  12.285  21.203  0.00  0.00     0.181 C 
ENDBRANCH  21  25
BRANCH  22  27
ATOM     27  O   UNL d   1     -50.789  14.286  21.949  0.00  0.00    -0.324 OA
ATOM     28  C   UNL d   1     -51.058  14.745  21.266  0.00  0.00     0.182 C 
ENDBRANCH  22  27
BRANCH  23  29
ATOM     29  O   UNL d   1     -49.938  15.545  22.787  0.00  0.00    -0.326 OA
ATOM     30  C   UNL d   1     -49.822  15.850  23.588  0.00  0.00     0.181 C 
ENDBRANCH  23  29
ENDBRANCH   4  19
TORSDOF 8
ENDMDL
MODEL 2
REMARK VINA RESULT:      -4.5      1.896      6.620
REMARK  8 active torsions:
REMARK  status: ('A' for Active; 'I' for Inactive)
REMARK    1  A    between atoms: C_2  and  C_1 
REMARK    2  A    between atoms: C_12  and  C_5 
REMARK    3  A    between atoms: C_14  and  C_6 
REMARK    4  A    between atoms: O_20  and  C_13 
REMARK    5  A    between atoms: O_21  and  C_14 
REMARK    6  A    between atoms: O_23  and  C_15 
REMARK    7  A    between atoms: O_22  and  C_16 
REMARK    8  A    between atoms: C_26  and  O_21 
ROOT
ATOM      1  C   UNL d   1     -43.635  12.842  21.610  0.00  0.00     0.206 A 
ATOM      2  O   UNL d   1     -42.995  13.373  21.836  0.00  0.00    -0.268 OA
ATOM      3  N   UNL d   1     -43.477  12.568  20.805  0.00  0.00    -0.121 NA
ATOM      4  C   UNL d   1     -42.441  13.431  21.175  0.00  0.00     0.205 A 
ATOM      5  N   UNL d   1     -42.742  12.927  20.528  0.00  0.00    -0.121 NA
ENDROOT
BRANCH   1   6
ATOM      6  C   UNL d   1     -44.273  12.639  22.081  0.00  0.00     0.061 A 
ATOM      7  C   UNL d   1     -44.936  13.112  22.082  0.00  0.00     0.012 A 
ATOM      8  C   UNL d   1     -45.574  12.923  22.542  0.00  0.00     0.081 A 
ATOM      9  C   UNL d   1     -45.555  12.252  23.011  0.00  0.00     0.086 A 
ATOM     10  N   UNL d   1     -44.897  11.780  23.013  0.00  0.00    -0.245 NA
ATOM     11  C   UNL d   1     -46.193  12.063  23.473  0.00  0.00     0.021 C 
ATOM     12  C   UNL d   1     -44.253  11.968  22.550  0.00  0.00     0.085 A 
ATOM     13  C   UNL d   1     -43.596  11.490  22.555  0.00  0.00     0.021 C 
BRANCH   8  14
ATOM     14  C   UNL d   1     -46.226  13.394  22.539  0.00  0.00     0.302 C 
ATOM     15  O   UNL d   1     -46.257  14.052  23.018  0.00  0.00    -0.259 OA
BRANCH  14  16
ATOM     16  O   UNL d   1     -46.859  13.221  22.061  0.00  0.00    -0.271 OA
BRANCH  16  17
ATOM     17  C   UNL d   1     -47.515  13.698  22.071  0.00  0.00     0.126 C 
ATOM     18  C   UNL d   1     -48.177  13.495  21.622  0.00  0.00     0.029 C 
ENDBRANCH  16  17
ENDBRANCH  14  16
ENDBRANCH   8  14
ENDBRANCH   1   6
BRANCH   4  19
ATOM     19  C   UNL d   1     -41.707  13.909  21.153  0.00  0.00     0.047 A 
ATOM     20  C   UNL d   1     -41.007  13.630  21.567  0.00  0.00     0.030 A 
ATOM     21  C   UNL d   1     -40.281  14.099  21.549  0.00  0.00     0.118 A 
ATOM     22  C   UNL d   1     -40.261  14.855  21.109  0.00  0.00     0.138 A 
ATOM     23  C   UNL d   1     -40.972  15.128  20.695  0.00  0.00     0.118 A 
ATOM     24  C   UNL d   1     -41.695  14.655  20.717  0.00  0.00     0.030 A 
BRANCH  21  25
ATOM     25  O   UNL d   1     -39.453  14.136  21.821  0.00  0.00    -0.326 OA
ATOM     26  C   UNL d   1     -39.072  13.437  22.165  0.00  0.00     0.181 C 
ENDBRANCH  21  25
BRANCH  22  27
ATOM     27  O   UNL d   1     -39.535  15.324  21.090  0.00  0.00    -0.324 OA
ATOM     28  C   UNL d   1     -39.394  15.922  21.700  0.00  0.00     0.182 C 
ENDBRANCH  22  27
BRANCH  23  29
ATOM     29  O   UNL d   1     -40.955  15.877  20.259  0.00  0.00    -0.326 OA
ATOM     30  C   UNL d   1     -41.285  15.922  19.461  0.00  0.00     0.181 C 
ENDBRANCH  23  29
ENDBRANCH   4  19
TORSDOF 8
ENDMDL
MODEL 3
REMARK VINA RESULT:      -4.3      2.792      5.181
REMARK  8 active torsions:
REMARK  status: ('A' for Active; 'I' for Inactive)
REMARK    1  A    between atoms: C_2  and  C_1 
REMARK    2  A    between atoms: C_12  and  C_5 
REMARK    3  A    between atoms: C_14  and  C_6 
REMARK    4  A    between atoms: O_20  and  C_13 
REMARK    5  A    between atoms: O_21  and  C_14 
REMARK    6  A    between atoms: O_23  and  C_15 
REMARK    7  A    between atoms: O_22  and  C_16 
REMARK    8  A    between atoms: C_26  and  O_21 
ROOT
ATOM      1  C   UNL d   1     -41.959  13.558  21.080  0.00  0.00     0.206 A 
ATOM      2  O   UNL d   1     -42.513  13.474  21.735  0.00  0.00    -0.268 OA
ATOM      3  N   UNL d   1     -42.264  13.094  20.417  0.00  0.00    -0.121 NA
ATOM      4  C   UNL d   1     -43.161  12.960  21.481  0.00  0.00     0.205 A 
ATOM      5  N   UNL d   1     -43.006  12.722  20.656  0.00  0.00    -0.121 NA
ENDROOT
BRANCH   1   6
ATOM      6  C   UNL d   1     -41.270  14.000  21.094  0.00  0.00     0.061 A 
ATOM      7  C   UNL d   1     -40.591  13.672  21.402  0.00  0.00     0.012 A 
ATOM      8  C   UNL d   1     -39.903  14.097  21.422  0.00  0.00     0.081 A 
ATOM      9  C   UNL d   1     -39.887  14.863  21.131  0.00  0.00     0.086 A 
ATOM     10  N   UNL d   1     -40.561  15.191  20.823  0.00  0.00    -0.245 NA
ATOM     11  C   UNL d   1     -39.199  15.289  21.150  0.00  0.00     0.021 C 
ATOM     12  C   UNL d   1     -41.255  14.765  20.802  0.00  0.00     0.085 A 
ATOM     13  C   UNL d   1     -41.928  15.099  20.493  0.00  0.00     0.021 C 
BRANCH   8  14
ATOM     14  C   UNL d   1     -39.235  13.769  21.728  0.00  0.00     0.302 C 
ATOM     15  O   UNL d   1     -38.633  13.535  21.233  0.00  0.00    -0.259 OA
BRANCH  14  16
ATOM     16  O   UNL d   1     -39.153  13.668  22.529  0.00  0.00    -0.271 OA
BRANCH  16  17
ATOM     17  C   UNL d   1     -38.546  13.216  22.819  0.00  0.00     0.126 C 
ATOM     18  C   UNL d   1     -38.447  13.136  23.635  0.00  0.00     0.029 C 
ENDBRANCH  16  17
ENDBRANCH  14  16
ENDBRANCH   8  14
ENDBRANCH   1   6
BRANCH   4  19
ATOM     19  C   UNL d   1     -43.851  12.720  21.964  0.00  0.00     0.047 A 
ATOM     20  C   UNL d   1     -44.546  13.226  21.992  0.00  0.00     0.030 A 
ATOM     21  C   UNL d   1     -45.229  12.992  22.466  0.00  0.00     0.118 A 
ATOM     22  C   UNL d   1     -45.212  12.242  22.917  0.00  0.00     0.138 A 
ATOM     23  C   UNL d   1     -44.507  11.739  22.883  0.00  0.00     0.118 A 
ATOM     24  C   UNL d   1     -43.826  11.978  22.406  0.00  0.00     0.030 A 
BRANCH  21  25
ATOM     25  O   UNL d   1     -46.033  13.223  22.716  0.00  0.00    -0.326 OA
ATOM     26  C   UNL d   1     -46.329  14.023  22.558  0.00  0.00     0.181 C 
ENDBRANCH  21  25
BRANCH  22  27
ATOM     27  O   UNL d   1     -45.895  12.009  23.392  0.00  0.00    -0.324 OA
ATOM     28  C   UNL d   1     -46.427  11.389  23.104  0.00  0.00     0.182 C 
ENDBRANCH  22  27
BRANCH  23  29
ATOM     29  O   UNL d   1     -44.487  10.996  23.328  0.00  0.00    -0.326 OA
ATOM     30  C   UNL d   1     -43.761  10.528  23.359  0.00  0.00     0.181 C 
ENDBRANCH  23  29
ENDBRANCH   4  19
TORSDOF 8
ENDMDL
MODEL 4
REMARK VINA RESULT:      -3.9      2.490      4.572
REMARK  8 active torsions:
REMARK  status: ('A' for Active; 'I' for Inactive)
REMARK    1  A    between atoms: C_2  and  C_1 
REMARK    2  A    between atoms: C_12  and  C_5 
REMARK    3  A    between atoms: C_14  and  C_6 
REMARK    4  A    between atoms: O_20  and  C_13 
REMARK    5  A    between atoms: O_21  and  C_14 
REMARK    6  A    between atoms: O_23  and  C_15 
REMARK    7  A    between atoms: O_22  and  C_16 
REMARK    8  A    between atoms: C_26  and  O_21 
ROOT
ATOM      1  C   UNL d   1     -42.506  13.329  21.073  0.00  0.00     0.206 A 
ATOM      2  O   UNL d   1     -43.107  13.487  21.670  0.00  0.00    -0.268 OA
ATOM      3  N   UNL d   1     -42.788  12.677  20.581  0.00  0.00    -0.121 NA
ATOM      4  C   UNL d   1     -43.762  12.935  21.552  0.00  0.00     0.205 A 
ATOM      5  N   UNL d   1     -43.563  12.427  20.869  0.00  0.00    -0.121 NA
ENDROOT
BRANCH   1   6
ATOM      6  C   UNL d   1     -41.797  13.731  20.995  0.00  0.00     0.061 A 
ATOM      7  C   UNL d   1     -41.687  14.226  20.357  0.00  0.00     0.012 A 
ATOM      8  C   UNL d   1     -40.992  14.630  20.266  0.00  0.00     0.081 A 
ATOM      9  C   UNL d   1     -40.394  14.542  20.819  0.00  0.00     0.086 A 
ATOM     10  N   UNL d   1     -40.500  14.052  21.454  0.00  0.00    -0.245 NA
ATOM     11  C   UNL d   1     -39.698  14.947  20.729  0.00  0.00     0.021 C 
ATOM     12  C   UNL d   1     -41.200  13.644  21.547  0.00  0.00     0.085 A 
ATOM     13  C   UNL d   1     -41.301  13.152  22.187  0.00  0.00     0.021 C 
BRANCH   8  14
ATOM     14  C   UNL d   1     -40.888  15.117  19.634  0.00  0.00     0.302 C 
ATOM     15  O   UNL d   1     -40.972  15.922  19.721  0.00  0.00    -0.259 OA
BRANCH  14  16
ATOM     16  O   UNL d   1     -40.699  14.814  18.905  0.00  0.00    -0.271 OA
BRANCH  16  17
ATOM     17  C   UNL d   1     -40.746  15.285  18.247  0.00  0.00     0.126 C 
ATOM     18  C   UNL d   1     -40.595  14.966  17.501  0.00  0.00     0.029 C 
ENDBRANCH  16  17
ENDBRANCH  14  16
ENDBRANCH   8  14
ENDBRANCH   1   6
BRANCH   4  19
ATOM     19  C   UNL d   1     -44.495  12.890  22.028  0.00  0.00     0.047 A 
ATOM     20  C   UNL d   1     -45.051  13.547  22.015  0.00  0.00     0.030 A 
ATOM     21  C   UNL d   1     -45.775  13.506  22.484  0.00  0.00     0.118 A 
ATOM     22  C   UNL d   1     -45.942  12.798  22.970  0.00  0.00     0.138 A 
ATOM     23  C   UNL d   1     -45.377  12.141  22.976  0.00  0.00     0.118 A 
ATOM     24  C   UNL d   1     -44.653  12.187  22.505  0.00  0.00     0.030 A 
BRANCH  21  25
ATOM     25  O   UNL d   1     -46.504  13.933  22.703  0.00  0.00    -0.326 OA
ATOM     26  C   UNL d   1     -46.561  14.791  22.590  0.00  0.00     0.181 C 
ENDBRANCH  21  25
BRANCH  22  27
ATOM     27  O   UNL d   1     -46.667  12.757  23.439  0.00  0.00    -0.324 OA
ATOM     28  C   UNL d   1     -47.327  12.267  23.168  0.00  0.00     0.182 C 
ENDBRANCH  22  27
BRANCH  23  29
ATOM     29  O   UNL d   1     -45.539  11.438  23.457  0.00  0.00    -0.326 OA
ATOM     30  C   UNL d   1     -44.936  10.826  23.549  0.00  0.00     0.181 C 
ENDBRANCH  23  29
ENDBRANCH   4  19
TORSDOF 8
ENDMDL
MODEL 5
REMARK VINA RESULT:      -3.7      3.031      5.301
REMARK  8 active torsions:
REMARK  status: ('A' for Active; 'I' for Inactive)
REMARK    1  A    between atoms: C_2  and  C_1 
REMARK    2  A    between atoms: C_12  and  C_5 
REMARK    3  A    between atoms: C_14  and  C_6 
REMARK    4  A    between atoms: O_20  and  C_13 
REMARK    5  A    between atoms: O_21  and  C_14 
REMARK    6  A    between atoms: O_23  and  C_15 
REMARK    7  A    between atoms: O_22  and  C_16 
REMARK    8  A    between atoms: C_26  and  O_21 
ROOT
ATOM      1  C   UNL d   1     -41.924  13.763  20.872  0.00  0.00     0.206 A 
ATOM      2  O   UNL d   1     -42.395  13.569  21.567  0.00  0.00    -0.268 OA
ATOM      3  N   UNL d   1     -42.254  13.330  20.200  0.00  0.00    -0.121 NA
ATOM      4  C   UNL d   1     -43.017  13.016  21.330  0.00  0.00     0.205 A 
ATOM      5  N   UNL d   1     -42.929  12.866  20.474  0.00  0.00    -0.121 NA
ENDROOT
BRANCH   1   6
ATOM      6  C   UNL d   1     -41.281  14.269  20.860  0.00  0.00     0.061 A 
ATOM      7  C   UNL d   1     -40.529  13.959  20.816  0.00  0.00     0.012 A 
ATOM      8  C   UNL d   1     -39.883  14.447  20.804  0.00  0.00     0.081 A 
ATOM      9  C   UNL d   1     -39.985  15.259  20.837  0.00  0.00     0.086 A 
ATOM     10  N   UNL d   1     -40.731  15.571  20.881  0.00  0.00    -0.245 NA
ATOM     11  C   UNL d   1     -39.340  15.748  20.825  0.00  0.00     0.021 C 
ATOM     12  C   UNL d   1     -41.383  15.081  20.893  0.00  0.00     0.085 A 
ATOM     13  C   UNL d   1     -42.130  15.399  20.938  0.00  0.00     0.021 C 
BRANCH   8  14
ATOM     14  C   UNL d   1     -39.143  14.136  20.760  0.00  0.00     0.302 C 
ATOM     15  O   UNL d   1     -38.662  14.134  21.416  0.00  0.00    -0.259 OA
BRANCH  14  16
ATOM     16  O   UNL d   1     -38.868  13.821  20.064  0.00  0.00    -0.271 OA
BRANCH  16  17
ATOM     17  C   UNL d   1     -38.213  13.343  20.068  0.00  0.00     0.126 C 
ATOM     18  C   UNL d   1     -37.940  13.013  19.363  0.00  0.00     0.029 C 
ENDBRANCH  16  17
ENDBRANCH  14  16
ENDBRANCH   8  14
ENDBRANCH   1   6
BRANCH   4  19
ATOM     19  C   UNL d   1     -43.627  12.668  21.852  0.00  0.00     0.047 A 
ATOM     20  C   UNL d   1     -43.458  11.938  22.275  0.00  0.00     0.030 A 
ATOM     21  C   UNL d   1     -44.058  11.591  22.791  0.00  0.00     0.118 A 
ATOM     22  C   UNL d   1     -44.835  11.982  22.882  0.00  0.00     0.138 A 
ATOM     23  C   UNL d   1     -44.997  12.718  22.451  0.00  0.00     0.118 A 
ATOM     24  C   UNL d   1     -44.393  13.060  21.936  0.00  0.00     0.030 A 
BRANCH  21  25
ATOM     25  O   UNL d   1     -44.233  10.927  23.329  0.00  0.00    -0.326 OA
ATOM     26  C   UNL d   1     -43.640  10.311  23.473  0.00  0.00     0.181 C 
ENDBRANCH  21  25
BRANCH  22  27
ATOM     27  O   UNL d   1     -45.435  11.636  23.398  0.00  0.00    -0.324 OA
ATOM     28  C   UNL d   1     -46.191  11.377  23.065  0.00  0.00     0.182 C 
ENDBRANCH  22  27
BRANCH  23  29
ATOM     29  O   UNL d   1     -45.766  13.107  22.539  0.00  0.00    -0.326 OA
ATOM     30  C   UNL d   1     -45.835  13.962  22.428  0.00  0.00     0.181 C 
ENDBRANCH  23  29
ENDBRANCH   4  19
TORSDOF 8
ENDMDL
MODEL 6
REMARK VINA RESULT:      -3.4      1.526      5.856
REMARK  8 active torsions:
REMARK  status: ('A' for Active; 'I' for Inactive)
REMARK    1  A    between atoms: C_2  and  C_1 
REMARK    2  A    between atoms: C_12  and  C_5 
REMARK    3  A    between atoms: C_14  and  C_6 
REMARK    4  A    between atoms: O_20  and  C_13 
REMARK    5  A    between atoms: O_21  and  C_14 
REMARK    6  A    between atoms: O_23  and  C_15 
REMARK    7  A    between atoms: O_22  and  C_16 
REMARK    8  A    between atoms: C_26  and  O_21 
ROOT
ATOM      1  C   UNL d   1     -47.814  13.690  22.381  0.00  0.00     0.206 A 
ATOM      2  O   UNL d   1     -47.164  13.352  22.835  0.00  0.00    -0.268 OA
ATOM      3  N   UNL d   1     -47.741  13.407  21.567  0.00  0.00    -0.121 NA
ATOM      4  C   UNL d   1     -46.688  12.860  22.306  0.00  0.00     0.205 A 
ATOM      5  N   UNL d   1     -47.049  12.894  21.512  0.00  0.00    -0.121 NA
ENDROOT
BRANCH   1   6
ATOM      6  C   UNL d   1     -48.391  14.189  22.677  0.00  0.00     0.061 A 
ATOM      7  C   UNL d   1     -49.098  13.875  22.932  0.00  0.00     0.012 A 
ATOM      8  C   UNL d   1     -49.678  14.356  23.227  0.00  0.00     0.081 A 
ATOM      9  C   UNL d   1     -49.555  15.165  23.270  0.00  0.00     0.086 A 
ATOM     10  N   UNL d   1     -48.853  15.480  23.017  0.00  0.00    -0.245 NA
ATOM     11  C   UNL d   1     -50.135  15.647  23.566  0.00  0.00     0.021 C 
ATOM     12  C   UNL d   1     -48.268  14.997  22.720  0.00  0.00     0.085 A 
ATOM     13  C   UNL d   1     -47.565  15.319  22.467  0.00  0.00     0.021 C 
BRANCH   8  14
ATOM     14  C   UNL d   1     -50.375  14.041  23.478  0.00  0.00     0.302 C 
ATOM     15  O   UNL d   1     -51.043  14.504  23.513  0.00  0.00    -0.259 OA
BRANCH  14  16
ATOM     16  O   UNL d   1     -50.420  13.261  23.697  0.00  0.00    -0.271 OA
BRANCH  16  17
ATOM     17  C   UNL d   1     -51.038  12.804  23.440  0.00  0.00     0.126 C 
ATOM     18  C   UNL d   1     -51.063  12.001  23.630  0.00  0.00     0.029 C 
ENDBRANCH  16  17
ENDBRANCH  14  16
ENDBRANCH   8  14
ENDBRANCH   1   6
BRANCH   4  19
ATOM     19  C   UNL d   1     -45.971  12.407  22.525  0.00  0.00     0.047 A 
ATOM     20  C   UNL d   1     -46.044  11.714  23.030  0.00  0.00     0.030 A 
ATOM     21  C   UNL d   1     -45.339  11.265  23.248  0.00  0.00     0.118 A 
ATOM     22  C   UNL d   1     -44.554  11.515  22.955  0.00  0.00     0.138 A 
ATOM     23  C   UNL d   1     -44.490  12.214  22.446  0.00  0.00     0.118 A 
ATOM     24  C   UNL d   1     -45.199  12.660  22.231  0.00  0.00     0.030 A 
BRANCH  21  25
ATOM     25  O   UNL d   1     -45.047  10.576  23.698  0.00  0.00    -0.326 OA
ATOM     26  C   UNL d   1     -45.455   9.812  23.644  0.00  0.00     0.181 C 
ENDBRANCH  21  25
BRANCH  22  27
ATOM     27  O   UNL d   1     -43.849  11.065  23.173  0.00  0.00    -0.324 OA
ATOM     28  C   UNL d   1     -43.069  11.439  23.128  0.00  0.00     0.182 C 
ENDBRANCH  22  27
BRANCH  23  29
ATOM     29  O   UNL d   1     -43.713  12.464  22.154  0.00  0.00    -0.326 OA
ATOM     30  C   UNL d   1     -43.646  12.875  21.397  0.00  0.00     0.181 C 
ENDBRANCH  23  29
ENDBRANCH   4  19
TORSDOF 8
ENDMDL
MODEL 7
REMARK VINA RESULT:      -2.5      3.376      7.472
REMARK  8 active torsions:
REMARK  status: ('A' for Active; 'I' for Inactive)
REMARK    1  A    between atoms: C_2  and  C_1 
REMARK    2  A    between atoms: C_12  and  C_5 
REMARK    3  A    between atoms: C_14  and  C_6 
REMARK    4  A    between atoms: O_20  and  C_13 
REMARK    5  A    between atoms: O_21  and  C_14 
REMARK    6  A    between atoms: O_23  and  C_15 
REMARK    7  A    between atoms: O_22  and  C_16 
REMARK    8  A    between atoms: C_26  and  O_21 
ROOT
ATOM      1  C   UNL d   1     -41.949  13.893  20.777  0.00  0.00     0.206 A 
ATOM      2  O   UNL d   1     -41.669  13.776  19.970  0.00  0.00    -0.268 OA
ATOM      3  N   UNL d   1     -41.665  14.665  21.045  0.00  0.00    -0.121 NA
ATOM      4  C   UNL d   1     -41.212  14.472  19.735  0.00  0.00     0.205 A 
ATOM      5  N   UNL d   1     -41.209  15.029  20.408  0.00  0.00    -0.121 NA
ENDROOT
BRANCH   1   6
ATOM      6  C   UNL d   1     -42.402  13.362  21.205  0.00  0.00     0.061 A 
ATOM      7  C   UNL d   1     -43.214  13.425  21.187  0.00  0.00     0.012 A 
ATOM      8  C   UNL d   1     -43.675  12.907  21.605  0.00  0.00     0.081 A 
ATOM      9  C   UNL d   1     -43.324  12.315  22.049  0.00  0.00     0.086 A 
ATOM     10  N   UNL d   1     -42.517  12.250  22.069  0.00  0.00    -0.245 NA
ATOM     11  C   UNL d   1     -43.785  11.797  22.468  0.00  0.00     0.021 C 
ATOM     12  C   UNL d   1     -42.051  12.771  21.649  0.00  0.00     0.085 A 
ATOM     13  C   UNL d   1     -41.241  12.701  21.672  0.00  0.00     0.021 C 
BRANCH   8  14
ATOM     14  C   UNL d   1     -44.477  12.974  21.584  0.00  0.00     0.302 C 
ATOM     15  O   UNL d   1     -44.906  12.561  21.029  0.00  0.00    -0.259 OA
BRANCH  14  16
ATOM     16  O   UNL d   1     -44.866  13.451  22.113  0.00  0.00    -0.271 OA
BRANCH  16  17
ATOM     17  C   UNL d   1     -45.676  13.439  22.147  0.00  0.00     0.126 C 
ATOM     18  C   UNL d   1     -46.080  14.049  22.528  0.00  0.00     0.029 C 
ENDBRANCH  16  17
ENDBRANCH  14  16
ENDBRANCH   8  14
ENDBRANCH   1   6
BRANCH   4  19
ATOM     19  C   UNL d   1     -40.821  14.598  18.963  0.00  0.00     0.047 A 
ATOM     20  C   UNL d   1     -41.226  15.046  18.350  0.00  0.00     0.030 A 
ATOM     21  C   UNL d   1     -40.844  15.173  17.586  0.00  0.00     0.118 A 
ATOM     22  C   UNL d   1     -40.046  14.846  17.437  0.00  0.00     0.138 A 
ATOM     23  C   UNL d   1     -39.645  14.396  18.061  0.00  0.00     0.118 A 
ATOM     24  C   UNL d   1     -40.033  14.272  18.823  0.00  0.00     0.030 A 
BRANCH  21  25
ATOM     25  O   UNL d   1     -40.934  15.539  16.799  0.00  0.00    -0.326 OA
ATOM     26  C   UNL d   1     -41.680  15.922  16.576  0.00  0.00     0.181 C 
ENDBRANCH  21  25
BRANCH  22  27
ATOM     27  O   UNL d   1     -39.663  14.973  16.673  0.00  0.00    -0.324 OA
ATOM     28  C   UNL d   1     -39.019  15.547  16.605  0.00  0.00     0.182 C 
ENDBRANCH  22  27
BRANCH  23  29
ATOM     29  O   UNL d   1     -38.855  14.070  17.916  0.00  0.00    -0.326 OA
ATOM     30  C   UNL d   1     -38.590  13.369  18.345  0.00  0.00     0.181 C 
ENDBRANCH  23  29
ENDBRANCH   4  19
TORSDOF 8
ENDMDL
MODEL 8
REMARK VINA RESULT:      -2.4      2.931      6.712
REMARK  8 active torsions:
REMARK  status: ('A' for Active; 'I' for Inactive)
REMARK    1  A    between atoms: C_2  and  C_1 
REMARK    2  A    between atoms: C_12  and  C_5 
REMARK    3  A    between atoms: C_14  and  C_6 
REMARK    4  A    between atoms: O_20  and  C_13 
REMARK    5  A    between atoms: O_21  and  C_14 
REMARK    6  A    between atoms: O_23  and  C_15 
REMARK    7  A    between atoms: O_22  and  C_16 
REMARK    8  A    between atoms: C_26  and  O_21 
ROOT
ATOM      1  C   UNL d   1     -43.641  12.968  21.523  0.00  0.00     0.206 A 
ATOM      2  O   UNL d   1     -42.991  13.512  21.680  0.00  0.00    -0.268 OA
ATOM      3  N   UNL d   1     -43.439  12.514  20.815  0.00  0.00    -0.121 NA
ATOM      4  C   UNL d   1     -42.386  13.398  21.072  0.00  0.00     0.205 A 
ATOM      5  N   UNL d   1     -42.666  12.773  20.530  0.00  0.00    -0.121 NA
ENDROOT
BRANCH   1   6
ATOM      6  C   UNL d   1     -44.323  12.901  21.970  0.00  0.00     0.061 A 
ATOM      7  C   UNL d   1     -44.482  12.200  22.354  0.00  0.00     0.012 A 
ATOM      8  C   UNL d   1     -45.153  12.120  22.800  0.00  0.00     0.081 A 
ATOM      9  C   UNL d   1     -45.676  12.747  22.866  0.00  0.00     0.086 A 
ATOM     10  N   UNL d   1     -45.521  13.445  22.486  0.00  0.00    -0.245 NA
ATOM     11  C   UNL d   1     -46.348  12.667  23.312  0.00  0.00     0.021 C 
ATOM     12  C   UNL d   1     -44.846  13.528  22.036  0.00  0.00     0.085 A 
ATOM     13  C   UNL d   1     -44.695  14.230  21.657  0.00  0.00     0.021 C 
BRANCH   8  14
ATOM     14  C   UNL d   1     -45.306  11.426  23.177  0.00  0.00     0.302 C 
ATOM     15  O   UNL d   1     -46.060  11.120  23.178  0.00  0.00    -0.259 OA
BRANCH  14  16
ATOM     16  O   UNL d   1     -44.713  11.024  23.559  0.00  0.00    -0.271 OA
BRANCH  16  17
ATOM     17  C   UNL d   1     -44.768  10.221  23.657  0.00  0.00     0.126 C 
ATOM     18  C   UNL d   1     -44.081   9.764  23.698  0.00  0.00     0.029 C 
ENDBRANCH  16  17
ENDBRANCH  14  16
ENDBRANCH   8  14
ENDBRANCH   1   6
BRANCH   4  19
ATOM     19  C   UNL d   1     -41.627  13.830  21.009  0.00  0.00     0.047 A 
ATOM     20  C   UNL d   1     -41.538  14.448  20.418  0.00  0.00     0.030 A 
ATOM     21  C   UNL d   1     -40.791  14.877  20.352  0.00  0.00     0.118 A 
ATOM     22  C   UNL d   1     -40.127  14.681  20.887  0.00  0.00     0.138 A 
ATOM     23  C   UNL d   1     -40.225  14.056  21.480  0.00  0.00     0.118 A 
ATOM     24  C   UNL d   1     -40.975  13.630  21.541  0.00  0.00     0.030 A 
BRANCH  21  25
ATOM     25  O   UNL d   1     -40.369  15.505  19.918  0.00  0.00    -0.326 OA
ATOM     26  C   UNL d   1     -40.752  15.915  19.256  0.00  0.00     0.181 C 
ENDBRANCH  21  25
BRANCH  22  27
ATOM     27  O   UNL d   1     -39.380  15.109  20.821  0.00  0.00    -0.324 OA
ATOM     28  C   UNL d   1     -38.754  14.807  20.303  0.00  0.00     0.182 C 
ENDBRANCH  22  27
BRANCH  23  29
ATOM     29  O   UNL d   1     -39.569  13.859  22.010  0.00  0.00    -0.326 OA
ATOM     30  C   UNL d   1     -39.714  13.400  22.728  0.00  0.00     0.181 C 
ENDBRANCH  23  29
ENDBRANCH   4  19
TORSDOF 8
ENDMDL
