MODEL 1
REMARK VINA RESULT:      12.9      0.000      0.000
REMARK  8 active torsions:
REMARK  status: ('A' for Active; 'I' for Inactive)
REMARK    1  A    between atoms: N_5  and  C_1 
REMARK    2  A    between atoms: C_2  and  N_5 
REMARK    3  A    between atoms: N_3  and  C_2 
REMARK       I    between atoms: C_6  and  N_3 
REMARK    4  A    between atoms: C_13  and  C_6 
REMARK    5  A    between atoms: C_9  and  C_7 
REMARK    6  A    between atoms: C_11  and  C_9 
REMARK    7  A    between atoms: O_21  and  C_11 
REMARK    8  A    between atoms: C_23  and  O_21 
ROOT
ATOM      1  C   UNL d   1      45.565 -16.604  44.169  0.00  0.00     0.225 C 
ATOM      2  S   UNL d   1      45.715 -16.750  44.955  0.00  0.00    -0.037 SA
ENDROOT
BRANCH   1   3
ATOM      3  N   UNL d   1      45.209 -15.893  43.948  0.00  0.00    -0.192 NA
BRANCH   3   4
ATOM      4  C   UNL d   1      45.505 -15.169  44.246  0.00  0.00     0.196 A 
ATOM      5  N   UNL d   1      45.174 -14.438  44.159  0.00  0.00    -0.220 NA
ATOM      6  C   UNL d   1      45.652 -13.912  44.537  0.00  0.00     0.095 A 
ATOM      7  C   UNL d   1      46.284 -14.333  44.859  0.00  0.00     0.058 A 
ATOM      8  S   UNL d   1      46.182 -15.105  44.673  0.00  0.00    -0.046 SA
BRANCH   6   9
ATOM      9  C   UNL d   1      45.509 -13.087  44.581  0.00  0.00     0.088 C 
BRANCH   9  10
ATOM     10  C   UNL d   1      45.085 -12.696  44.013  0.00  0.00     0.302 C 
ATOM     11  O   UNL d   1      44.278 -12.580  44.073  0.00  0.00    -0.259 OA
BRANCH  10  12
ATOM     12  O   UNL d   1      45.480 -12.396  43.335  0.00  0.00    -0.271 OA
BRANCH  12  13
ATOM     13  C   UNL d   1      45.027 -12.167  42.681  0.00  0.00     0.126 C 
ATOM     14  C   UNL d   1      45.419 -12.082  41.963  0.00  0.00     0.029 C 
ENDBRANCH  12  13
ENDBRANCH  10  12
ENDBRANCH   9  10
ENDBRANCH   6   9
ENDBRANCH   3   4
ENDBRANCH   1   3
BRANCH   1  15
ATOM     15  N   UNL d   1      45.758 -17.143  43.599  0.00  0.00    -0.179 NA
ATOM     16  C   UNL d   1      45.850 -17.942  43.809  0.00  0.00     0.281 C 
ATOM     17  O   UNL d   1      45.745 -18.176  44.586  0.00  0.00    -0.265 OA
BRANCH  16  18
ATOM     18  C   UNL d   1      46.048 -18.503  43.227  0.00  0.00     0.058 A 
ATOM     19  C   UNL d   1      46.025 -18.302  42.421  0.00  0.00     0.007 A 
ATOM     20  C   UNL d   1      46.227 -18.877  41.860  0.00  0.00     0.030 A 
ATOM     21  C   UNL d   1      46.450 -19.643  42.099  0.00  0.00     0.140 A 
ATOM     22  C   UNL d   1      46.469 -19.826  42.894  0.00  0.00     0.030 A 
ATOM     23  F   UNL d   1      46.647 -20.203  41.552  0.00  0.00    -0.204 F 
ATOM     24  C   UNL d   1      46.272 -19.268  43.461  0.00  0.00     0.007 A 
ENDBRANCH  16  18
ENDBRANCH   1  15
TORSDOF 8
ENDMDL
MODEL 2
REMARK VINA RESULT:      15.1      2.323      5.259
REMARK  8 active torsions:
REMARK  status: ('A' for Active; 'I' for Inactive)
REMARK    1  A    between atoms: N_5  and  C_1 
REMARK    2  A    between atoms: C_2  and  N_5 
REMARK    3  A    between atoms: N_3  and  C_2 
REMARK       I    between atoms: C_6  and  N_3 
REMARK    4  A    between atoms: C_13  and  C_6 
REMARK    5  A    between atoms: C_9  and  C_7 
REMARK    6  A    between atoms: C_11  and  C_9 
REMARK    7  A    between atoms: O_21  and  C_11 
REMARK    8  A    between atoms: C_23  and  O_21 
ROOT
ATOM      1  C   UNL d   1      45.791 -16.672  44.878  0.00  0.00     0.225 C 
ATOM      2  S   UNL d   1      45.065 -17.025  44.783  0.00  0.00    -0.037 SA
ENDROOT
BRANCH   1   3
ATOM      3  N   UNL d   1      46.466 -17.141  44.952  0.00  0.00    -0.192 NA
BRANCH   3   4
ATOM      4  C   UNL d   1      46.502 -17.882  44.565  0.00  0.00     0.196 A 
ATOM      5  N   UNL d   1      46.569 -18.011  43.771  0.00  0.00    -0.220 NA
ATOM      6  C   UNL d   1      46.582 -18.807  43.658  0.00  0.00     0.095 A 
ATOM      7  C   UNL d   1      46.523 -19.167  44.397  0.00  0.00     0.058 A 
ATOM      8  S   UNL d   1      46.474 -18.588  44.947  0.00  0.00    -0.046 SA
BRANCH   6   9
ATOM      9  C   UNL d   1      46.647 -19.179  42.909  0.00  0.00     0.088 C 
BRANCH   9  10
ATOM     10  C   UNL d   1      46.023 -19.216  42.395  0.00  0.00     0.302 C 
ATOM     11  O   UNL d   1      45.418 -19.760  42.480  0.00  0.00    -0.259 OA
BRANCH  10  12
ATOM     12  O   UNL d   1      45.987 -18.681  41.749  0.00  0.00    -0.271 OA
BRANCH  12  13
ATOM     13  C   UNL d   1      46.151 -18.964  40.989  0.00  0.00     0.126 C 
ATOM     14  C   UNL d   1      46.035 -18.445  40.361  0.00  0.00     0.029 C 
ENDBRANCH  12  13
ENDBRANCH  10  12
ENDBRANCH   9  10
ENDBRANCH   6   9
ENDBRANCH   3   4
ENDBRANCH   1   3
BRANCH   1  15
ATOM     15  N   UNL d   1      45.865 -15.867  44.900  0.00  0.00    -0.179 NA
ATOM     16  C   UNL d   1      45.444 -15.405  44.353  0.00  0.00     0.281 C 
ATOM     17  O   UNL d   1      44.960 -15.763  43.799  0.00  0.00    -0.265 OA
BRANCH  16  18
ATOM     18  C   UNL d   1      45.515 -14.576  44.370  0.00  0.00     0.058 A 
ATOM     19  C   UNL d   1      46.145 -14.213  44.774  0.00  0.00     0.007 A 
ATOM     20  C   UNL d   1      46.195 -13.386  44.777  0.00  0.00     0.030 A 
ATOM     21  C   UNL d   1      45.624 -12.926  44.382  0.00  0.00     0.140 A 
ATOM     22  C   UNL d   1      45.011 -13.294  43.990  0.00  0.00     0.030 A 
ATOM     23  F   UNL d   1      45.673 -12.120  44.385  0.00  0.00    -0.204 F 
ATOM     24  C   UNL d   1      44.948 -14.112  43.977  0.00  0.00     0.007 A 
ENDBRANCH  16  18
ENDBRANCH   1  15
TORSDOF 8
ENDMDL
