MODEL 1
REMARK VINA RESULT:       0.5      0.000      0.000
REMARK  3 active torsions:
REMARK  status: ('A' for Active; 'I' for Inactive)
REMARK    1  A    between atoms: C_2  and  C_1 
REMARK       I    between atoms: N_8  and  C_2 
REMARK    2  A    between atoms: C_12  and  C_4 
REMARK    3  A    between atoms: C_9  and  N_8 
ROOT
ATOM      1  C   UNL d   1      32.917  19.892 -23.563  0.00  0.00     0.106 A 
ATOM      2  C   UNL d   1      33.084  19.816 -24.433  0.00  0.00     0.093 A 
ATOM      3  C   UNL d   1      32.874  20.527 -23.216  0.00  0.00     0.093 A 
ATOM      4  C   UNL d   1      33.133  21.237 -24.410  0.00  0.00     0.369 A 
ATOM      5  N   UNL d   1      33.187  20.520 -24.823  0.00  0.00    -0.191 NA
ATOM      6  N   UNL d   1      32.977  21.240 -23.607  0.00  0.00    -0.191 NA
ATOM      7  O   UNL d   1      33.239  21.952 -24.814  0.00  0.00    -0.242 OA
ATOM      8  C   UNL d   1      33.128  19.087 -24.801  0.00  0.00     0.021 C 
ENDROOT
BRANCH   1   9
ATOM      9  C   UNL d   1      32.807  19.203 -23.130  0.00  0.00     0.331 C 
ATOM     10  N   UNL d   1      32.276  18.635 -23.382  0.00  0.00    -0.365 NA
ATOM     11  O   UNL d   1      33.235  19.086 -22.438  0.00  0.00    -0.251 OA
BRANCH  10  12
ATOM     12  C   UNL d   1      31.705  18.046 -23.674  0.00  0.00     0.135 A 
ATOM     13  C   UNL d   1      31.809  17.189 -23.498  0.00  0.00     0.030 A 
ATOM     14  C   UNL d   1      32.504  16.931 -23.020  0.00  0.00     0.003 C 
ATOM     15  C   UNL d   1      31.243  16.606 -23.787  0.00  0.00     0.003 A 
ATOM     16  C   UNL d   1      30.547  16.861 -24.266  0.00  0.00     0.000 A 
ATOM     17  C   UNL d   1      30.439  17.710 -24.443  0.00  0.00     0.003 A 
ATOM     18  C   UNL d   1      31.013  18.303 -24.150  0.00  0.00     0.032 A 
ENDBRANCH  10  12
ENDBRANCH   1   9
BRANCH   3  19
ATOM     19  C   UNL d   1      32.717  20.526 -22.411  0.00  0.00     0.018 A 
ATOM     20  C   UNL d   1      33.217  20.131 -21.887  0.00  0.00     0.002 A 
ATOM     21  C   UNL d   1      33.051  20.137 -21.087  0.00  0.00     0.000 A 
ATOM     22  C   UNL d   1      32.391  20.533 -20.804  0.00  0.00     0.000 A 
ATOM     23  C   UNL d   1      31.897  20.923 -21.322  0.00  0.00     0.000 A 
ATOM     24  C   UNL d   1      32.051  20.925 -22.122  0.00  0.00     0.002 A 
ENDBRANCH   3  19
TORSDOF 3
ENDMDL
MODEL 2
REMARK VINA RESULT:       0.7      1.661      4.030
REMARK  3 active torsions:
REMARK  status: ('A' for Active; 'I' for Inactive)
REMARK    1  A    between atoms: C_2  and  C_1 
REMARK       I    between atoms: N_8  and  C_2 
REMARK    2  A    between atoms: C_12  and  C_4 
REMARK    3  A    between atoms: C_9  and  N_8 
ROOT
ATOM      1  C   UNL d   1      31.730  17.799 -24.758  0.00  0.00     0.106 A 
ATOM      2  C   UNL d   1      32.567  17.606 -24.988  0.00  0.00     0.093 A 
ATOM      3  C   UNL d   1      31.213  17.300 -24.668  0.00  0.00     0.093 A 
ATOM      4  C   UNL d   1      32.113  16.257 -24.987  0.00  0.00     0.369 A 
ATOM      5  N   UNL d   1      32.718  16.815 -25.094  0.00  0.00    -0.191 NA
ATOM      6  N   UNL d   1      31.361  16.500 -24.774  0.00  0.00    -0.191 NA
ATOM      7  O   UNL d   1      32.274  15.453 -25.096  0.00  0.00    -0.242 OA
ATOM      8  C   UNL d   1      33.134  18.188 -25.084  0.00  0.00     0.021 C 
ENDROOT
BRANCH   1   9
ATOM      9  C   UNL d   1      31.536  18.588 -24.641  0.00  0.00     0.331 C 
ATOM     10  N   UNL d   1      31.928  19.034 -24.081  0.00  0.00    -0.365 NA
ATOM     11  O   UNL d   1      30.941  18.929 -25.094  0.00  0.00    -0.251 OA
BRANCH  10  12
ATOM     12  C   UNL d   1      32.363  19.486 -23.476  0.00  0.00     0.135 A 
ATOM     13  C   UNL d   1      32.695  20.281 -23.659  0.00  0.00     0.030 A 
ATOM     14  C   UNL d   1      32.582  20.618 -24.467  0.00  0.00     0.003 C 
ATOM     15  C   UNL d   1      33.126  20.729 -23.060  0.00  0.00     0.003 A 
ATOM     16  C   UNL d   1      33.241  20.395 -22.252  0.00  0.00     0.000 A 
ATOM     17  C   UNL d   1      32.913  19.606 -22.066  0.00  0.00     0.003 A 
ATOM     18  C   UNL d   1      32.476  19.150 -22.672  0.00  0.00     0.032 A 
ENDBRANCH  10  12
ENDBRANCH   1   9
BRANCH   3  19
ATOM     19  C   UNL d   1      30.460  17.546 -24.455  0.00  0.00     0.018 A 
ATOM     20  C   UNL d   1      30.164  17.386 -23.701  0.00  0.00     0.002 A 
ATOM     21  C   UNL d   1      29.413  17.636 -23.500  0.00  0.00     0.000 A 
ATOM     22  C   UNL d   1      28.954  18.045 -24.043  0.00  0.00     0.000 A 
ATOM     23  C   UNL d   1      29.246  18.204 -24.787  0.00  0.00     0.000 A 
ATOM     24  C   UNL d   1      29.993  17.959 -25.000  0.00  0.00     0.002 A 
ENDBRANCH   3  19
TORSDOF 3
ENDMDL
