MODEL 1
REMARK VINA RESULT:      -5.5      0.000      0.000
REMARK  4 active torsions:
REMARK  status: ('A' for Active; 'I' for Inactive)
REMARK    1  A    between atoms: C_2  and  S_1 
REMARK    2  A    between atoms: N_3  and  S_1 
REMARK    3  A    between atoms: C_10  and  N_3 
REMARK    4  A    between atoms: C_5  and  C_10 
ROOT
ATOM      1  S   UNL d   1      57.458   0.065  31.272  0.00  0.00     0.285 S 
ATOM      2  O   UNL d   1      57.037  -0.455  30.797  0.00  0.00    -0.198 OA
ATOM      3  O   UNL d   1      57.890   0.601  31.764  0.00  0.00    -0.198 OA
ENDROOT
BRANCH   1   4
ATOM      4  C   UNL d   1      56.860  -0.006  31.878  0.00  0.00     0.105 A 
ATOM      5  C   UNL d   1      56.637  -0.752  32.158  0.00  0.00     0.013 A 
ATOM      6  C   UNL d   1      56.061  -0.812  32.742  0.00  0.00     0.001 A 
ATOM      7  C   UNL d   1      55.841  -1.576  33.020  0.00  0.00     0.000 C 
ATOM      8  C   UNL d   1      55.707  -0.135  33.046  0.00  0.00     0.000 A 
ATOM      9  C   UNL d   1      55.933   0.602  32.764  0.00  0.00     0.001 A 
ATOM     10  C   UNL d   1      55.112  -0.204  33.650  0.00  0.00     0.000 C 
ATOM     11  C   UNL d   1      56.510   0.673  32.179  0.00  0.00     0.013 A 
ENDBRANCH   1   4
BRANCH   1  12
ATOM     12  N   UNL d   1      58.049   0.134  30.672  0.00  0.00    -0.155 NA
BRANCH  12  13
ATOM     13  C   UNL d   1      58.192  -0.320  30.014  0.00  0.00     0.137 C 
BRANCH  13  14
ATOM     14  C   UNL d   1      58.824  -0.135  29.513  0.00  0.00     0.120 A 
ATOM     15  O   UNL d   1      58.951   0.592  29.081  0.00  0.00    -0.304 OA
ATOM     16  C   UNL d   1      59.659   0.496  28.666  0.00  0.00     0.123 A 
ATOM     17  C   UNL d   1      59.964  -0.282  28.842  0.00  0.00     0.029 A 
ATOM     18  C   UNL d   1      59.436  -0.628  29.352  0.00  0.00     0.028 A 
ENDBRANCH  13  14
ENDBRANCH  12  13
ENDBRANCH   1  12
TORSDOF 4
ENDMDL
MODEL 2
REMARK VINA RESULT:      -4.3      0.918      4.319
REMARK  4 active torsions:
REMARK  status: ('A' for Active; 'I' for Inactive)
REMARK    1  A    between atoms: C_2  and  S_1 
REMARK    2  A    between atoms: N_3  and  S_1 
REMARK    3  A    between atoms: C_10  and  N_3 
REMARK    4  A    between atoms: C_5  and  C_10 
ROOT
ATOM      1  S   UNL d   1      57.613   0.050  30.739  0.00  0.00     0.285 S 
ATOM      2  O   UNL d   1      57.991  -0.563  31.132  0.00  0.00    -0.198 OA
ATOM      3  O   UNL d   1      57.226   0.682  30.331  0.00  0.00    -0.198 OA
ENDROOT
BRANCH   1   4
ATOM      4  C   UNL d   1      58.239   0.062  30.158  0.00  0.00     0.105 A 
ATOM      5  C   UNL d   1      58.291  -0.536  29.588  0.00  0.00     0.013 A 
ATOM      6  C   UNL d   1      58.897  -0.517  29.032  0.00  0.00     0.001 A 
ATOM      7  C   UNL d   1      58.940  -1.131  28.456  0.00  0.00     0.000 C 
ATOM      8  C   UNL d   1      59.449   0.092  29.040  0.00  0.00     0.000 A 
ATOM      9  C   UNL d   1      59.392   0.682  29.608  0.00  0.00     0.001 A 
ATOM     10  C   UNL d   1      60.073   0.106  28.463  0.00  0.00     0.000 C 
ATOM     11  C   UNL d   1      58.788   0.672  30.170  0.00  0.00     0.013 A 
ENDBRANCH   1   4
BRANCH   1  12
ATOM     12  N   UNL d   1      56.994   0.037  31.314  0.00  0.00    -0.155 NA
BRANCH  12  13
ATOM     13  C   UNL d   1      56.911  -0.401  31.994  0.00  0.00     0.137 C 
BRANCH  13  14
ATOM     14  C   UNL d   1      56.281  -0.249  32.508  0.00  0.00     0.120 A 
ATOM     15  O   UNL d   1      55.966   0.511  32.736  0.00  0.00    -0.304 OA
ATOM     16  C   UNL d   1      55.342   0.359  33.257  0.00  0.00     0.123 A 
ATOM     17  C   UNL d   1      55.275  -0.488  33.347  0.00  0.00     0.029 A 
ATOM     18  C   UNL d   1      55.855  -0.817  32.883  0.00  0.00     0.028 A 
ENDBRANCH  13  14
ENDBRANCH  12  13
ENDBRANCH   1  12
TORSDOF 4
ENDMDL
MODEL 3
REMARK VINA RESULT:      -3.5      1.172      4.395
REMARK  4 active torsions:
REMARK  status: ('A' for Active; 'I' for Inactive)
REMARK    1  A    between atoms: C_2  and  S_1 
REMARK    2  A    between atoms: N_3  and  S_1 
REMARK    3  A    between atoms: C_10  and  N_3 
REMARK    4  A    between atoms: C_5  and  C_10 
ROOT
ATOM      1  S   UNL d   1      57.187  -0.056  31.408  0.00  0.00     0.285 S 
ATOM      2  O   UNL d   1      57.066   0.682  31.069  0.00  0.00    -0.198 OA
ATOM      3  O   UNL d   1      57.315  -0.816  31.755  0.00  0.00    -0.198 OA
ENDROOT
BRANCH   1   4
ATOM      4  C   UNL d   1      57.692  -0.273  30.754  0.00  0.00     0.105 A 
ATOM      5  C   UNL d   1      58.150   0.301  30.372  0.00  0.00     0.013 A 
ATOM      6  C   UNL d   1      58.633   0.085  29.743  0.00  0.00     0.001 A 
ATOM      7  C   UNL d   1      59.096   0.677  29.362  0.00  0.00     0.000 C 
ATOM      8  C   UNL d   1      58.661  -0.698  29.492  0.00  0.00     0.000 A 
ATOM      9  C   UNL d   1      58.204  -1.262  29.874  0.00  0.00     0.001 A 
ATOM     10  C   UNL d   1      59.163  -0.916  28.841  0.00  0.00     0.000 C 
ATOM     11  C   UNL d   1      57.716  -1.055  30.507  0.00  0.00     0.013 A 
ENDBRANCH   1   4
BRANCH   1  12
ATOM     12  N   UNL d   1      56.688   0.160  32.055  0.00  0.00    -0.155 NA
BRANCH  12  13
ATOM     13  C   UNL d   1      56.577  -0.191  32.779  0.00  0.00     0.137 C 
BRANCH  13  14
ATOM     14  C   UNL d   1      55.989   0.090  33.288  0.00  0.00     0.120 A 
ATOM     15  O   UNL d   1      55.142   0.036  33.186  0.00  0.00    -0.304 OA
ATOM     16  C   UNL d   1      54.804   0.400  33.847  0.00  0.00     0.123 A 
ATOM     17  C   UNL d   1      55.438   0.673  34.350  0.00  0.00     0.029 A 
ATOM     18  C   UNL d   1      56.131   0.469  33.981  0.00  0.00     0.028 A 
ENDBRANCH  13  14
ENDBRANCH  12  13
ENDBRANCH   1  12
TORSDOF 4
ENDMDL
MODEL 4
REMARK VINA RESULT:      -2.8      9.464      9.991
REMARK  4 active torsions:
REMARK  status: ('A' for Active; 'I' for Inactive)
REMARK    1  A    between atoms: C_2  and  S_1 
REMARK    2  A    between atoms: N_3  and  S_1 
REMARK    3  A    between atoms: C_10  and  N_3 
REMARK    4  A    between atoms: C_5  and  C_10 
ROOT
ATOM      1  S   UNL d   1      59.480  -9.479  33.580  0.00  0.00     0.285 S 
ATOM      2  O   UNL d   1      60.175  -9.386  33.155  0.00  0.00    -0.198 OA
ATOM      3  O   UNL d   1      58.764  -9.574  34.021  0.00  0.00    -0.198 OA
ENDROOT
BRANCH   1   4
ATOM      4  C   UNL d   1      59.867  -9.175  34.278  0.00  0.00     0.105 A 
ATOM      5  C   UNL d   1      59.521  -8.560  34.712  0.00  0.00     0.013 A 
ATOM      6  C   UNL d   1      59.900  -8.273  35.383  0.00  0.00     0.001 A 
ATOM      7  C   UNL d   1      59.539  -7.648  35.818  0.00  0.00     0.000 C 
ATOM      8  C   UNL d   1      60.618  -8.593  35.623  0.00  0.00     0.000 A 
ATOM      9  C   UNL d   1      60.955  -9.202  35.189  0.00  0.00     0.001 A 
ATOM     10  C   UNL d   1      61.005  -8.291  36.318  0.00  0.00     0.000 C 
ATOM     11  C   UNL d   1      60.583  -9.498  34.514  0.00  0.00     0.013 A 
ENDBRANCH   1   4
BRANCH   1  12
ATOM     12  N   UNL d   1      59.098  -9.780  32.889  0.00  0.00    -0.155 NA
BRANCH  12  13
ATOM     13  C   UNL d   1      58.316  -9.767  32.667  0.00  0.00     0.137 C 
BRANCH  13  14
ATOM     14  C   UNL d   1      58.114  -9.786  31.865  0.00  0.00     0.120 A 
ATOM     15  O   UNL d   1      58.644  -9.792  31.194  0.00  0.00    -0.304 OA
ATOM     16  C   UNL d   1      58.166  -9.812  30.520  0.00  0.00     0.123 A 
ATOM     17  C   UNL d   1      57.351  -9.818  30.775  0.00  0.00     0.029 A 
ATOM     18  C   UNL d   1      57.362  -9.802  31.586  0.00  0.00     0.028 A 
ENDBRANCH  13  14
ENDBRANCH  12  13
ENDBRANCH   1  12
TORSDOF 4
ENDMDL
