MODEL 1
REMARK VINA RESULT:      -0.7      0.000      0.000
REMARK  9 active torsions:
REMARK  status: ('A' for Active; 'I' for Inactive)
REMARK    1  A    between atoms: C_7  and  C_1 
REMARK    2  A    between atoms: N_6  and  C_2 
REMARK    3  A    between atoms: C_9  and  C_3 
REMARK       I    between atoms: C_8  and  N_6 
REMARK    4  A    between atoms: O_22  and  C_7 
REMARK    5  A    between atoms: C_11  and  C_8 
REMARK    6  A    between atoms: N_10  and  C_15 
REMARK    7  A    between atoms: C_15  and  C_11 
REMARK    8  A    between atoms: C_21  and  C_12 
REMARK    9  A    between atoms: C_29  and  O_22 
ROOT
ATOM      1  C   UNL d   1     -44.963  12.962  22.155  0.00  0.00     0.088 A 
ATOM      2  C   UNL d   1     -44.309  13.437  21.911  0.00  0.00     0.119 A 
ATOM      3  C   UNL d   1     -45.591  13.462  22.267  0.00  0.00     0.014 A 
ATOM      4  S   UNL d   1     -44.519  14.190  21.874  0.00  0.00    -0.067 SA
ATOM      5  C   UNL d   1     -45.339  14.228  22.100  0.00  0.00     0.037 A 
ENDROOT
BRANCH   3   6
ATOM      6  C   UNL d   1     -46.298  13.173  22.502  0.00  0.00     0.001 A 
ATOM      7  C   UNL d   1     -46.480  13.062  23.277  0.00  0.00     0.000 A 
ATOM      8  C   UNL d   1     -47.230  12.757  23.510  0.00  0.00     0.000 A 
ATOM      9  C   UNL d   1     -47.758  12.578  22.975  0.00  0.00     0.000 A 
ATOM     10  C   UNL d   1     -47.613  12.676  22.171  0.00  0.00     0.000 A 
ATOM     11  C   UNL d   1     -46.870  12.981  21.896  0.00  0.00     0.000 A 
BRANCH   9  12
ATOM     12  C   UNL d   1     -48.482  12.283  23.216  0.00  0.00     0.000 A 
ATOM     13  C   UNL d   1     -48.536  11.496  23.448  0.00  0.00     0.000 A 
ATOM     14  C   UNL d   1     -49.263  11.194  23.691  0.00  0.00     0.000 A 
ATOM     15  C   UNL d   1     -49.911  11.670  23.698  0.00  0.00     0.000 A 
ATOM     16  C   UNL d   1     -49.861  12.466  23.464  0.00  0.00     0.000 A 
ATOM     17  C   UNL d   1     -49.128  12.765  23.221  0.00  0.00     0.000 A 
ENDBRANCH   9  12
ENDBRANCH   3   6
BRANCH   1  18
ATOM     18  C   UNL d   1     -44.970  12.103  22.265  0.00  0.00     0.302 C 
ATOM     19  O   UNL d   1     -45.255  11.611  21.649  0.00  0.00    -0.259 OA
BRANCH  18  20
ATOM     20  O   UNL d   1     -44.695  11.782  22.976  0.00  0.00    -0.271 OA
BRANCH  20  21
ATOM     21  C   UNL d   1     -44.391  10.978  22.991  0.00  0.00     0.126 C 
ATOM     22  C   UNL d   1     -44.336  10.596  23.698  0.00  0.00     0.029 C 
ENDBRANCH  20  21
ENDBRANCH  18  20
ENDBRANCH   1  18
BRANCH   2  23
ATOM     23  N   UNL d   1     -43.506  13.186  21.717  0.00  0.00    -0.201 NA
ATOM     24  C   UNL d   1     -42.949  13.752  21.508  0.00  0.00     0.281 C 
ATOM     25  O   UNL d   1     -43.159  14.586  21.482  0.00  0.00    -0.265 OA
BRANCH  24  26
ATOM     26  C   UNL d   1     -42.167  13.539  21.317  0.00  0.00     0.082 C 
BRANCH  26  27
ATOM     27  C   UNL d   1     -41.724  13.997  20.772  0.00  0.00     0.085 C 
BRANCH  27  28
ATOM     28  N   UNL d   1     -40.900  14.001  20.787  0.00  0.00    -0.299 N 
ATOM     29  C   UNL d   1     -40.461  14.124  20.068  0.00  0.00     0.107 A 
ATOM     30  C   UNL d   1     -39.636  14.126  20.090  0.00  0.00     0.142 A 
ATOM     31  O   UNL d   1     -39.253  14.011  20.804  0.00  0.00    -0.300 OA
ATOM     32  C   UNL d   1     -39.656  13.884  21.553  0.00  0.00     0.142 A 
ATOM     33  C   UNL d   1     -40.480  13.882  21.525  0.00  0.00     0.107 A 
ENDBRANCH  27  28
ENDBRANCH  26  27
ENDBRANCH  24  26
ENDBRANCH   2  23
TORSDOF 9
ENDMDL
MODEL 2
REMARK VINA RESULT:       0.6      2.577      6.605
REMARK  9 active torsions:
REMARK  status: ('A' for Active; 'I' for Inactive)
REMARK    1  A    between atoms: C_7  and  C_1 
REMARK    2  A    between atoms: N_6  and  C_2 
REMARK    3  A    between atoms: C_9  and  C_3 
REMARK       I    between atoms: C_8  and  N_6 
REMARK    4  A    between atoms: O_22  and  C_7 
REMARK    5  A    between atoms: C_11  and  C_8 
REMARK    6  A    between atoms: N_10  and  C_15 
REMARK    7  A    between atoms: C_15  and  C_11 
REMARK    8  A    between atoms: C_21  and  C_12 
REMARK    9  A    between atoms: C_29  and  O_22 
ROOT
ATOM      1  C   UNL d   1     -46.595  12.484  22.922  0.00  0.00     0.088 A 
ATOM      2  C   UNL d   1     -47.222  12.098  23.334  0.00  0.00     0.119 A 
ATOM      3  C   UNL d   1     -45.960  11.981  22.932  0.00  0.00     0.014 A 
ATOM      4  S   UNL d   1     -46.990  11.394  23.587  0.00  0.00    -0.067 SA
ATOM      5  C   UNL d   1     -46.181  11.300  23.338  0.00  0.00     0.037 A 
ENDROOT
BRANCH   3   6
ATOM      6  C   UNL d   1     -45.273  12.193  22.582  0.00  0.00     0.001 A 
ATOM      7  C   UNL d   1     -44.564  12.124  22.953  0.00  0.00     0.000 A 
ATOM      8  C   UNL d   1     -43.847  12.351  22.570  0.00  0.00     0.000 A 
ATOM      9  C   UNL d   1     -43.865  12.631  21.851  0.00  0.00     0.000 A 
ATOM     10  C   UNL d   1     -44.570  12.718  21.436  0.00  0.00     0.000 A 
ATOM     11  C   UNL d   1     -45.312  12.501  21.785  0.00  0.00     0.000 A 
BRANCH   9  12
ATOM     12  C   UNL d   1     -43.162  12.848  21.492  0.00  0.00     0.000 A 
ATOM     13  C   UNL d   1     -43.187  13.251  20.776  0.00  0.00     0.000 A 
ATOM     14  C   UNL d   1     -42.481  13.471  20.411  0.00  0.00     0.000 A 
ATOM     15  C   UNL d   1     -41.779  13.290  20.757  0.00  0.00     0.000 A 
ATOM     16  C   UNL d   1     -41.750  12.882  21.481  0.00  0.00     0.000 A 
ATOM     17  C   UNL d   1     -42.461  12.663  21.844  0.00  0.00     0.000 A 
ENDBRANCH   9  12
ENDBRANCH   3   6
BRANCH   1  18
ATOM     18  C   UNL d   1     -46.618  13.268  22.555  0.00  0.00     0.302 C 
ATOM     19  O   UNL d   1     -46.673  13.330  21.721  0.00  0.00    -0.259 OA
BRANCH  18  20
ATOM     20  O   UNL d   1     -46.585  13.943  23.033  0.00  0.00    -0.271 OA
BRANCH  20  21
ATOM     21  C   UNL d   1     -46.669  14.721  22.678  0.00  0.00     0.126 C 
ATOM     22  C   UNL d   1     -47.227  15.224  22.970  0.00  0.00     0.029 C 
ENDBRANCH  20  21
ENDBRANCH  18  20
ENDBRANCH   1  18
BRANCH   2  23
ATOM     23  N   UNL d   1     -48.022  12.387  23.487  0.00  0.00    -0.201 NA
ATOM     24  C   UNL d   1     -48.656  11.870  23.407  0.00  0.00     0.281 C 
ATOM     25  O   UNL d   1     -48.529  11.051  23.176  0.00  0.00    -0.265 OA
BRANCH  24  26
ATOM     26  C   UNL d   1     -49.438  12.121  23.548  0.00  0.00     0.082 C 
BRANCH  26  27
ATOM     27  C   UNL d   1     -49.935  12.335  22.908  0.00  0.00     0.085 C 
BRANCH  27  28
ATOM     28  N   UNL d   1     -50.312  13.068  22.886  0.00  0.00    -0.299 N 
ATOM     29  C   UNL d   1     -50.461  13.448  22.140  0.00  0.00     0.107 A 
ATOM     30  C   UNL d   1     -50.839  14.182  22.125  0.00  0.00     0.142 A 
ATOM     31  O   UNL d   1     -51.064  14.532  22.830  0.00  0.00    -0.300 OA
ATOM     32  C   UNL d   1     -50.934  14.184  23.606  0.00  0.00     0.142 A 
ATOM     33  C   UNL d   1     -50.556  13.451  23.614  0.00  0.00     0.107 A 
ENDBRANCH  27  28
ENDBRANCH  26  27
ENDBRANCH  24  26
ENDBRANCH   2  23
TORSDOF 9
ENDMDL
MODEL 3
REMARK VINA RESULT:       1.3      1.180      2.007
REMARK  9 active torsions:
REMARK  status: ('A' for Active; 'I' for Inactive)
REMARK    1  A    between atoms: C_7  and  C_1 
REMARK    2  A    between atoms: N_6  and  C_2 
REMARK    3  A    between atoms: C_9  and  C_3 
REMARK       I    between atoms: C_8  and  N_6 
REMARK    4  A    between atoms: O_22  and  C_7 
REMARK    5  A    between atoms: C_11  and  C_8 
REMARK    6  A    between atoms: N_10  and  C_15 
REMARK    7  A    between atoms: C_15  and  C_11 
REMARK    8  A    between atoms: C_21  and  C_12 
REMARK    9  A    between atoms: C_29  and  O_22 
ROOT
ATOM      1  C   UNL d   1     -45.904  12.923  22.391  0.00  0.00     0.088 A 
ATOM      2  C   UNL d   1     -45.070  12.793  22.353  0.00  0.00     0.119 A 
ATOM      3  C   UNL d   1     -46.229  12.272  22.748  0.00  0.00     0.014 A 
ATOM      4  S   UNL d   1     -44.888  12.100  22.668  0.00  0.00    -0.067 SA
ATOM      5  C   UNL d   1     -45.619  11.749  22.928  0.00  0.00     0.037 A 
ENDROOT
BRANCH   3   6
ATOM      6  C   UNL d   1     -47.019  12.229  22.865  0.00  0.00     0.001 A 
ATOM      7  C   UNL d   1     -47.354  12.373  23.581  0.00  0.00     0.000 A 
ATOM      8  C   UNL d   1     -48.189  12.324  23.689  0.00  0.00     0.000 A 
ATOM      9  C   UNL d   1     -48.646  12.139  23.095  0.00  0.00     0.000 A 
ATOM     10  C   UNL d   1     -48.343  11.984  22.345  0.00  0.00     0.000 A 
ATOM     11  C   UNL d   1     -47.509  12.023  22.195  0.00  0.00     0.000 A 
BRANCH   9  12
ATOM     12  C   UNL d   1     -49.454  12.095  23.214  0.00  0.00     0.000 A 
ATOM     13  C   UNL d   1     -49.930  12.716  22.960  0.00  0.00     0.000 A 
ATOM     14  C   UNL d   1     -50.744  12.676  23.078  0.00  0.00     0.000 A 
ATOM     15  C   UNL d   1     -51.065  12.034  23.439  0.00  0.00     0.000 A 
ATOM     16  C   UNL d   1     -50.587  11.404  23.698  0.00  0.00     0.000 A 
ATOM     17  C   UNL d   1     -49.769  11.448  23.577  0.00  0.00     0.000 A 
ENDBRANCH   9  12
ENDBRANCH   3   6
BRANCH   1  18
ATOM     18  C   UNL d   1     -46.336  13.616  22.105  0.00  0.00     0.302 C 
ATOM     19  O   UNL d   1     -46.727  13.581  21.364  0.00  0.00    -0.259 OA
BRANCH  18  20
ATOM     20  O   UNL d   1     -46.358  14.302  22.568  0.00  0.00    -0.271 OA
BRANCH  20  21
ATOM     21  C   UNL d   1     -46.661  15.032  22.232  0.00  0.00     0.126 C 
ATOM     22  C   UNL d   1     -47.113  15.514  22.693  0.00  0.00     0.029 C 
ENDBRANCH  20  21
ENDBRANCH  18  20
ENDBRANCH   1  18
BRANCH   2  23
ATOM     23  N   UNL d   1     -44.461  13.310  22.026  0.00  0.00    -0.201 NA
ATOM     24  C   UNL d   1     -43.751  12.983  21.773  0.00  0.00     0.281 C 
ATOM     25  O   UNL d   1     -43.613  12.136  21.832  0.00  0.00    -0.265 OA
BRANCH  24  26
ATOM     26  C   UNL d   1     -43.146  13.458  21.454  0.00  0.00     0.082 C 
BRANCH  26  27
ATOM     27  C   UNL d   1     -42.420  13.115  21.213  0.00  0.00     0.085 C 
BRANCH  27  28
ATOM     28  N   UNL d   1     -41.785  13.581  20.973  0.00  0.00    -0.299 N 
ATOM     29  C   UNL d   1     -41.807  13.979  20.222  0.00  0.00     0.107 A 
ATOM     30  C   UNL d   1     -41.167  14.445  19.988  0.00  0.00     0.142 A 
ATOM     31  O   UNL d   1     -40.520  14.516  20.484  0.00  0.00    -0.300 OA
ATOM     32  C   UNL d   1     -40.455  14.133  21.251  0.00  0.00     0.142 A 
ATOM     33  C   UNL d   1     -41.098  13.668  21.479  0.00  0.00     0.107 A 
ENDBRANCH  27  28
ENDBRANCH  26  27
ENDBRANCH  24  26
ENDBRANCH   2  23
TORSDOF 9
ENDMDL
MODEL 4
REMARK VINA RESULT:       1.5      1.552      6.663
REMARK  9 active torsions:
REMARK  status: ('A' for Active; 'I' for Inactive)
REMARK    1  A    between atoms: C_7  and  C_1 
REMARK    2  A    between atoms: N_6  and  C_2 
REMARK    3  A    between atoms: C_9  and  C_3 
REMARK       I    between atoms: C_8  and  N_6 
REMARK    4  A    between atoms: O_22  and  C_7 
REMARK    5  A    between atoms: C_11  and  C_8 
REMARK    6  A    between atoms: N_10  and  C_15 
REMARK    7  A    between atoms: C_15  and  C_11 
REMARK    8  A    between atoms: C_21  and  C_12 
REMARK    9  A    between atoms: C_29  and  O_22 
ROOT
ATOM      1  C   UNL d   1     -43.717  13.071  21.700  0.00  0.00     0.088 A 
ATOM      2  C   UNL d   1     -44.524  13.233  21.885  0.00  0.00     0.119 A 
ATOM      3  C   UNL d   1     -43.376  13.776  21.491  0.00  0.00     0.014 A 
ATOM      4  S   UNL d   1     -44.677  13.996  21.797  0.00  0.00    -0.067 SA
ATOM      5  C   UNL d   1     -43.951  14.362  21.543  0.00  0.00     0.037 A 
ENDROOT
BRANCH   3   6
ATOM      6  C   UNL d   1     -42.604  13.804  21.283  0.00  0.00     0.001 A 
ATOM      7  C   UNL d   1     -42.022  13.951  21.816  0.00  0.00     0.000 A 
ATOM      8  C   UNL d   1     -41.212  13.978  21.582  0.00  0.00     0.000 A 
ATOM      9  C   UNL d   1     -41.019  13.859  20.844  0.00  0.00     0.000 A 
ATOM     10  C   UNL d   1     -41.584  13.705  20.266  0.00  0.00     0.000 A 
ATOM     11  C   UNL d   1     -42.410  13.670  20.461  0.00  0.00     0.000 A 
BRANCH   9  12
ATOM     12  C   UNL d   1     -40.230  13.887  20.630  0.00  0.00     0.000 A 
ATOM     13  C   UNL d   1     -40.032  14.057  19.850  0.00  0.00     0.000 A 
ATOM     14  C   UNL d   1     -39.238  14.087  19.631  0.00  0.00     0.000 A 
ATOM     15  C   UNL d   1     -38.667  13.950  20.180  0.00  0.00     0.000 A 
ATOM     16  C   UNL d   1     -38.862  13.778  20.969  0.00  0.00     0.000 A 
ATOM     17  C   UNL d   1     -39.661  13.750  21.185  0.00  0.00     0.000 A 
ENDBRANCH   9  12
ENDBRANCH   3   6
BRANCH   1  18
ATOM     18  C   UNL d   1     -43.321  12.301  21.726  0.00  0.00     0.302 C 
ATOM     19  O   UNL d   1     -43.122  11.917  21.007  0.00  0.00    -0.259 OA
BRANCH  18  20
ATOM     20  O   UNL d   1     -43.145  11.958  22.458  0.00  0.00    -0.271 OA
BRANCH  20  21
ATOM     21  C   UNL d   1     -43.056  11.105  22.517  0.00  0.00     0.126 C 
ATOM     22  C   UNL d   1     -43.004  10.770  23.248  0.00  0.00     0.029 C 
ENDBRANCH  20  21
ENDBRANCH  18  20
ENDBRANCH   1  18
BRANCH   2  23
ATOM     23  N   UNL d   1     -45.138  12.681  22.140  0.00  0.00    -0.201 NA
ATOM     24  C   UNL d   1     -45.824  12.975  22.483  0.00  0.00     0.281 C 
ATOM     25  O   UNL d   1     -45.934  13.821  22.589  0.00  0.00    -0.265 OA
BRANCH  24  26
ATOM     26  C   UNL d   1     -46.432  12.466  22.738  0.00  0.00     0.082 C 
BRANCH  26  27
ATOM     27  C   UNL d   1     -47.191  12.770  22.919  0.00  0.00     0.085 C 
BRANCH  27  28
ATOM     28  N   UNL d   1     -47.848  12.276  22.977  0.00  0.00    -0.299 N 
ATOM     29  C   UNL d   1     -47.932  11.755  23.644  0.00  0.00     0.107 A 
ATOM     30  C   UNL d   1     -48.592  11.262  23.697  0.00  0.00     0.142 A 
ATOM     31  O   UNL d   1     -49.156  11.282  23.104  0.00  0.00    -0.300 OA
ATOM     32  C   UNL d   1     -49.112  11.792  22.413  0.00  0.00     0.142 A 
ATOM     33  C   UNL d   1     -48.450  12.283  22.367  0.00  0.00     0.107 A 
ENDBRANCH  27  28
ENDBRANCH  26  27
ENDBRANCH  24  26
ENDBRANCH   2  23
TORSDOF 9
ENDMDL
