MODEL 1
REMARK VINA RESULT:      -5.5      0.000      0.000
REMARK  2 active torsions:
REMARK  status: ('A' for Active; 'I' for Inactive)
REMARK    1  A    between atoms: C_4  and  C_3 
REMARK    2  A    between atoms: S_11  and  C_6 
ROOT
ATOM      1  N   UNL d   1     -41.818-122.050 -53.108  0.00  0.00    -0.146 NA
ATOM      2  N   UNL d   1     -41.640-122.318 -52.346  0.00  0.00    -0.142 NA
ATOM      3  C   UNL d   1     -41.655-122.528 -53.758  0.00  0.00     0.126 A 
ATOM      4  C   UNL d   1     -41.300-123.062 -52.239  0.00  0.00     0.128 A 
ATOM      5  C   UNL d   1     -41.315-123.272 -53.650  0.00  0.00     0.025 A 
ATOM      6  C   UNL d   1     -41.138-123.538 -52.892  0.00  0.00     0.029 A 
ENDROOT
BRANCH   3   7
ATOM      7  C   UNL d   1     -41.828-122.270 -54.516  0.00  0.00     0.119 A 
ATOM      8  O   UNL d   1     -41.287-121.965 -55.056  0.00  0.00    -0.304 OA
ATOM      9  C   UNL d   1     -41.687-121.771 -55.754  0.00  0.00     0.123 A 
ATOM     10  C   UNL d   1     -42.489-121.958 -55.643  0.00  0.00     0.029 A 
ATOM     11  C   UNL d   1     -42.572-122.265 -54.878  0.00  0.00     0.028 A 
ENDBRANCH   3   7
BRANCH   4  12
ATOM     12  S   UNL d   1     -41.123-123.330 -51.477  0.00  0.00    -0.092 SA
ATOM     13  C   UNL d   1     -41.319-122.870 -50.821  0.00  0.00     0.076 C 
ENDBRANCH   4  12
TORSDOF 2
ENDMDL
MODEL 2
REMARK VINA RESULT:      -5.4      0.899      1.109
REMARK  2 active torsions:
REMARK  status: ('A' for Active; 'I' for Inactive)
REMARK    1  A    between atoms: C_4  and  C_3 
REMARK    2  A    between atoms: S_11  and  C_6 
ROOT
ATOM      1  N   UNL d   1     -41.733-123.491 -52.997  0.00  0.00    -0.146 NA
ATOM      2  N   UNL d   1     -41.581-123.746 -52.226  0.00  0.00    -0.142 NA
ATOM      3  C   UNL d   1     -41.580-122.711 -53.208  0.00  0.00     0.126 A 
ATOM      4  C   UNL d   1     -41.275-123.219 -51.669  0.00  0.00     0.128 A 
ATOM      5  C   UNL d   1     -41.274-122.184 -52.652  0.00  0.00     0.025 A 
ATOM      6  C   UNL d   1     -41.123-122.438 -51.884  0.00  0.00     0.029 A 
ENDROOT
BRANCH   3   7
ATOM      7  C   UNL d   1     -41.728-122.451 -53.970  0.00  0.00     0.119 A 
ATOM      8  O   UNL d   1     -42.261-121.861 -54.182  0.00  0.00    -0.304 OA
ATOM      9  C   UNL d   1     -42.243-121.768 -55.005  0.00  0.00     0.123 A 
ATOM     10  C   UNL d   1     -41.689-122.310 -55.306  0.00  0.00     0.029 A 
ATOM     11  C   UNL d   1     -41.374-122.729 -54.665  0.00  0.00     0.028 A 
ENDBRANCH   3   7
BRANCH   4  12
ATOM     12  S   UNL d   1     -41.123-123.474 -50.897  0.00  0.00    -0.092 SA
ATOM     13  C   UNL d   1     -41.742-123.552 -50.358  0.00  0.00     0.076 C 
ENDBRANCH   4  12
TORSDOF 2
ENDMDL
MODEL 3
REMARK VINA RESULT:      -5.3      1.618      3.262
REMARK  2 active torsions:
REMARK  status: ('A' for Active; 'I' for Inactive)
REMARK    1  A    between atoms: C_4  and  C_3 
REMARK    2  A    between atoms: S_11  and  C_6 
ROOT
ATOM      1  N   UNL d   1     -42.014-121.940 -53.159  0.00  0.00    -0.146 NA
ATOM      2  N   UNL d   1     -42.132-121.830 -53.970  0.00  0.00    -0.142 NA
ATOM      3  C   UNL d   1     -41.510-122.534 -52.895  0.00  0.00     0.126 A 
ATOM      4  C   UNL d   1     -41.744-122.316 -54.513  0.00  0.00     0.128 A 
ATOM      5  C   UNL d   1     -41.123-123.020 -53.438  0.00  0.00     0.025 A 
ATOM      6  C   UNL d   1     -41.240-122.911 -54.245  0.00  0.00     0.029 A 
ENDROOT
BRANCH   3   7
ATOM      7  C   UNL d   1     -41.389-122.649 -52.093  0.00  0.00     0.119 A 
ATOM      8  O   UNL d   1     -41.445-123.368 -51.696  0.00  0.00    -0.304 OA
ATOM      9  C   UNL d   1     -41.282-123.242 -50.894  0.00  0.00     0.123 A 
ATOM     10  C   UNL d   1     -41.123-122.433 -50.794  0.00  0.00     0.029 A 
ATOM     11  C   UNL d   1     -41.190-122.070 -51.536  0.00  0.00     0.028 A 
ENDBRANCH   3   7
BRANCH   4  12
ATOM     12  S   UNL d   1     -41.862-122.206 -55.324  0.00  0.00    -0.092 SA
ATOM     13  C   UNL d   1     -42.592-121.942 -55.604  0.00  0.00     0.076 C 
ENDBRANCH   4  12
TORSDOF 2
ENDMDL
MODEL 4
REMARK VINA RESULT:      -4.5      2.004      3.904
REMARK  2 active torsions:
REMARK  status: ('A' for Active; 'I' for Inactive)
REMARK    1  A    between atoms: C_4  and  C_3 
REMARK    2  A    between atoms: S_11  and  C_6 
ROOT
ATOM      1  N   UNL d   1     -41.798-123.563 -51.689  0.00  0.00    -0.146 NA
ATOM      2  N   UNL d   1     -41.597-123.519 -52.490  0.00  0.00    -0.142 NA
ATOM      3  C   UNL d   1     -41.722-122.897 -51.211  0.00  0.00     0.126 A 
ATOM      4  C   UNL d   1     -41.323-122.809 -52.808  0.00  0.00     0.128 A 
ATOM      5  C   UNL d   1     -41.448-122.188 -51.529  0.00  0.00     0.025 A 
ATOM      6  C   UNL d   1     -41.249-122.144 -52.326  0.00  0.00     0.029 A 
ENDROOT
BRANCH   3   7
ATOM      7  C   UNL d   1     -41.919-122.934 -50.416  0.00  0.00     0.119 A 
ATOM      8  O   UNL d   1     -42.667-122.801 -50.099  0.00  0.00    -0.304 OA
ATOM      9  C   UNL d   1     -42.627-122.892 -49.277  0.00  0.00     0.123 A 
ATOM     10  C   UNL d   1     -41.842-123.084 -49.083  0.00  0.00     0.029 A 
ATOM     11  C   UNL d   1     -41.408-123.109 -49.788  0.00  0.00     0.028 A 
ENDBRANCH   3   7
BRANCH   4  12
ATOM     12  S   UNL d   1     -41.123-122.764 -53.609  0.00  0.00    -0.092 SA
ATOM     13  C   UNL d   1     -41.481-123.271 -54.153  0.00  0.00     0.076 C 
ENDBRANCH   4  12
TORSDOF 2
ENDMDL
MODEL 5
REMARK VINA RESULT:      -4.4      1.250      1.727
REMARK  2 active torsions:
REMARK  status: ('A' for Active; 'I' for Inactive)
REMARK    1  A    between atoms: C_4  and  C_3 
REMARK    2  A    between atoms: S_11  and  C_6 
ROOT
ATOM      1  N   UNL d   1     -41.845-122.465 -52.068  0.00  0.00    -0.146 NA
ATOM      2  N   UNL d   1     -41.914-122.427 -51.244  0.00  0.00    -0.142 NA
ATOM      3  C   UNL d   1     -41.451-123.098 -52.416  0.00  0.00     0.126 A 
ATOM      4  C   UNL d   1     -41.589-123.021 -50.774  0.00  0.00     0.128 A 
ATOM      5  C   UNL d   1     -41.126-123.693 -51.945  0.00  0.00     0.025 A 
ATOM      6  C   UNL d   1     -41.194-123.654 -51.126  0.00  0.00     0.029 A 
ENDROOT
BRANCH   3   7
ATOM      7  C   UNL d   1     -41.379-123.144 -53.230  0.00  0.00     0.119 A 
ATOM      8  O   UNL d   1     -41.516-123.813 -53.689  0.00  0.00    -0.304 OA
ATOM      9  C   UNL d   1     -41.381-123.624 -54.484  0.00  0.00     0.123 A 
ATOM     10  C   UNL d   1     -41.157-122.824 -54.516  0.00  0.00     0.029 A 
ATOM     11  C   UNL d   1     -41.156-122.532 -53.742  0.00  0.00     0.028 A 
ENDBRANCH   3   7
BRANCH   4  12
ATOM     12  S   UNL d   1     -41.658-122.982 -49.951  0.00  0.00    -0.092 SA
ATOM     13  C   UNL d   1     -42.375-122.764 -49.606  0.00  0.00     0.076 C 
ENDBRANCH   4  12
TORSDOF 2
ENDMDL
MODEL 6
REMARK VINA RESULT:      -3.3      2.974      5.136
REMARK  2 active torsions:
REMARK  status: ('A' for Active; 'I' for Inactive)
REMARK    1  A    between atoms: C_4  and  C_3 
REMARK    2  A    between atoms: S_11  and  C_6 
ROOT
ATOM      1  N   UNL d   1     -42.454-122.399 -49.751  0.00  0.00    -0.146 NA
ATOM      2  N   UNL d   1     -42.217-122.219 -50.523  0.00  0.00    -0.142 NA
ATOM      3  C   UNL d   1     -42.097-123.022 -49.349  0.00  0.00     0.126 A 
ATOM      4  C   UNL d   1     -41.625-122.664 -50.887  0.00  0.00     0.128 A 
ATOM      5  C   UNL d   1     -41.506-123.466 -49.713  0.00  0.00     0.025 A 
ATOM      6  C   UNL d   1     -41.270-123.287 -50.481  0.00  0.00     0.029 A 
ENDROOT
BRANCH   3   7
ATOM      7  C   UNL d   1     -42.327-123.206 -48.584  0.00  0.00     0.119 A 
ATOM      8  O   UNL d   1     -42.847-123.806 -48.369  0.00  0.00    -0.304 OA
ATOM      9  C   UNL d   1     -42.929-123.806 -47.545  0.00  0.00     0.123 A 
ATOM     10  C   UNL d   1     -42.451-123.195 -47.246  0.00  0.00     0.029 A 
ATOM     11  C   UNL d   1     -42.081-122.828 -47.890  0.00  0.00     0.028 A 
ENDBRANCH   3   7
BRANCH   4  12
ATOM     12  S   UNL d   1     -41.388-122.484 -51.659  0.00  0.00    -0.092 SA
ATOM     13  C   UNL d   1     -41.142-123.086 -52.166  0.00  0.00     0.076 C 
ENDBRANCH   4  12
TORSDOF 2
ENDMDL
