MODEL 1
REMARK VINA RESULT:      45.2      0.000      0.000
REMARK  7 active torsions:
REMARK  status: ('A' for Active; 'I' for Inactive)
REMARK    1  A    between atoms: N_2  and  C_1 
REMARK    2  A    between atoms: C_5  and  C_1 
REMARK    3  A    between atoms: O_4  and  N_2 
REMARK    4  A    between atoms: C_3  and  O_4 
REMARK    5  A    between atoms: C_6  and  C_3 
REMARK    6  A    between atoms: C_17  and  C_14 
REMARK    7  A    between atoms: C_18  and  C_17 
ROOT
ATOM      1  C   UNL d   1     -48.742  28.228  34.972  0.00  0.00     0.319 C 
ATOM      2  O   UNL d   1     -48.783  27.692  35.603  0.00  0.00    -0.257 OA
ENDROOT
BRANCH   1   3
ATOM      3  O   UNL d   1     -49.127  28.062  34.264  0.00  0.00    -0.168 OA
BRANCH   3   4
ATOM      4  N   UNL d   1     -49.435  27.309  34.127  0.00  0.00    -0.100 NA
BRANCH   4   5
ATOM      5  C   UNL d   1     -50.143  27.223  33.714  0.00  0.00     0.228 C 
ATOM      6  N   UNL d   1     -50.540  27.888  33.437  0.00  0.00    -0.123 N 
BRANCH   5   7
ATOM      7  C   UNL d   1     -50.452  26.470  33.578  0.00  0.00     0.121 A 
ATOM      8  N   UNL d   1     -49.941  25.817  33.527  0.00  0.00    -0.241 NA
ATOM      9  C   UNL d   1     -50.254  25.057  33.390  0.00  0.00     0.099 A 
ATOM     10  C   UNL d   1     -51.074  24.958  33.306  0.00  0.00     0.021 A 
ATOM     11  C   UNL d   1     -51.577  25.607  33.358  0.00  0.00     0.003 A 
ATOM     12  C   UNL d   1     -51.267  26.359  33.493  0.00  0.00     0.022 A 
ENDBRANCH   5   7
ENDBRANCH   4   5
ENDBRANCH   3   4
ENDBRANCH   1   3
BRANCH   1  13
ATOM     13  C   UNL d   1     -48.313  28.934  35.057  0.00  0.00     0.065 A 
ATOM     14  C   UNL d   1     -48.199  29.419  34.399  0.00  0.00     0.005 A 
ATOM     15  C   UNL d   1     -47.774  30.118  34.480  0.00  0.00     0.000 A 
ATOM     16  C   UNL d   1     -47.462  30.335  35.218  0.00  0.00     0.000 A 
ATOM     17  C   UNL d   1     -47.580  29.845  35.872  0.00  0.00     0.000 A 
ATOM     18  C   UNL d   1     -48.010  29.139  35.787  0.00  0.00     0.005 A 
BRANCH  16  19
ATOM     19  C   UNL d   1     -47.036  31.039  35.293  0.00  0.00     0.000 C 
BRANCH  19  20
ATOM     20  C   UNL d   1     -47.436  31.758  35.362  0.00  0.00     0.000 C 
ATOM     21  C   UNL d   1     -47.240  32.395  34.879  0.00  0.00     0.000 C 
ENDBRANCH  19  20
ENDBRANCH  16  19
ENDBRANCH   1  13
TORSDOF 7
ENDMDL
