MODEL 1
REMARK VINA RESULT:      11.7      0.000      0.000
REMARK  1 active torsions:
REMARK  status: ('A' for Active; 'I' for Inactive)
REMARK       I    between atoms: N_2  and  C_1 
REMARK       I    between atoms: N_4  and  C_1 
REMARK    1  A    between atoms: C_5  and  N_2 
ROOT
ATOM      1  N   UNL d   1      14.895  12.698  -2.221  0.00  0.00    -0.242 NA
ATOM      2  C   UNL d   1      13.816  12.010  -2.911  0.00  0.00     0.105 A 
ATOM      3  C   UNL d   1      13.857  12.003  -1.467  0.00  0.00     0.019 A 
ATOM      4  C   UNL d   1      14.558  12.464  -1.488  0.00  0.00     0.082 A 
ATOM      5  C   UNL d   1      13.489  11.780  -2.185  0.00  0.00     0.022 A 
ATOM      6  C   UNL d   1      14.522  12.467  -2.927  0.00  0.00     0.118 A 
ATOM      7  C   UNL d   1      13.528  11.781  -0.738  0.00  0.00     0.002 A 
ATOM      8  C   UNL d   1      14.927  12.690  -0.782  0.00  0.00     0.019 A 
ATOM      9  C   UNL d   1      13.902  12.010  -0.025  0.00  0.00     0.000 A 
ATOM     10  C   UNL d   1      14.597  12.460  -0.043  0.00  0.00     0.002 A 
ENDROOT
BRANCH   2  11
ATOM     11  N   UNL d   1      13.457  11.780  -3.621  0.00  0.00    -0.191 NA
ATOM     12  C   UNL d   1      13.141  12.348  -4.136  0.00  0.00     0.354 C 
ATOM     13  N   UNL d   1      13.190  13.160  -3.945  0.00  0.00    -0.253 N 
ATOM     14  O   UNL d   1      12.769  12.114  -4.853  0.00  0.00    -0.244 OA
ATOM     15  C   UNL d   1      13.548  13.393  -3.230  0.00  0.00     0.104 C 
ATOM     16  C   UNL d   1      12.865  13.727  -4.461  0.00  0.00     0.104 C 
ENDBRANCH   2  11
TORSDOF 1
ENDMDL
