MODEL 1
REMARK VINA RESULT:      -8.7      0.000      0.000
REMARK  3 active torsions:
REMARK  status: ('A' for Active; 'I' for Inactive)
REMARK    1  A    between atoms: C_16  and  N_3 
REMARK    2  A    between atoms: C_10  and  C_5 
REMARK    3  A    between atoms: C_26  and  C_16 
ROOT
ATOM      1  C   UNL d   1     -47.778  13.785  22.865  0.00  0.00     0.083 A 
ATOM      2  C   UNL d   1     -47.373  14.499  22.798  0.00  0.00     0.161 A 
ATOM      3  N   UNL d   1     -46.471  13.514  22.720  0.00  0.00    -0.268 N 
ATOM      4  C   UNL d   1     -46.563  14.336  22.709  0.00  0.00     0.288 A 
ATOM      5  C   UNL d   1     -47.223  13.172  22.817  0.00  0.00     0.072 A 
ATOM      6  C   UNL d   1     -48.596  13.776  22.960  0.00  0.00     0.201 A 
ATOM      7  O   UNL d   1     -47.794  15.215  22.828  0.00  0.00    -0.302 OA
ATOM      8  C   UNL d   1     -49.011  14.489  22.989  0.00  0.00     0.062 A 
ATOM      9  C   UNL d   1     -48.609  15.205  22.923  0.00  0.00     0.103 A 
ATOM     10  O   UNL d   1     -45.964  14.887  22.624  0.00  0.00    -0.264 OA
ATOM     11  O   UNL d   1     -49.002  13.063  23.026  0.00  0.00    -0.286 OA
ATOM     12  C   UNL d   1     -49.833  14.483  23.084  0.00  0.00     0.012 A 
ATOM     13  C   UNL d   1     -49.036  15.920  22.953  0.00  0.00     0.025 A 
ATOM     14  C   UNL d   1     -50.252  15.189  23.114  0.00  0.00     0.035 A 
ATOM     15  C   UNL d   1     -49.852  15.910  23.048  0.00  0.00     0.009 A 
ATOM     16 BR   UNL d   1     -51.064  15.182  23.208  0.00  0.00    -0.049 Br
ENDROOT
BRANCH   5  17
ATOM     17  C   UNL d   1     -47.624  12.457  22.882  0.00  0.00     0.019 A 
ATOM     18  C   UNL d   1     -47.944  12.091  22.213  0.00  0.00     0.031 A 
ATOM     19  C   UNL d   1     -48.345  11.377  22.283  0.00  0.00     0.140 A 
ATOM     20  F   UNL d   1     -48.661  11.018  21.613  0.00  0.00    -0.204 F 
ATOM     21  C   UNL d   1     -48.431  11.015  23.028  0.00  0.00     0.030 A 
ATOM     22  C   UNL d   1     -48.110  11.381  23.698  0.00  0.00     0.002 A 
ATOM     23  C   UNL d   1     -47.707  12.103  23.623  0.00  0.00     0.002 A 
ENDBRANCH   5  17
BRANCH   3  24
ATOM     24  C   UNL d   1     -45.760  13.104  22.649  0.00  0.00     0.129 C 
BRANCH  24  25
ATOM     25  C   UNL d   1     -45.221  13.319  22.066  0.00  0.00     0.253 C 
ATOM     26  O   UNL d   1     -44.636  12.791  21.831  0.00  0.00    -0.281 OA
ENDBRANCH  24  25
ENDBRANCH   3  24
TORSDOF 3
ENDMDL
MODEL 2
REMARK VINA RESULT:      -8.5      1.952      3.426
REMARK  3 active torsions:
REMARK  status: ('A' for Active; 'I' for Inactive)
REMARK    1  A    between atoms: C_16  and  N_3 
REMARK    2  A    between atoms: C_10  and  C_5 
REMARK    3  A    between atoms: C_26  and  C_16 
ROOT
ATOM      1  C   UNL d   1     -48.115  13.370  22.868  0.00  0.00     0.083 A 
ATOM      2  C   UNL d   1     -47.572  13.982  22.775  0.00  0.00     0.161 A 
ATOM      3  N   UNL d   1     -48.793  14.492  22.575  0.00  0.00    -0.268 N 
ATOM      4  C   UNL d   1     -47.987  14.679  22.594  0.00  0.00     0.288 A 
ATOM      5  C   UNL d   1     -48.873  13.682  22.745  0.00  0.00     0.072 A 
ATOM      6  C   UNL d   1     -47.859  12.609  23.052  0.00  0.00     0.201 A 
ATOM      7  O   UNL d   1     -46.760  13.829  22.867  0.00  0.00    -0.302 OA
ATOM      8  C   UNL d   1     -47.053  12.461  23.142  0.00  0.00     0.062 A 
ATOM      9  C   UNL d   1     -46.507  13.070  23.050  0.00  0.00     0.103 A 
ATOM     10  O   UNL d   1     -47.660  15.417  22.458  0.00  0.00    -0.264 OA
ATOM     11  O   UNL d   1     -48.402  11.997  23.145  0.00  0.00    -0.286 OA
ATOM     12  C   UNL d   1     -46.793  11.696  23.327  0.00  0.00     0.012 A 
ATOM     13  C   UNL d   1     -45.694  12.911  23.144  0.00  0.00     0.025 A 
ATOM     14  C   UNL d   1     -45.992  11.542  23.419  0.00  0.00     0.035 A 
ATOM     15  C   UNL d   1     -45.440  12.152  23.327  0.00  0.00     0.009 A 
ATOM     16 BR   UNL d   1     -45.737  10.786  23.601  0.00  0.00    -0.049 Br
ENDROOT
BRANCH   5  17
ATOM     17  C   UNL d   1     -49.419  13.073  22.837  0.00  0.00     0.019 A 
ATOM     18  C   UNL d   1     -49.745  12.698  22.177  0.00  0.00     0.031 A 
ATOM     19  C   UNL d   1     -50.290  12.090  22.273  0.00  0.00     0.140 A 
ATOM     20  F   UNL d   1     -50.612  11.721  21.611  0.00  0.00    -0.204 F 
ATOM     21  C   UNL d   1     -50.518  11.847  23.036  0.00  0.00     0.030 A 
ATOM     22  C   UNL d   1     -50.191  12.223  23.697  0.00  0.00     0.002 A 
ATOM     23  C   UNL d   1     -49.640  12.837  23.595  0.00  0.00     0.002 A 
ENDBRANCH   5  17
BRANCH   3  24
ATOM     24  C   UNL d   1     -49.409  15.015  22.417  0.00  0.00     0.129 C 
BRANCH  24  25
ATOM     25  C   UNL d   1     -49.600  15.600  22.964  0.00  0.00     0.253 C 
ATOM     26  O   UNL d   1     -50.356  15.922  22.976  0.00  0.00    -0.281 OA
ENDBRANCH  24  25
ENDBRANCH   3  24
TORSDOF 3
ENDMDL
MODEL 3
REMARK VINA RESULT:      -8.0      1.759      2.881
REMARK  3 active torsions:
REMARK  status: ('A' for Active; 'I' for Inactive)
REMARK    1  A    between atoms: C_16  and  N_3 
REMARK    2  A    between atoms: C_10  and  C_5 
REMARK    3  A    between atoms: C_26  and  C_16 
ROOT
ATOM      1  C   UNL d   1     -47.774  12.418  22.910  0.00  0.00     0.083 A 
ATOM      2  C   UNL d   1     -48.168  11.722  23.106  0.00  0.00     0.161 A 
ATOM      3  N   UNL d   1     -46.879  11.560  23.427  0.00  0.00    -0.268 N 
ATOM      4  C   UNL d   1     -47.619  11.188  23.426  0.00  0.00     0.288 A 
ATOM      5  C   UNL d   1     -46.975  12.322  23.108  0.00  0.00     0.072 A 
ATOM      6  C   UNL d   1     -48.184  13.051  22.578  0.00  0.00     0.201 A 
ATOM      7  O   UNL d   1     -48.986  11.659  22.967  0.00  0.00    -0.302 OA
ATOM      8  C   UNL d   1     -48.995  12.985  22.442  0.00  0.00     0.062 A 
ATOM      9  C   UNL d   1     -49.393  12.291  22.637  0.00  0.00     0.103 A 
ATOM     10  O   UNL d   1     -47.777  10.430  23.694  0.00  0.00    -0.264 OA
ATOM     11  O   UNL d   1     -47.791  13.747  22.382  0.00  0.00    -0.286 OA
ATOM     12  C   UNL d   1     -49.409  13.620  22.109  0.00  0.00     0.012 A 
ATOM     13  C   UNL d   1     -50.212  12.232  22.496  0.00  0.00     0.025 A 
ATOM     14  C   UNL d   1     -50.216  13.560  21.971  0.00  0.00     0.035 A 
ATOM     15  C   UNL d   1     -50.619  12.864  22.165  0.00  0.00     0.009 A 
ATOM     16 BR   UNL d   1     -50.625  14.188  21.641  0.00  0.00    -0.049 Br
ENDROOT
BRANCH   5  17
ATOM     17  C   UNL d   1     -46.578  13.016  22.913  0.00  0.00     0.019 A 
ATOM     18  C   UNL d   1     -46.059  13.037  22.269  0.00  0.00     0.031 A 
ATOM     19  C   UNL d   1     -45.664  13.732  22.078  0.00  0.00     0.140 A 
ATOM     20  F   UNL d   1     -45.150  13.747  21.436  0.00  0.00    -0.204 F 
ATOM     21  C   UNL d   1     -45.783  14.420  22.531  0.00  0.00     0.030 A 
ATOM     22  C   UNL d   1     -46.302  14.399  23.176  0.00  0.00     0.002 A 
ATOM     23  C   UNL d   1     -46.699  13.694  23.366  0.00  0.00     0.002 A 
ENDBRANCH   5  17
BRANCH   3  24
ATOM     24  C   UNL d   1     -46.173  11.236  23.697  0.00  0.00     0.129 C 
BRANCH  24  25
ATOM     25  C   UNL d   1     -45.987  10.454  23.519  0.00  0.00     0.253 C 
ATOM     26  O   UNL d   1     -45.242  10.156  23.698  0.00  0.00    -0.281 OA
ENDBRANCH  24  25
ENDBRANCH   3  24
TORSDOF 3
ENDMDL
MODEL 4
REMARK VINA RESULT:      -7.6      2.134      4.115
REMARK  3 active torsions:
REMARK  status: ('A' for Active; 'I' for Inactive)
REMARK    1  A    between atoms: C_16  and  N_3 
REMARK    2  A    between atoms: C_10  and  C_5 
REMARK    3  A    between atoms: C_26  and  C_16 
ROOT
ATOM      1  C   UNL d   1     -47.921  12.883  22.895  0.00  0.00     0.083 A 
ATOM      2  C   UNL d   1     -47.773  12.111  23.139  0.00  0.00     0.161 A 
ATOM      3  N   UNL d   1     -49.076  12.350  23.326  0.00  0.00    -0.268 N 
ATOM      4  C   UNL d   1     -48.485  11.776  23.407  0.00  0.00     0.288 A 
ATOM      5  C   UNL d   1     -48.727  13.035  23.009  0.00  0.00     0.072 A 
ATOM      6  C   UNL d   1     -47.311  13.352  22.601  0.00  0.00     0.201 A 
ATOM      7  O   UNL d   1     -47.002  11.803  23.088  0.00  0.00    -0.302 OA
ATOM      8  C   UNL d   1     -46.547  13.044  22.551  0.00  0.00     0.062 A 
ATOM      9  C   UNL d   1     -46.395  12.273  22.794  0.00  0.00     0.103 A 
ATOM     10  O   UNL d   1     -48.586  11.018  23.698  0.00  0.00    -0.264 OA
ATOM     11  O   UNL d   1     -47.459  14.124  22.357  0.00  0.00    -0.286 OA
ATOM     12  C   UNL d   1     -45.933  13.514  22.256  0.00  0.00     0.012 A 
ATOM     13  C   UNL d   1     -45.621  11.970  22.741  0.00  0.00     0.025 A 
ATOM     14  C   UNL d   1     -45.171  13.214  22.204  0.00  0.00     0.035 A 
ATOM     15  C   UNL d   1     -45.014  12.439  22.447  0.00  0.00     0.009 A 
ATOM     16 BR   UNL d   1     -44.564  13.679  21.912  0.00  0.00    -0.049 Br
ENDROOT
BRANCH   5  17
ATOM     17  C   UNL d   1     -48.879  13.807  22.766  0.00  0.00     0.019 A 
ATOM     18  C   UNL d   1     -48.933  14.419  23.319  0.00  0.00     0.031 A 
ATOM     19  C   UNL d   1     -49.085  15.188  23.073  0.00  0.00     0.140 A 
ATOM     20  F   UNL d   1     -49.138  15.793  23.628  0.00  0.00    -0.204 F 
ATOM     21  C   UNL d   1     -49.186  15.357  22.264  0.00  0.00     0.030 A 
ATOM     22  C   UNL d   1     -49.133  14.744  21.710  0.00  0.00     0.002 A 
ATOM     23  C   UNL d   1     -48.979  13.968  21.964  0.00  0.00     0.002 A 
ENDBRANCH   5  17
BRANCH   3  24
ATOM     24  C   UNL d   1     -49.870  12.260  23.524  0.00  0.00     0.129 C 
BRANCH  24  25
ATOM     25  C   UNL d   1     -50.283  11.596  23.267  0.00  0.00     0.253 C 
ATOM     26  O   UNL d   1     -51.064  11.483  23.495  0.00  0.00    -0.281 OA
ENDBRANCH  24  25
ENDBRANCH   3  24
TORSDOF 3
ENDMDL
