MODEL 1
REMARK VINA RESULT:      -9.0      0.000      0.000
REMARK  4 active torsions:
REMARK  status: ('A' for Active; 'I' for Inactive)
REMARK    1  A    between atoms: C_5  and  C_2 
REMARK    2  A    between atoms: C_7  and  C_5 
REMARK       I    between atoms: N_9  and  C_7 
REMARK    3  A    between atoms: C_8  and  C_10 
REMARK    4  A    between atoms: C_17  and  N_9 
ROOT
ATOM      1  C   UNL d   1      53.664  31.923  53.535  0.00  0.00     0.280 C 
ATOM      2  N   UNL d   1      54.222  32.499  53.356  0.00  0.00    -0.208 NA
ATOM      3  O   UNL d   1      53.019  32.109  54.012  0.00  0.00    -0.265 OA
ENDROOT
BRANCH   1   4
ATOM      4  C   UNL d   1      53.748  31.154  53.239  0.00  0.00     0.074 C 
BRANCH   4   5
ATOM      5  C   UNL d   1      53.426  30.439  53.473  0.00  0.00     0.097 A 
ATOM      6  C   UNL d   1      52.942  29.952  53.016  0.00  0.00     0.288 A 
ATOM      7  N   UNL d   1      52.744  29.291  53.462  0.00  0.00    -0.163 NA
ATOM      8  O   UNL d   1      52.704  30.111  52.244  0.00  0.00    -0.265 OA
ATOM      9  C   UNL d   1      53.105  29.365  54.201  0.00  0.00     0.313 A 
ATOM     10  S   UNL d   1      53.526  30.072  54.208  0.00  0.00    -0.021 SA
ATOM     11  O   UNL d   1      53.057  28.831  54.821  0.00  0.00    -0.258 OA
ENDBRANCH   4   5
ENDBRANCH   1   4
BRANCH   2  12
ATOM     12  C   UNL d   1      53.960  33.181  53.740  0.00  0.00     0.085 A 
ATOM     13  C   UNL d   1      53.388  33.652  53.395  0.00  0.00     0.019 A 
ATOM     14  C   UNL d   1      53.123  34.335  53.775  0.00  0.00     0.008 A 
ATOM     15  C   UNL d   1      53.440  34.545  54.515  0.00  0.00     0.065 A 
ATOM     16  C   UNL d   1      54.022  34.062  54.864  0.00  0.00     0.008 A 
ATOM     17  C   UNL d   1      54.279  33.385  54.477  0.00  0.00     0.019 A 
BRANCH  15  18
ATOM     18  C   UNL d   1      53.179  35.222  54.897  0.00  0.00     0.211 C 
ATOM     19  O   UNL d   1      53.160  35.249  55.722  0.00  0.00    -0.644 OA
ATOM     20  O   UNL d   1      52.936  35.880  54.461  0.00  0.00    -0.644 OA
ENDBRANCH  15  18
ENDBRANCH   2  12
TORSDOF 4
ENDMDL
MODEL 2
REMARK VINA RESULT:      -8.8      1.604      4.541
REMARK  4 active torsions:
REMARK  status: ('A' for Active; 'I' for Inactive)
REMARK    1  A    between atoms: C_5  and  C_2 
REMARK    2  A    between atoms: C_7  and  C_5 
REMARK       I    between atoms: N_9  and  C_7 
REMARK    3  A    between atoms: C_8  and  C_10 
REMARK    4  A    between atoms: C_17  and  N_9 
ROOT
ATOM      1  C   UNL d   1      52.630  32.531  53.082  0.00  0.00     0.280 C 
ATOM      2  N   UNL d   1      53.043  32.017  52.593  0.00  0.00    -0.208 NA
ATOM      3  O   UNL d   1      52.357  32.271  53.814  0.00  0.00    -0.265 OA
ENDROOT
BRANCH   1   4
ATOM      4  C   UNL d   1      52.486  33.310  52.843  0.00  0.00     0.074 C 
BRANCH   4   5
ATOM      5  C   UNL d   1      52.489  34.019  53.254  0.00  0.00     0.097 A 
ATOM      6  C   UNL d   1      51.906  34.602  53.218  0.00  0.00     0.288 A 
ATOM      7  N   UNL d   1      52.126  35.218  53.715  0.00  0.00    -0.163 NA
ATOM      8  O   UNL d   1      51.223  34.563  52.760  0.00  0.00    -0.265 OA
ATOM      9  C   UNL d   1      52.849  35.021  54.062  0.00  0.00     0.313 A 
ATOM     10  S   UNL d   1      53.073  34.281  53.777  0.00  0.00    -0.021 SA
ATOM     11  O   UNL d   1      53.273  35.476  54.595  0.00  0.00    -0.258 OA
ENDBRANCH   4   5
ENDBRANCH   1   4
BRANCH   2  12
ATOM     12  C   UNL d   1      53.079  31.304  53.007  0.00  0.00     0.085 A 
ATOM     13  C   UNL d   1      53.689  31.166  53.532  0.00  0.00     0.019 A 
ATOM     14  C   UNL d   1      53.729  30.455  53.950  0.00  0.00     0.008 A 
ATOM     15  C   UNL d   1      53.144  29.875  53.835  0.00  0.00     0.065 A 
ATOM     16  C   UNL d   1      52.523  30.020  53.298  0.00  0.00     0.008 A 
ATOM     17  C   UNL d   1      52.493  30.731  52.889  0.00  0.00     0.019 A 
BRANCH  15  18
ATOM     18  C   UNL d   1      53.179  29.167  54.247  0.00  0.00     0.211 C 
ATOM     19  O   UNL d   1      53.235  29.172  55.071  0.00  0.00    -0.644 OA
ATOM     20  O   UNL d   1      53.158  28.448  53.842  0.00  0.00    -0.644 OA
ENDBRANCH  15  18
ENDBRANCH   2  12
TORSDOF 4
ENDMDL
MODEL 3
REMARK VINA RESULT:      -8.4      2.459      3.604
REMARK  4 active torsions:
REMARK  status: ('A' for Active; 'I' for Inactive)
REMARK    1  A    between atoms: C_5  and  C_2 
REMARK    2  A    between atoms: C_7  and  C_5 
REMARK       I    between atoms: N_9  and  C_7 
REMARK    3  A    between atoms: C_8  and  C_10 
REMARK    4  A    between atoms: C_17  and  N_9 
ROOT
ATOM      1  C   UNL d   1      52.758  33.082  53.650  0.00  0.00     0.280 C 
ATOM      2  N   UNL d   1      52.384  32.806  52.973  0.00  0.00    -0.208 NA
ATOM      3  O   UNL d   1      52.439  33.715  54.068  0.00  0.00    -0.265 OA
ENDROOT
BRANCH   1   4
ATOM      4  C   UNL d   1      53.458  32.726  53.915  0.00  0.00     0.074 C 
BRANCH   4   5
ATOM      5  C   UNL d   1      54.133  33.035  54.261  0.00  0.00     0.097 A 
ATOM      6  C   UNL d   1      54.893  33.018  53.940  0.00  0.00     0.288 A 
ATOM      7  N   UNL d   1      55.404  33.388  54.466  0.00  0.00    -0.163 NA
ATOM      8  O   UNL d   1      55.094  32.684  53.215  0.00  0.00    -0.265 OA
ATOM      9  C   UNL d   1      54.962  33.638  55.118  0.00  0.00     0.313 A 
ATOM     10  S   UNL d   1      54.179  33.420  54.991  0.00  0.00    -0.021 SA
ATOM     11  O   UNL d   1      55.248  34.032  55.777  0.00  0.00    -0.258 OA
ENDBRANCH   4   5
ENDBRANCH   1   4
BRANCH   2  12
ATOM     12  C   UNL d   1      51.719  33.286  52.883  0.00  0.00     0.085 A 
ATOM     13  C   UNL d   1      51.047  33.141  53.325  0.00  0.00     0.019 A 
ATOM     14  C   UNL d   1      50.378  33.618  53.238  0.00  0.00     0.008 A 
ATOM     15  C   UNL d   1      50.389  34.250  52.698  0.00  0.00     0.065 A 
ATOM     16  C   UNL d   1      51.076  34.394  52.249  0.00  0.00     0.008 A 
ATOM     17  C   UNL d   1      51.735  33.913  52.343  0.00  0.00     0.019 A 
BRANCH  15  18
ATOM     18  C   UNL d   1      49.728  34.727  52.608  0.00  0.00     0.211 C 
ATOM     19  O   UNL d   1      49.268  34.668  51.925  0.00  0.00    -0.644 OA
ATOM     20  O   UNL d   1      49.520  35.266  53.197  0.00  0.00    -0.644 OA
ENDBRANCH  15  18
ENDBRANCH   2  12
TORSDOF 4
ENDMDL
MODEL 4
REMARK VINA RESULT:      -8.0      2.341      2.835
REMARK  4 active torsions:
REMARK  status: ('A' for Active; 'I' for Inactive)
REMARK    1  A    between atoms: C_5  and  C_2 
REMARK    2  A    between atoms: C_7  and  C_5 
REMARK       I    between atoms: N_9  and  C_7 
REMARK    3  A    between atoms: C_8  and  C_10 
REMARK    4  A    between atoms: C_17  and  N_9 
ROOT
ATOM      1  C   UNL d   1      52.473  32.578  52.882  0.00  0.00     0.280 C 
ATOM      2  N   UNL d   1      52.531  33.366  53.107  0.00  0.00    -0.208 NA
ATOM      3  O   UNL d   1      51.773  32.295  52.553  0.00  0.00    -0.265 OA
ENDROOT
BRANCH   1   4
ATOM      4  C   UNL d   1      53.115  32.066  52.986  0.00  0.00     0.074 C 
BRANCH   4   5
ATOM      5  C   UNL d   1      53.162  31.293  53.253  0.00  0.00     0.097 A 
ATOM      6  C   UNL d   1      53.628  31.024  53.877  0.00  0.00     0.288 A 
ATOM      7  N   UNL d   1      53.510  30.214  53.958  0.00  0.00    -0.163 NA
ATOM      8  O   UNL d   1      54.125  31.493  54.336  0.00  0.00    -0.265 OA
ATOM      9  C   UNL d   1      52.968  29.977  53.382  0.00  0.00     0.313 A 
ATOM     10  S   UNL d   1      52.753  30.642  52.947  0.00  0.00    -0.021 SA
ATOM     11  O   UNL d   1      52.689  29.216  53.260  0.00  0.00    -0.258 OA
ENDBRANCH   4   5
ENDBRANCH   1   4
BRANCH   2  12
ATOM     12  C   UNL d   1      51.798  33.698  52.924  0.00  0.00     0.085 A 
ATOM     13  C   UNL d   1      51.189  33.671  53.467  0.00  0.00     0.019 A 
ATOM     14  C   UNL d   1      50.453  34.001  53.289  0.00  0.00     0.008 A 
ATOM     15  C   UNL d   1      50.332  34.365  52.551  0.00  0.00     0.065 A 
ATOM     16  C   UNL d   1      50.956  34.391  51.999  0.00  0.00     0.008 A 
ATOM     17  C   UNL d   1      51.683  34.059  52.187  0.00  0.00     0.019 A 
BRANCH  15  18
ATOM     18  C   UNL d   1      49.603  34.695  52.369  0.00  0.00     0.211 C 
ATOM     19  O   UNL d   1      49.260  34.553  51.632  0.00  0.00    -0.644 OA
ATOM     20  O   UNL d   1      49.211  35.168  52.920  0.00  0.00    -0.644 OA
ENDBRANCH  15  18
ENDBRANCH   2  12
TORSDOF 4
ENDMDL
