MODEL 1
REMARK VINA RESULT:      -2.4      0.000      0.000
REMARK  4 active torsions:
REMARK  status: ('A' for Active; 'I' for Inactive)
REMARK    1  A    between atoms: C_10  and  N_1 
REMARK       I    between atoms: C_6  and  N_9 
REMARK    2  A    between atoms: C_8  and  C_6 
REMARK    3  A    between atoms: N_9  and  C_12 
REMARK    4  A    between atoms: C_12  and  C_10 
ROOT
ATOM      1  C   UNL d   1      31.330  17.277 -25.091  0.00  0.00     0.101 C 
ENDROOT
BRANCH   1   2
ATOM      2  N   UNL d   1      30.895  16.706 -24.684  0.00  0.00    -0.304 N 
ATOM      3  C   UNL d   1      31.147  15.937 -24.509  0.00  0.00     0.064 A 
ATOM      4  C   UNL d   1      30.544  15.557 -24.099  0.00  0.00     0.019 A 
ATOM      5  C   UNL d   1      31.877  15.610 -24.710  0.00  0.00     0.019 C 
ATOM      6  C   UNL d   1      29.914  16.083 -24.017  0.00  0.00     0.018 A 
ATOM      7  C   UNL d   1      30.128  16.794 -24.377  0.00  0.00     0.064 A 
ATOM      8  C   UNL d   1      29.174  16.018 -23.664  0.00  0.00     0.002 A 
ATOM      9  C   UNL d   1      29.612  17.433 -24.387  0.00  0.00     0.018 A 
ATOM     10  C   UNL d   1      28.872  17.368 -24.035  0.00  0.00     0.002 A 
ATOM     11  C   UNL d   1      28.642  16.656 -23.667  0.00  0.00     0.000 A 
ENDBRANCH   1   2
BRANCH   1  12
ATOM     12  C   UNL d   1      31.883  17.735 -24.687  0.00  0.00     0.121 C 
BRANCH  12  13
ATOM     13  N   UNL d   1      32.325  18.300 -25.096  0.00  0.00    -0.205 NA
ATOM     14  C   UNL d   1      32.800  18.833 -24.686  0.00  0.00     0.279 C 
ATOM     15  O   UNL d   1      33.241  19.398 -25.094  0.00  0.00    -0.265 OA
BRANCH  14  16
ATOM     16  C   UNL d   1      32.833  18.800 -23.858  0.00  0.00     0.058 A 
ATOM     17  C   UNL d   1      32.499  19.392 -23.424  0.00  0.00     0.005 A 
ATOM     18  C   UNL d   1      32.529  19.366 -22.599  0.00  0.00     0.000 A 
ATOM     19  C   UNL d   1      32.895  18.745 -22.207  0.00  0.00     0.000 A 
ATOM     20  C   UNL d   1      33.241  18.132 -22.660  0.00  0.00     0.000 A 
ATOM     21  C   UNL d   1      33.207  18.164 -23.489  0.00  0.00     0.005 A 
ENDBRANCH  14  16
ENDBRANCH  12  13
ENDBRANCH   1  12
TORSDOF 4
ENDMDL
MODEL 2
REMARK VINA RESULT:      -1.8      1.678      3.905
REMARK  4 active torsions:
REMARK  status: ('A' for Active; 'I' for Inactive)
REMARK    1  A    between atoms: C_10  and  N_1 
REMARK       I    between atoms: C_6  and  N_9 
REMARK    2  A    between atoms: C_8  and  C_6 
REMARK    3  A    between atoms: N_9  and  C_12 
REMARK    4  A    between atoms: C_12  and  C_10 
ROOT
ATOM      1  C   UNL d   1      31.528  16.630 -23.488  0.00  0.00     0.101 C 
ENDROOT
BRANCH   1   2
ATOM      2  N   UNL d   1      32.095  16.975 -23.977  0.00  0.00    -0.304 N 
ATOM      3  C   UNL d   1      32.536  16.585 -24.560  0.00  0.00     0.064 A 
ATOM      4  C   UNL d   1      33.035  17.135 -24.914  0.00  0.00     0.019 A 
ATOM      5  C   UNL d   1      32.482  15.785 -24.751  0.00  0.00     0.019 C 
ATOM      6  C   UNL d   1      32.910  17.868 -24.556  0.00  0.00     0.018 A 
ATOM      7  C   UNL d   1      32.330  17.772 -23.977  0.00  0.00     0.064 A 
ATOM      8  C   UNL d   1      33.241  18.611 -24.674  0.00  0.00     0.002 A 
ATOM      9  C   UNL d   1      32.081  18.408 -23.520  0.00  0.00     0.018 A 
ATOM     10  C   UNL d   1      32.412  19.151 -23.638  0.00  0.00     0.002 A 
ATOM     11  C   UNL d   1      33.000  19.264 -24.219  0.00  0.00     0.000 A 
ENDBRANCH   1   2
BRANCH   1  12
ATOM     12  C   UNL d   1      30.792  16.422 -23.796  0.00  0.00     0.121 C 
BRANCH  12  13
ATOM     13  N   UNL d   1      30.308  15.897 -23.382  0.00  0.00    -0.205 NA
ATOM     14  C   UNL d   1      29.489  15.978 -23.410  0.00  0.00     0.279 C 
ATOM     15  O   UNL d   1      29.005  15.454 -22.996  0.00  0.00    -0.265 OA
BRANCH  14  16
ATOM     16  C   UNL d   1      29.151  16.591 -23.855  0.00  0.00     0.058 A 
ATOM     17  C   UNL d   1      29.034  16.487 -24.646  0.00  0.00     0.005 A 
ATOM     18  C   UNL d   1      28.698  17.093 -25.096  0.00  0.00     0.000 A 
ATOM     19  C   UNL d   1      28.479  17.806 -24.752  0.00  0.00     0.000 A 
ATOM     20  C   UNL d   1      28.602  17.910 -23.930  0.00  0.00     0.000 A 
ATOM     21  C   UNL d   1      28.940  17.297 -23.484  0.00  0.00     0.005 A 
ENDBRANCH  14  16
ENDBRANCH  12  13
ENDBRANCH   1  12
TORSDOF 4
ENDMDL
MODEL 3
REMARK VINA RESULT:      -0.7      2.620      5.194
REMARK  4 active torsions:
REMARK  status: ('A' for Active; 'I' for Inactive)
REMARK    1  A    between atoms: C_10  and  N_1 
REMARK       I    between atoms: C_6  and  N_9 
REMARK    2  A    between atoms: C_8  and  C_6 
REMARK    3  A    between atoms: N_9  and  C_12 
REMARK    4  A    between atoms: C_12  and  C_10 
ROOT
ATOM      1  C   UNL d   1      33.202  20.477 -21.659  0.00  0.00     0.101 C 
ENDROOT
BRANCH   1   2
ATOM      2  N   UNL d   1      32.763  21.145 -21.455  0.00  0.00    -0.304 N 
ATOM      3  C   UNL d   1      32.209  21.194 -20.841  0.00  0.00     0.064 A 
ATOM      4  C   UNL d   1      31.903  21.957 -20.831  0.00  0.00     0.019 A 
ATOM      5  C   UNL d   1      32.002  20.582 -20.329  0.00  0.00     0.019 C 
ATOM      6  C   UNL d   1      32.262  22.388 -21.436  0.00  0.00     0.018 A 
ATOM      7  C   UNL d   1      32.794  21.889 -21.823  0.00  0.00     0.064 A 
ATOM      8  C   UNL d   1      32.182  23.166 -21.692  0.00  0.00     0.002 A 
ATOM      9  C   UNL d   1      33.241  22.160 -22.457  0.00  0.00     0.018 A 
ATOM     10  C   UNL d   1      33.161  22.937 -22.713  0.00  0.00     0.002 A 
ATOM     11  C   UNL d   1      32.627  23.454 -22.332  0.00  0.00     0.000 A 
ENDBRANCH   1   2
BRANCH   1  12
ATOM     12  C   UNL d   1      32.864  19.893 -22.132  0.00  0.00     0.121 C 
BRANCH  12  13
ATOM     13  N   UNL d   1      33.038  19.099 -21.990  0.00  0.00    -0.205 NA
ATOM     14  C   UNL d   1      32.953  18.542 -22.590  0.00  0.00     0.279 C 
ATOM     15  O   UNL d   1      33.127  17.748 -22.449  0.00  0.00    -0.265 OA
BRANCH  14  16
ATOM     16  C   UNL d   1      32.690  18.781 -23.339  0.00  0.00     0.058 A 
ATOM     17  C   UNL d   1      33.214  19.113 -23.855  0.00  0.00     0.005 A 
ATOM     18  C   UNL d   1      32.959  19.354 -24.603  0.00  0.00     0.000 A 
ATOM     19  C   UNL d   1      32.177  19.262 -24.835  0.00  0.00     0.000 A 
ATOM     20  C   UNL d   1      31.636  18.918 -24.297  0.00  0.00     0.000 A 
ATOM     21  C   UNL d   1      31.898  18.678 -23.547  0.00  0.00     0.005 A 
ENDBRANCH  14  16
ENDBRANCH  12  13
ENDBRANCH   1  12
TORSDOF 4
ENDMDL
