MODEL 1
REMARK VINA RESULT:      54.9      0.000      0.000
REMARK  6 active torsions:
REMARK  status: ('A' for Active; 'I' for Inactive)
REMARK    1  A    between atoms: C_3  and  N_1 
REMARK       I    between atoms: C_2  and  N_5 
REMARK       I    between atoms: N_10  and  C_2 
REMARK    2  A    between atoms: N_5  and  C_8 
REMARK    3  A    between atoms: C_17  and  N_10 
REMARK    4  A    between atoms: O_18  and  C_11 
REMARK    5  A    between atoms: C_12  and  C_22 
REMARK    6  A    between atoms: C_22  and  C_17 
ROOT
ATOM      1  C   UNL d   1      61.306  47.912  50.321  0.00  0.00     0.369 C 
ATOM      2  N   UNL d   1      61.539  47.175  50.617  0.00  0.00    -0.191 NA
ATOM      3  O   UNL d   1      61.363  48.063  49.509  0.00  0.00    -0.242 OA
ATOM      4  N   UNL d   1      61.022  48.482  50.827  0.00  0.00    -0.189 NA
ENDROOT
BRANCH   2   5
ATOM      5  C   UNL d   1      61.827  46.596  50.106  0.00  0.00     0.088 A 
ATOM      6  C   UNL d   1      61.472  45.857  50.078  0.00  0.00     0.043 A 
ATOM      7  C   UNL d   1      61.753  45.281  49.574  0.00  0.00     0.128 A 
ATOM      8  C   UNL d   1      62.401  45.438  49.086  0.00  0.00     0.024 A 
ATOM      9  C   UNL d   1      62.762  46.181  49.111  0.00  0.00     0.003 A 
ATOM     10  C   UNL d   1      62.474  46.761  49.622  0.00  0.00     0.019 A 
BRANCH   7  11
ATOM     11  N   UNL d   1      61.393  44.535  49.547  0.00  0.00    -0.114 N 
ATOM     12  O   UNL d   1      61.150  44.222  48.828  0.00  0.00    -0.532 OA
ATOM     13  O   UNL d   1      61.282  44.113  50.240  0.00  0.00    -0.532 OA
ENDBRANCH   7  11
ENDBRANCH   2   5
BRANCH   4  14
ATOM     14  C   UNL d   1      60.789  49.219  50.530  0.00  0.00     0.104 C 
BRANCH  14  15
ATOM     15  C   UNL d   1      60.290  49.705  50.972  0.00  0.00     0.021 C 
BRANCH  15  16
ATOM     16  C   UNL d   1      59.483  49.698  50.832  0.00  0.00     0.002 A 
ATOM     17  C   UNL d   1      58.959  49.707  51.464  0.00  0.00     0.002 A 
ATOM     18  C   UNL d   1      58.142  49.701  51.325  0.00  0.00     0.024 A 
ATOM     19  C   UNL d   1      57.865  49.685  50.555  0.00  0.00     0.094 A 
ATOM     20  C   UNL d   1      58.386  49.677  49.926  0.00  0.00     0.024 A 
ATOM     21  C   UNL d   1      59.202  49.683  50.064  0.00  0.00     0.002 A 
BRANCH  19  22
ATOM     22  O   UNL d   1      57.052  49.679  50.414  0.00  0.00    -0.328 OA
ATOM     23  C   UNL d   1      56.769  49.708  49.640  0.00  0.00     0.181 C 
ENDBRANCH  19  22
ENDBRANCH  15  16
ENDBRANCH  14  15
ENDBRANCH   4  14
TORSDOF 6
ENDMDL
MODEL 2
REMARK VINA RESULT:      57.1      1.548      5.054
REMARK  6 active torsions:
REMARK  status: ('A' for Active; 'I' for Inactive)
REMARK    1  A    between atoms: C_3  and  N_1 
REMARK       I    between atoms: C_2  and  N_5 
REMARK       I    between atoms: N_10  and  C_2 
REMARK    2  A    between atoms: N_5  and  C_8 
REMARK    3  A    between atoms: C_17  and  N_10 
REMARK    4  A    between atoms: O_18  and  C_11 
REMARK    5  A    between atoms: C_12  and  C_22 
REMARK    6  A    between atoms: C_22  and  C_17 
ROOT
ATOM      1  C   UNL d   1      59.632  49.196  50.478  0.00  0.00     0.369 C 
ATOM      2  N   UNL d   1      59.064  49.707  50.158  0.00  0.00    -0.191 NA
ATOM      3  O   UNL d   1      59.393  48.585  50.983  0.00  0.00    -0.242 OA
ATOM      4  N   UNL d   1      60.418  49.297  50.297  0.00  0.00    -0.189 NA
ENDROOT
BRANCH   2   5
ATOM      5  C   UNL d   1      58.266  49.607  50.341  0.00  0.00     0.088 A 
ATOM      6  C   UNL d   1      57.730  49.410  49.754  0.00  0.00     0.043 A 
ATOM      7  C   UNL d   1      56.940  49.309  49.930  0.00  0.00     0.128 A 
ATOM      8  C   UNL d   1      56.674  49.407  50.707  0.00  0.00     0.024 A 
ATOM      9  C   UNL d   1      57.211  49.606  51.302  0.00  0.00     0.003 A 
ATOM     10  C   UNL d   1      58.009  49.706  51.119  0.00  0.00     0.019 A 
BRANCH   7  11
ATOM     11  N   UNL d   1      56.399  49.110  49.336  0.00  0.00    -0.114 N 
ATOM     12  O   UNL d   1      56.041  49.699  48.890  0.00  0.00    -0.532 OA
ATOM     13  O   UNL d   1      56.223  48.323  49.196  0.00  0.00    -0.532 OA
ENDBRANCH   7  11
ENDBRANCH   2   5
BRANCH   4  14
ATOM     14  C   UNL d   1      60.984  48.786  50.617  0.00  0.00     0.104 C 
BRANCH  14  15
ATOM     15  C   UNL d   1      60.754  48.064  50.945  0.00  0.00     0.021 C 
BRANCH  15  16
ATOM     16  C   UNL d   1      61.042  47.363  50.635  0.00  0.00     0.002 A 
ATOM     17  C   UNL d   1      60.839  46.649  50.984  0.00  0.00     0.002 A 
ATOM     18  C   UNL d   1      61.128  45.938  50.672  0.00  0.00     0.024 A 
ATOM     19  C   UNL d   1      61.617  45.956  50.014  0.00  0.00     0.094 A 
ATOM     20  C   UNL d   1      61.818  46.667  49.667  0.00  0.00     0.024 A 
ATOM     21  C   UNL d   1      61.529  47.378  49.978  0.00  0.00     0.002 A 
BRANCH  19  22
ATOM     22  O   UNL d   1      61.906  45.250  49.702  0.00  0.00    -0.328 OA
ATOM     23  C   UNL d   1      61.836  45.099  48.894  0.00  0.00     0.181 C 
ENDBRANCH  19  22
ENDBRANCH  15  16
ENDBRANCH  14  15
ENDBRANCH   4  14
TORSDOF 6
ENDMDL
