MODEL 1
REMARK VINA RESULT:      44.8      0.000      0.000
REMARK  2 active torsions:
REMARK  status: ('A' for Active; 'I' for Inactive)
REMARK    1  A    between atoms: C_2  and  C_1 
REMARK       I    between atoms: N_7  and  C_2 
REMARK    2  A    between atoms: C_9  and  N_7 
ROOT
ATOM      1  C   UNL d   1     -52.108  25.987  33.762  0.00  0.00     0.280 C 
ATOM      2  N   UNL d   1     -51.413  26.427  33.782  0.00  0.00    -0.208 NA
ATOM      3  O   UNL d   1     -52.836  26.374  33.824  0.00  0.00    -0.265 OA
ENDROOT
BRANCH   1   4
ATOM      4  C   UNL d   1     -52.077  25.167  33.682  0.00  0.00     0.065 A 
ATOM      5  C   UNL d   1     -52.640  24.632  33.965  0.00  0.00     0.011 A 
ATOM      6  C   UNL d   1     -52.385  23.879  33.761  0.00  0.00     0.030 A 
ATOM      7  C   UNL d   1     -53.340  24.735  34.377  0.00  0.00     0.001 A 
ATOM      8  C   UNL d   1     -52.838  23.217  33.971  0.00  0.00     0.006 A 
ATOM      9  S   UNL d   1     -51.671  23.946  33.354  0.00  0.00    -0.086 SA
ATOM     10  C   UNL d   1     -53.527  23.317  34.376  0.00  0.00     0.001 A 
ATOM     11  C   UNL d   1     -53.789  24.074  34.585  0.00  0.00     0.000 A 
ATOM     12  C   UNL d   1     -51.486  24.751  33.309  0.00  0.00     0.040 A 
ENDBRANCH   1   4
BRANCH   2  13
ATOM     13  C   UNL d   1     -50.677  26.039  33.720  0.00  0.00     0.085 A 
ATOM     14  C   UNL d   1     -50.633  25.298  33.369  0.00  0.00     0.019 A 
ATOM     15  C   UNL d   1     -49.900  24.913  33.308  0.00  0.00     0.002 A 
ATOM     16  C   UNL d   1     -49.217  25.272  33.599  0.00  0.00     0.000 A 
ATOM     17  C   UNL d   1     -49.270  26.022  33.953  0.00  0.00     0.002 A 
ATOM     18  C   UNL d   1     -48.490  24.876  33.531  0.00  0.00     0.000 C 
ATOM     19  C   UNL d   1     -49.999  26.404  34.013  0.00  0.00     0.019 A 
ENDBRANCH   2  13
TORSDOF 2
ENDMDL
