MODEL 1
REMARK VINA RESULT:      -7.7      0.000      0.000
REMARK  5 active torsions:
REMARK  status: ('A' for Active; 'I' for Inactive)
REMARK    1  A    between atoms: N_2  and  S_1 
REMARK    2  A    between atoms: C_4  and  S_1 
REMARK    3  A    between atoms: C_3  and  N_2 
REMARK    4  A    between atoms: N_7  and  C_3 
REMARK    5  A    between atoms: C_14  and  N_7 
ROOT
ATOM      1  S   UNL d   1      51.055  34.043  52.801  0.00  0.00     0.287 S 
ATOM      2  O   UNL d   1      51.493  34.468  52.233  0.00  0.00    -0.198 OA
ATOM      3  O   UNL d   1      50.604  33.622  53.362  0.00  0.00    -0.198 OA
ENDROOT
BRANCH   1   4
ATOM      4  N   UNL d   1      51.757  33.803  53.174  0.00  0.00    -0.128 NA
BRANCH   4   5
ATOM      5  C   UNL d   1      52.481  33.390  53.149  0.00  0.00     0.232 C 
ATOM      6  S   UNL d   1      52.485  32.581  53.003  0.00  0.00    -0.036 SA
BRANCH   5   7
ATOM      7  N   UNL d   1      53.189  33.797  53.272  0.00  0.00    -0.217 NA
BRANCH   7   8
ATOM      8  C   UNL d   1      53.662  33.609  53.920  0.00  0.00     0.084 A 
ATOM      9  C   UNL d   1      53.634  34.078  54.596  0.00  0.00     0.019 A 
ATOM     10  C   UNL d   1      54.106  33.891  55.245  0.00  0.00     0.002 A 
ATOM     11  C   UNL d   1      54.604  33.241  55.221  0.00  0.00     0.000 A 
ATOM     12  C   UNL d   1      54.632  32.770  54.541  0.00  0.00     0.002 A 
ATOM     13  C   UNL d   1      54.162  32.953  53.890  0.00  0.00     0.019 A 
ENDBRANCH   7   8
ENDBRANCH   5   7
ENDBRANCH   4   5
ENDBRANCH   1   4
BRANCH   1  14
ATOM     14  C   UNL d   1      50.350  34.284  52.426  0.00  0.00     0.105 A 
ATOM     15  C   UNL d   1      50.221  34.103  51.625  0.00  0.00     0.013 A 
ATOM     16  C   UNL d   1      49.525  34.341  51.255  0.00  0.00     0.001 A 
ATOM     17  C   UNL d   1      48.959  34.758  51.679  0.00  0.00     0.000 A 
ATOM     18  C   UNL d   1      49.079  34.942  52.476  0.00  0.00     0.001 A 
ATOM     19  C   UNL d   1      48.260  34.997  51.308  0.00  0.00     0.000 C 
ATOM     20  C   UNL d   1      49.777  34.703  52.847  0.00  0.00     0.013 A 
ENDBRANCH   1  14
TORSDOF 5
ENDMDL
MODEL 2
REMARK VINA RESULT:      -7.0      0.951      4.746
REMARK  5 active torsions:
REMARK  status: ('A' for Active; 'I' for Inactive)
REMARK    1  A    between atoms: N_2  and  S_1 
REMARK    2  A    between atoms: C_4  and  S_1 
REMARK    3  A    between atoms: C_3  and  N_2 
REMARK    4  A    between atoms: N_7  and  C_3 
REMARK    5  A    between atoms: C_14  and  N_7 
ROOT
ATOM      1  S   UNL d   1      52.264  34.245  53.621  0.00  0.00     0.287 S 
ATOM      2  O   UNL d   1      51.944  33.516  53.866  0.00  0.00    -0.198 OA
ATOM      3  O   UNL d   1      52.596  34.973  53.384  0.00  0.00    -0.198 OA
ENDROOT
BRANCH   1   4
ATOM      4  N   UNL d   1      51.558  34.429  53.223  0.00  0.00    -0.128 NA
BRANCH   4   5
ATOM      5  C   UNL d   1      50.985  34.239  52.649  0.00  0.00     0.232 C 
ATOM      6  S   UNL d   1      51.199  34.196  51.856  0.00  0.00    -0.036 SA
BRANCH   5   7
ATOM      7  N   UNL d   1      50.206  34.094  52.880  0.00  0.00    -0.217 NA
BRANCH   7   8
ATOM      8  C   UNL d   1      49.593  34.539  52.556  0.00  0.00     0.084 A 
ATOM      9  C   UNL d   1      49.236  35.131  53.006  0.00  0.00     0.019 A 
ATOM     10  C   UNL d   1      48.623  35.577  52.683  0.00  0.00     0.002 A 
ATOM     11  C   UNL d   1      48.367  35.437  51.917  0.00  0.00     0.000 A 
ATOM     12  C   UNL d   1      48.726  34.843  51.467  0.00  0.00     0.002 A 
ATOM     13  C   UNL d   1      49.339  34.394  51.785  0.00  0.00     0.019 A 
ENDBRANCH   7   8
ENDBRANCH   5   7
ENDBRANCH   4   5
ENDBRANCH   1   4
BRANCH   1  14
ATOM     14  C   UNL d   1      52.972  34.061  54.021  0.00  0.00     0.105 A 
ATOM     15  C   UNL d   1      53.433  33.416  53.774  0.00  0.00     0.013 A 
ATOM     16  C   UNL d   1      54.133  33.233  54.169  0.00  0.00     0.001 A 
ATOM     17  C   UNL d   1      54.373  33.691  54.807  0.00  0.00     0.000 A 
ATOM     18  C   UNL d   1      53.920  34.335  55.059  0.00  0.00     0.001 A 
ATOM     19  C   UNL d   1      55.075  33.508  55.203  0.00  0.00     0.000 C 
ATOM     20  C   UNL d   1      53.219  34.518  54.663  0.00  0.00     0.013 A 
ENDBRANCH   1  14
TORSDOF 5
ENDMDL
MODEL 3
REMARK VINA RESULT:      -6.8      2.688      3.854
REMARK  5 active torsions:
REMARK  status: ('A' for Active; 'I' for Inactive)
REMARK    1  A    between atoms: N_2  and  S_1 
REMARK    2  A    between atoms: C_4  and  S_1 
REMARK    3  A    between atoms: C_3  and  N_2 
REMARK    4  A    between atoms: N_7  and  C_3 
REMARK    5  A    between atoms: C_14  and  N_7 
ROOT
ATOM      1  S   UNL d   1      53.271  33.105  53.868  0.00  0.00     0.287 S 
ATOM      2  O   UNL d   1      52.509  32.981  54.182  0.00  0.00    -0.198 OA
ATOM      3  O   UNL d   1      54.032  33.243  53.558  0.00  0.00    -0.198 OA
ENDROOT
BRANCH   1   4
ATOM      4  N   UNL d   1      53.326  32.301  53.666  0.00  0.00    -0.128 NA
BRANCH   4   5
ATOM      5  C   UNL d   1      53.102  31.665  53.177  0.00  0.00     0.232 C 
ATOM      6  S   UNL d   1      52.395  31.701  52.759  0.00  0.00    -0.036 SA
BRANCH   5   7
ATOM      7  N   UNL d   1      53.592  31.003  53.116  0.00  0.00    -0.217 NA
BRANCH   7   8
ATOM      8  C   UNL d   1      53.357  30.288  53.452  0.00  0.00     0.084 A 
ATOM      9  C   UNL d   1      53.748  30.003  54.119  0.00  0.00     0.019 A 
ATOM     10  C   UNL d   1      53.515  29.289  54.457  0.00  0.00     0.002 A 
ATOM     11  C   UNL d   1      52.896  28.859  54.133  0.00  0.00     0.000 A 
ATOM     12  C   UNL d   1      52.505  29.147  53.463  0.00  0.00     0.002 A 
ATOM     13  C   UNL d   1      52.734  29.860  53.122  0.00  0.00     0.019 A 
ENDBRANCH   7   8
ENDBRANCH   5   7
ENDBRANCH   4   5
ENDBRANCH   1   4
BRANCH   1  14
ATOM     14  C   UNL d   1      53.215  33.912  54.071  0.00  0.00     0.105 A 
ATOM     15  C   UNL d   1      53.471  34.172  54.818  0.00  0.00     0.013 A 
ATOM     16  C   UNL d   1      53.416  34.970  55.018  0.00  0.00     0.001 A 
ATOM     17  C   UNL d   1      53.108  35.506  54.479  0.00  0.00     0.000 A 
ATOM     18  C   UNL d   1      52.851  35.256  53.734  0.00  0.00     0.001 A 
ATOM     19  C   UNL d   1      53.052  36.306  54.680  0.00  0.00     0.000 C 
ATOM     20  C   UNL d   1      52.906  34.456  53.533  0.00  0.00     0.013 A 
ENDBRANCH   1  14
TORSDOF 5
ENDMDL
