MODEL 1
REMARK VINA RESULT:      23.4      0.000      0.000
REMARK  4 active torsions:
REMARK  status: ('A' for Active; 'I' for Inactive)
REMARK    1  A    between atoms: C_6  and  N_1 
REMARK    2  A    between atoms: C_7  and  C_6 
REMARK    3  A    between atoms: C_14  and  C_7 
REMARK    4  A    between atoms: N_10  and  C_14 
ROOT
ATOM      1  N   UNL d   1     -58.061 -98.756 -44.341  0.00  0.00    -0.303 N 
ATOM      2  C   UNL d   1     -58.551 -98.757 -43.675  0.00  0.00     0.064 A 
ATOM      3  C   UNL d   1     -59.341 -98.757 -43.935  0.00  0.00     0.018 A 
ATOM      4  C   UNL d   1     -58.544 -98.756 -45.012  0.00  0.00     0.064 A 
ATOM      5  C   UNL d   1     -59.332 -98.757 -44.762  0.00  0.00     0.018 A 
ATOM      6  C   UNL d   1     -58.387 -98.758 -42.864  0.00  0.00     0.018 A 
ATOM      7  C   UNL d   1     -59.956 -98.758 -43.386  0.00  0.00     0.002 A 
ATOM      8  C   UNL d   1     -58.368 -98.756 -45.818  0.00  0.00     0.018 A 
ATOM      9  C   UNL d   1     -59.941 -98.756 -45.319  0.00  0.00     0.002 A 
ATOM     10  C   UNL d   1     -59.792 -98.758 -42.579  0.00  0.00     0.000 A 
ATOM     11  C   UNL d   1     -59.010 -98.758 -42.313  0.00  0.00     0.002 A 
ATOM     12  C   UNL d   1     -58.975 -98.755 -46.370  0.00  0.00     0.002 A 
ATOM     13  C   UNL d   1     -59.763 -98.756 -46.120  0.00  0.00     0.000 A 
ENDROOT
BRANCH   1  14
ATOM     14  C   UNL d   1     -57.242 -98.756 -44.330  0.00  0.00     0.124 C 
BRANCH  14  15
ATOM     15  C   UNL d   1     -56.822 -99.461 -44.369  0.00  0.00     0.232 C 
ATOM     16  O   UNL d   1     -57.115-100.142 -44.014  0.00  0.00    -0.283 OA
BRANCH  15  17
ATOM     17  C   UNL d   1     -56.101 -99.481 -44.769  0.00  0.00     0.142 C 
BRANCH  17  18
ATOM     18  N   UNL d   1     -55.445 -99.845 -44.421  0.00  0.00    -0.237 NA
ATOM     19  C   UNL d   1     -54.764 -99.963 -44.870  0.00  0.00     0.120 C 
ENDBRANCH  17  18
ENDBRANCH  15  17
ENDBRANCH  14  15
ENDBRANCH   1  14
TORSDOF 4
ENDMDL
MODEL 2
REMARK VINA RESULT:      24.6      0.259      2.166
REMARK  4 active torsions:
REMARK  status: ('A' for Active; 'I' for Inactive)
REMARK    1  A    between atoms: C_6  and  N_1 
REMARK    2  A    between atoms: C_7  and  C_6 
REMARK    3  A    between atoms: C_14  and  C_7 
REMARK    4  A    between atoms: N_10  and  C_14 
ROOT
ATOM      1  N   UNL d   1     -58.007 -98.757 -44.423  0.00  0.00    -0.303 N 
ATOM      2  C   UNL d   1     -58.492 -98.757 -45.093  0.00  0.00     0.064 A 
ATOM      3  C   UNL d   1     -59.284 -98.758 -44.841  0.00  0.00     0.018 A 
ATOM      4  C   UNL d   1     -58.497 -98.759 -43.756  0.00  0.00     0.064 A 
ATOM      5  C   UNL d   1     -59.283 -98.760 -44.013  0.00  0.00     0.018 A 
ATOM      6  C   UNL d   1     -58.319 -98.755 -45.902  0.00  0.00     0.018 A 
ATOM      7  C   UNL d   1     -59.893 -98.758 -45.395  0.00  0.00     0.002 A 
ATOM      8  C   UNL d   1     -58.328 -98.760 -42.948  0.00  0.00     0.018 A 
ATOM      9  C   UNL d   1     -59.897 -98.762 -43.462  0.00  0.00     0.002 A 
ATOM     10  C   UNL d   1     -59.722 -98.757 -46.201  0.00  0.00     0.000 A 
ATOM     11  C   UNL d   1     -58.938 -98.755 -46.459  0.00  0.00     0.002 A 
ATOM     12  C   UNL d   1     -58.941 -98.762 -42.402  0.00  0.00     0.002 A 
ATOM     13  C   UNL d   1     -59.727 -98.763 -42.659  0.00  0.00     0.000 A 
ENDROOT
BRANCH   1  14
ATOM     14  C   UNL d   1     -57.189 -98.756 -44.426  0.00  0.00     0.124 C 
BRANCH  14  15
ATOM     15  C   UNL d   1     -56.768 -99.445 -44.278  0.00  0.00     0.232 C 
ATOM     16  O   UNL d   1     -57.150-100.173 -44.261  0.00  0.00    -0.283 OA
BRANCH  15  17
ATOM     17  C   UNL d   1     -55.955 -99.403 -44.144  0.00  0.00     0.142 C 
BRANCH  17  18
ATOM     18  N   UNL d   1     -55.432 -99.803 -44.644  0.00  0.00    -0.237 NA
ATOM     19  C   UNL d   1     -55.047-100.477 -44.369  0.00  0.00     0.120 C 
ENDBRANCH  17  18
ENDBRANCH  15  17
ENDBRANCH  14  15
ENDBRANCH   1  14
TORSDOF 4
ENDMDL
