MODEL 1
REMARK VINA RESULT:      -6.7      0.000      0.000
REMARK  1 active torsions:
REMARK  status: ('A' for Active; 'I' for Inactive)
REMARK    1  A    between atoms: C_6  and  C_1 
REMARK       I    between atoms: N_9  and  C_6 
ROOT
ATOM      1  C   UNL d   1      58.327   0.063  30.036  0.00  0.00     0.107 A 
ATOM      2  C   UNL d   1      57.524  -0.482  30.949  0.00  0.00     0.044 A 
ATOM      3  S   UNL d   1      58.023   0.668  30.503  0.00  0.00    -0.061 SA
ATOM      4  C   UNL d   1      57.526   0.332  31.068  0.00  0.00     0.112 A 
ATOM      5  C   UNL d   1      58.015  -0.651  30.316  0.00  0.00     0.116 A 
ATOM      6  N   UNL d   1      57.070   0.660  31.683  0.00  0.00    -0.239 NA
ATOM      7  C   UNL d   1      57.070  -0.970  31.438  0.00  0.00     0.005 A 
ATOM      8  C   UNL d   1      56.621   0.171  32.166  0.00  0.00     0.082 A 
ATOM      9  C   UNL d   1      56.626  -0.645  32.037  0.00  0.00     0.018 A 
ATOM     10  N   UNL d   1      58.173  -1.382  30.011  0.00  0.00    -0.147 N 
ATOM     11  C   UNL d   1      56.250   0.680  32.701  0.00  0.00     0.019 A 
ATOM     12  C   UNL d   1      56.259  -1.299  32.394  0.00  0.00     0.002 A 
ATOM     13  C   UNL d   1      55.728   0.576  33.332  0.00  0.00     0.002 A 
ATOM     14  C   UNL d   1      55.731  -1.395  33.034  0.00  0.00     0.000 A 
ATOM     15  C   UNL d   1      55.361  -0.886  33.568  0.00  0.00     0.000 A 
ATOM     16  C   UNL d   1      55.360  -0.069  33.691  0.00  0.00     0.000 A 
ENDROOT
BRANCH   1  17
ATOM     17  C   UNL d   1      58.834   0.151  29.421  0.00  0.00     0.272 C 
ATOM     18  N   UNL d   1      59.591   0.356  29.560  0.00  0.00    -0.272 N 
ATOM     19  C   UNL d   1      59.929   0.493  30.269  0.00  0.00     0.083 A 
ATOM     20  C   UNL d   1      60.158   0.463  28.992  0.00  0.00     0.083 A 
ATOM     21  C   UNL d   1      60.692   0.682  30.148  0.00  0.00     0.021 A 
ATOM     22  C   UNL d   1      60.837   0.665  29.370  0.00  0.00     0.021 A 
ATOM     23  O   UNL d   1      58.575   0.032  28.672  0.00  0.00    -0.266 OA
ENDBRANCH   1  17
TORSDOF 1
ENDMDL
MODEL 2
REMARK VINA RESULT:      -5.8      1.284      1.747
REMARK  1 active torsions:
REMARK  status: ('A' for Active; 'I' for Inactive)
REMARK    1  A    between atoms: C_6  and  C_1 
REMARK       I    between atoms: N_9  and  C_6 
ROOT
ATOM      1  C   UNL d   1      58.458  -0.705  29.726  0.00  0.00     0.107 A 
ATOM      2  C   UNL d   1      57.837  -0.186  30.784  0.00  0.00     0.044 A 
ATOM      3  S   UNL d   1      57.977  -1.288  30.052  0.00  0.00    -0.061 SA
ATOM      4  C   UNL d   1      57.593  -0.968  30.706  0.00  0.00     0.112 A 
ATOM      5  C   UNL d   1      58.368  -0.022  30.183  0.00  0.00     0.116 A 
ATOM      6  N   UNL d   1      57.046  -1.285  31.248  0.00  0.00    -0.239 NA
ATOM      7  C   UNL d   1      57.540   0.281  31.398  0.00  0.00     0.005 A 
ATOM      8  C   UNL d   1      56.755  -0.818  31.857  0.00  0.00     0.082 A 
ATOM      9  C   UNL d   1      57.007  -0.034  31.926  0.00  0.00     0.018 A 
ATOM     10  N   UNL d   1      58.745   0.682  30.052  0.00  0.00    -0.147 N 
ATOM     11  C   UNL d   1      56.238  -1.308  32.275  0.00  0.00     0.019 A 
ATOM     12  C   UNL d   1      56.845   0.592  32.447  0.00  0.00     0.002 A 
ATOM     13  C   UNL d   1      55.758  -1.211  32.940  0.00  0.00     0.002 A 
ATOM     14  C   UNL d   1      56.357   0.682  33.118  0.00  0.00     0.000 A 
ATOM     15  C   UNL d   1      55.840   0.192  33.536  0.00  0.00     0.000 A 
ATOM     16  C   UNL d   1      55.593  -0.593  33.461  0.00  0.00     0.000 A 
ENDROOT
BRANCH   1  17
ATOM     17  C   UNL d   1      58.929  -0.787  29.081  0.00  0.00     0.272 C 
ATOM     18  N   UNL d   1      59.484  -1.357  29.068  0.00  0.00    -0.272 N 
ATOM     19  C   UNL d   1      59.645  -1.886  29.644  0.00  0.00     0.083 A 
ATOM     20  C   UNL d   1      59.994  -1.500  28.455  0.00  0.00     0.083 A 
ATOM     21  C   UNL d   1      60.241  -2.349  29.396  0.00  0.00     0.021 A 
ATOM     22  C   UNL d   1      60.458  -2.117  28.671  0.00  0.00     0.021 A 
ATOM     23  O   UNL d   1      58.834  -0.295  28.455  0.00  0.00    -0.266 OA
ENDBRANCH   1  17
TORSDOF 1
ENDMDL
