MODEL 1
REMARK VINA RESULT:      61.1      0.000      0.000
REMARK  3 active torsions:
REMARK  status: ('A' for Active; 'I' for Inactive)
REMARK    1  A    between atoms: C_8  and  C_1 
REMARK    2  A    between atoms: N_7  and  C_8 
REMARK    3  A    between atoms: C_13  and  C_8 
ROOT
ATOM      1  C   UNL d   1     -50.973  25.951  33.683  0.00  0.00     0.075 C 
ENDROOT
BRANCH   1   2
ATOM      2  N   UNL d   1     -50.825  25.152  33.559  0.00  0.00    -0.303 N 
ATOM      3  C   UNL d   1     -51.441  24.616  33.519  0.00  0.00     0.080 A 
ATOM      4  C   UNL d   1     -51.285  23.814  33.395  0.00  0.00     0.018 A 
ATOM      5  C   UNL d   1     -51.901  23.277  33.354  0.00  0.00     0.002 C 
ATOM      6  C   UNL d   1     -50.508  23.549  33.310  0.00  0.00     0.003 A 
ATOM      7  C   UNL d   1     -49.896  24.100  33.353  0.00  0.00     0.019 A 
ATOM      8  C   UNL d   1     -50.049  24.901  33.477  0.00  0.00     0.080 A 
ENDBRANCH   1   2
BRANCH   1   9
ATOM      9  C   UNL d   1     -50.358  26.441  33.933  0.00  0.00     0.106 A 
ATOM     10  C   UNL d   1     -50.225  26.700  34.712  0.00  0.00     0.290 A 
ATOM     11  N   UNL d   1     -49.555  27.177  34.712  0.00  0.00    -0.169 N 
ATOM     12  O   UNL d   1     -50.687  26.508  35.370  0.00  0.00    -0.265 OA
ATOM     13  N   UNL d   1     -49.060  27.628  35.183  0.00  0.00    -0.138 NA
ATOM     14  C   UNL d   1     -49.272  27.216  33.938  0.00  0.00     0.200 A 
ATOM     15  C   UNL d   1     -48.470  27.949  34.707  0.00  0.00     0.222 A 
ATOM     16  N   UNL d   1     -48.602  27.694  33.937  0.00  0.00    -0.197 NA
ATOM     17  S   UNL d   1     -49.764  26.765  33.458  0.00  0.00    -0.042 SA
ENDBRANCH   1   9
BRANCH   1  18
ATOM     18  C   UNL d   1     -51.720  26.261  33.560  0.00  0.00     0.017 A 
ATOM     19  C   UNL d   1     -52.363  25.767  33.513  0.00  0.00     0.002 A 
ATOM     20  C   UNL d   1     -53.095  26.081  33.392  0.00  0.00     0.000 A 
ATOM     21  C   UNL d   1     -53.202  26.907  33.315  0.00  0.00     0.000 A 
ATOM     22  C   UNL d   1     -52.561  27.389  33.363  0.00  0.00     0.000 A 
ATOM     23  C   UNL d   1     -51.806  27.079  33.486  0.00  0.00     0.002 A 
ENDBRANCH   1  18
TORSDOF 3
ENDMDL
