MODEL 1
REMARK VINA RESULT:      -4.6      0.000      0.000
REMARK  3 active torsions:
REMARK  status: ('A' for Active; 'I' for Inactive)
REMARK       I    between atoms: N_3  and  C_1 
REMARK       I    between atoms: N_5  and  C_1 
REMARK    1  A    between atoms: C_2  and  O_6 
REMARK       I    between atoms: N_4  and  C_2 
REMARK    2  A    between atoms: C_10  and  N_5 
REMARK    3  A    between atoms: O_6  and  C_11 
ROOT
ATOM      1  C   UNL d   1      56.667   0.040  31.889  0.00  0.00     0.086 A 
ATOM      2  C   UNL d   1      57.627  -0.215  30.572  0.00  0.00     0.105 A 
ATOM      3  C   UNL d   1      56.883   0.681  31.390  0.00  0.00     0.021 A 
ATOM      4  C   UNL d   1      56.945  -0.732  31.709  0.00  0.00     0.021 A 
ATOM      5  C   UNL d   1      57.357   0.555  30.741  0.00  0.00     0.026 A 
ATOM      6  C   UNL d   1      57.418  -0.858  31.060  0.00  0.00     0.026 A 
ENDROOT
BRANCH   1   7
ATOM      7  N   UNL d   1      56.194   0.166  32.537  0.00  0.00    -0.192 NA
ATOM      8  C   UNL d   1      56.516   0.295  33.279  0.00  0.00     0.354 C 
ATOM      9  N   UNL d   1      56.036   0.423  33.938  0.00  0.00    -0.252 N 
ATOM     10  O   UNL d   1      57.353   0.295  33.357  0.00  0.00    -0.244 OA
ATOM     11  C   UNL d   1      56.385   0.553  34.684  0.00  0.00     0.111 A 
ATOM     12  C   UNL d   1      55.209   0.424  33.867  0.00  0.00     0.111 A 
ATOM     13  C   UNL d   1      55.898   0.682  35.353  0.00  0.00     0.142 A 
ATOM     14  O   UNL d   1      55.068   0.680  35.265  0.00  0.00    -0.300 OA
ATOM     15  C   UNL d   1      54.728   0.551  34.525  0.00  0.00     0.142 A 
ENDBRANCH   1   7
BRANCH   2  16
ATOM     16  O   UNL d   1      58.108  -0.342  29.913  0.00  0.00    -0.259 OA
BRANCH  16  17
ATOM     17  C   UNL d   1      58.926  -0.283  29.981  0.00  0.00     0.377 C 
ATOM     18  N   UNL d   1      59.415  -0.746  29.505  0.00  0.00    -0.252 N 
ATOM     19  C   UNL d   1      60.234  -0.685  29.573  0.00  0.00     0.085 A 
ATOM     20  C   UNL d   1      59.087  -1.268  28.961  0.00  0.00     0.085 A 
ATOM     21  C   UNL d   1      60.726  -1.147  29.099  0.00  0.00     0.019 A 
ATOM     22  C   UNL d   1      60.398  -1.670  28.555  0.00  0.00     0.003 A 
ATOM     23  C   UNL d   1      59.578  -1.733  28.483  0.00  0.00     0.019 A 
ATOM     24  O   UNL d   1      59.258   0.238  30.523  0.00  0.00    -0.237 OA
ENDBRANCH  16  17
ENDBRANCH   2  16
TORSDOF 3
ENDMDL
MODEL 2
REMARK VINA RESULT:      -2.2      1.038      5.767
REMARK  3 active torsions:
REMARK  status: ('A' for Active; 'I' for Inactive)
REMARK       I    between atoms: N_3  and  C_1 
REMARK       I    between atoms: N_5  and  C_1 
REMARK    1  A    between atoms: C_2  and  O_6 
REMARK       I    between atoms: N_4  and  C_2 
REMARK    2  A    between atoms: C_10  and  N_5 
REMARK    3  A    between atoms: O_6  and  C_11 
ROOT
ATOM      1  C   UNL d   1      57.489  -0.363  31.283  0.00  0.00     0.086 A 
ATOM      2  C   UNL d   1      56.711   0.117  32.657  0.00  0.00     0.105 A 
ATOM      3  C   UNL d   1      57.078  -0.923  31.756  0.00  0.00     0.021 A 
ATOM      4  C   UNL d   1      57.499   0.444  31.517  0.00  0.00     0.021 A 
ATOM      5  C   UNL d   1      56.694  -0.686  32.433  0.00  0.00     0.026 A 
ATOM      6  C   UNL d   1      57.116   0.681  32.194  0.00  0.00     0.026 A 
ENDROOT
BRANCH   1   7
ATOM      7  N   UNL d   1      57.872  -0.599  30.607  0.00  0.00    -0.192 NA
ATOM      8  C   UNL d   1      58.682  -0.516  30.527  0.00  0.00     0.354 C 
ATOM      9  N   UNL d   1      59.071  -0.756  29.840  0.00  0.00    -0.252 N 
ATOM     10  O   UNL d   1      59.114  -0.179  31.164  0.00  0.00    -0.244 OA
ATOM     11  C   UNL d   1      59.898  -0.663  29.779  0.00  0.00     0.111 A 
ATOM     12  C   UNL d   1      58.650  -1.090  29.207  0.00  0.00     0.111 A 
ATOM     13  C   UNL d   1      60.293  -0.906  29.082  0.00  0.00     0.142 A 
ATOM     14  O   UNL d   1      59.855  -1.240  28.455  0.00  0.00    -0.300 OA
ATOM     15  C   UNL d   1      59.039  -1.330  28.520  0.00  0.00     0.142 A 
ENDBRANCH   1   7
BRANCH   2  16
ATOM     16  O   UNL d   1      56.322   0.357  33.343  0.00  0.00    -0.259 OA
BRANCH  16  17
ATOM     17  C   UNL d   1      55.503   0.440  33.347  0.00  0.00     0.377 C 
ATOM     18  N   UNL d   1      55.098   0.519  34.061  0.00  0.00    -0.252 N 
ATOM     19  C   UNL d   1      54.279   0.602  34.063  0.00  0.00     0.085 A 
ATOM     20  C   UNL d   1      55.512   0.514  34.772  0.00  0.00     0.085 A 
ATOM     21  C   UNL d   1      53.870   0.681  34.775  0.00  0.00     0.019 A 
ATOM     22  C   UNL d   1      54.283   0.676  35.487  0.00  0.00     0.003 A 
ATOM     23  C   UNL d   1      55.104   0.593  35.490  0.00  0.00     0.019 A 
ATOM     24  O   UNL d   1      55.087   0.445  32.639  0.00  0.00    -0.237 OA
ENDBRANCH  16  17
ENDBRANCH   2  16
TORSDOF 3
ENDMDL
