MODEL 1
REMARK VINA RESULT:      -4.5      0.000      0.000
REMARK  7 active torsions:
REMARK  status: ('A' for Active; 'I' for Inactive)
REMARK    1  A    between atoms: N_3  and  S_1 
REMARK    2  A    between atoms: C_8  and  S_1 
REMARK    3  A    between atoms: S_2  and  C_7 
REMARK    4  A    between atoms: N_9  and  S_2 
REMARK    5  A    between atoms: C_4  and  N_3 
REMARK       I    between atoms: C_5  and  N_10 
REMARK    6  A    between atoms: C_16  and  C_5 
REMARK    7  A    between atoms: N_10  and  C_24 
ROOT
ATOM      1  C   UNL d   1     -46.910  12.870  22.871  0.00  0.00     0.106 A 
ATOM      2  C   UNL d   1     -46.310  12.340  23.027  0.00  0.00     0.015 A 
ATOM      3  C   UNL d   1     -46.751  13.599  22.519  0.00  0.00     0.015 A 
ATOM      4  C   UNL d   1     -45.368  13.261  22.480  0.00  0.00     0.085 A 
ATOM      5  C   UNL d   1     -45.975  13.794  22.323  0.00  0.00     0.020 A 
ATOM      6  C   UNL d   1     -45.535  12.534  22.832  0.00  0.00     0.020 A 
ENDROOT
BRANCH   4   7
ATOM      7  N   UNL d   1     -44.582  13.461  22.281  0.00  0.00    -0.208 NA
ATOM      8  C   UNL d   1     -44.218  13.116  21.626  0.00  0.00     0.279 C 
ATOM      9  O   UNL d   1     -44.640  12.570  21.170  0.00  0.00    -0.265 OA
BRANCH   8  10
ATOM     10  C   UNL d   1     -43.444  13.315  21.432  0.00  0.00     0.058 A 
ATOM     11  C   UNL d   1     -43.235  14.102  21.302  0.00  0.00     0.005 A 
ATOM     12  C   UNL d   1     -42.465  14.304  21.108  0.00  0.00     0.013 A 
ATOM     13  C   UNL d   1     -41.880  13.715  21.041  0.00  0.00     0.104 A 
ATOM     14  C   UNL d   1     -42.095  12.916  21.174  0.00  0.00     0.013 A 
ATOM     15  C   UNL d   1     -42.862  12.715  21.366  0.00  0.00     0.005 A 
BRANCH  13  16
ATOM     16  S   UNL d   1     -41.100  13.921  20.845  0.00  0.00     0.271 S 
ATOM     17  O   UNL d   1     -41.350  14.166  20.093  0.00  0.00    -0.200 OA
ATOM     18  O   UNL d   1     -40.855  13.674  21.598  0.00  0.00    -0.200 OA
BRANCH  16  19
ATOM     19  N   UNL d   1     -40.324  14.125  20.650  0.00  0.00    -0.226 N 
ATOM     20  C   UNL d   1     -40.119  14.275  19.856  0.00  0.00     0.111 C 
ATOM     21  C   UNL d   1     -39.751  14.182  21.235  0.00  0.00     0.111 C 
ENDBRANCH  16  19
ENDBRANCH  13  16
ENDBRANCH   8  10
ENDBRANCH   4   7
BRANCH   1  22
ATOM     22  S   UNL d   1     -47.686  12.676  23.066  0.00  0.00     0.300 S 
ATOM     23  O   UNL d   1     -47.583  11.916  22.756  0.00  0.00    -0.198 OA
ATOM     24  O   UNL d   1     -47.805  13.427  23.379  0.00  0.00    -0.198 OA
BRANCH  22  25
ATOM     25  N   UNL d   1     -48.469  12.477  23.262  0.00  0.00     0.034 NA
BRANCH  25  26
ATOM     26  C   UNL d   1     -49.073  12.592  22.715  0.00  0.00     0.760 A 
ATOM     27  N   UNL d   1     -49.596  13.240  22.797  0.00  0.00    -0.059 NA
ATOM     28  C   UNL d   1     -50.201  13.355  22.249  0.00  0.00     0.102 A 
ATOM     29  C   UNL d   1     -50.717  13.993  22.330  0.00  0.00     0.021 C 
ATOM     30  C   UNL d   1     -50.289  12.831  21.621  0.00  0.00     0.041 A 
ATOM     31  C   UNL d   1     -49.765  12.183  21.538  0.00  0.00     0.120 A 
ATOM     32  N   UNL d   1     -49.167  12.074  22.086  0.00  0.00    -0.057 NA
ENDBRANCH  25  26
ENDBRANCH  22  25
ENDBRANCH   1  22
TORSDOF 7
ENDMDL
MODEL 2
REMARK VINA RESULT:      -4.2      1.075      6.984
REMARK  7 active torsions:
REMARK  status: ('A' for Active; 'I' for Inactive)
REMARK    1  A    between atoms: N_3  and  S_1 
REMARK    2  A    between atoms: C_8  and  S_1 
REMARK    3  A    between atoms: S_2  and  C_7 
REMARK    4  A    between atoms: N_9  and  S_2 
REMARK    5  A    between atoms: C_4  and  N_3 
REMARK       I    between atoms: C_5  and  N_10 
REMARK    6  A    between atoms: C_16  and  C_5 
REMARK    7  A    between atoms: N_10  and  C_24 
ROOT
ATOM      1  C   UNL d   1     -42.594  13.387  21.237  0.00  0.00     0.106 A 
ATOM      2  C   UNL d   1     -42.748  12.642  21.533  0.00  0.00     0.015 A 
ATOM      3  C   UNL d   1     -43.199  13.939  21.141  0.00  0.00     0.015 A 
ATOM      4  C   UNL d   1     -44.129  12.985  21.645  0.00  0.00     0.085 A 
ATOM      5  C   UNL d   1     -43.971  13.735  21.347  0.00  0.00     0.020 A 
ATOM      6  C   UNL d   1     -43.518  12.438  21.739  0.00  0.00     0.020 A 
ENDROOT
BRANCH   4   7
ATOM      7  N   UNL d   1     -44.912  12.781  21.853  0.00  0.00    -0.208 NA
ATOM      8  C   UNL d   1     -45.364  13.288  22.321  0.00  0.00     0.279 C 
ATOM      9  O   UNL d   1     -45.033  14.000  22.581  0.00  0.00    -0.265 OA
BRANCH   8  10
ATOM     10  C   UNL d   1     -46.134  13.084  22.524  0.00  0.00     0.058 A 
ATOM     11  C   UNL d   1     -46.762  13.275  22.024  0.00  0.00     0.005 A 
ATOM     12  C   UNL d   1     -47.531  13.073  22.224  0.00  0.00     0.013 A 
ATOM     13  C   UNL d   1     -47.689  12.672  22.936  0.00  0.00     0.104 A 
ATOM     14  C   UNL d   1     -47.050  12.480  23.442  0.00  0.00     0.013 A 
ATOM     15  C   UNL d   1     -46.283  12.681  23.243  0.00  0.00     0.005 A 
BRANCH  13  16
ATOM     16  S   UNL d   1     -48.469  12.468  23.137  0.00  0.00     0.271 S 
ATOM     17  O   UNL d   1     -48.316  11.677  22.941  0.00  0.00    -0.200 OA
ATOM     18  O   UNL d   1     -48.617  13.261  23.332  0.00  0.00    -0.200 OA
BRANCH  16  19
ATOM     19  N   UNL d   1     -49.244  12.266  23.337  0.00  0.00    -0.226 N 
ATOM     20  C   UNL d   1     -49.820  12.861  23.432  0.00  0.00     0.111 C 
ATOM     21  C   UNL d   1     -49.452  11.479  23.444  0.00  0.00     0.111 C 
ENDBRANCH  16  19
ENDBRANCH  13  16
ENDBRANCH   8  10
ENDBRANCH   4   7
BRANCH   1  22
ATOM     22  S   UNL d   1     -41.823  13.591  21.031  0.00  0.00     0.300 S 
ATOM     23  O   UNL d   1     -41.875  14.278  21.489  0.00  0.00    -0.198 OA
ATOM     24  O   UNL d   1     -41.756  12.912  20.571  0.00  0.00    -0.198 OA
BRANCH  22  25
ATOM     25  N   UNL d   1     -41.046  13.801  20.825  0.00  0.00     0.034 NA
BRANCH  25  26
ATOM     26  C   UNL d   1     -40.911  14.336  20.214  0.00  0.00     0.760 A 
ATOM     27  N   UNL d   1     -40.785  14.060  19.434  0.00  0.00    -0.059 NA
ATOM     28  C   UNL d   1     -40.649  14.596  18.823  0.00  0.00     0.102 A 
ATOM     29  C   UNL d   1     -40.525  14.324  18.055  0.00  0.00     0.021 C 
ATOM     30  C   UNL d   1     -40.639  15.403  18.982  0.00  0.00     0.041 A 
ATOM     31  C   UNL d   1     -40.765  15.679  19.762  0.00  0.00     0.120 A 
ATOM     32  N   UNL d   1     -40.899  15.141  20.365  0.00  0.00    -0.057 NA
ENDBRANCH  25  26
ENDBRANCH  22  25
ENDBRANCH   1  22
TORSDOF 7
ENDMDL
MODEL 3
REMARK VINA RESULT:      -4.1      1.886      7.575
REMARK  7 active torsions:
REMARK  status: ('A' for Active; 'I' for Inactive)
REMARK    1  A    between atoms: N_3  and  S_1 
REMARK    2  A    between atoms: C_8  and  S_1 
REMARK    3  A    between atoms: S_2  and  C_7 
REMARK    4  A    between atoms: N_9  and  S_2 
REMARK    5  A    between atoms: C_4  and  N_3 
REMARK       I    between atoms: C_5  and  N_10 
REMARK    6  A    between atoms: C_16  and  C_5 
REMARK    7  A    between atoms: N_10  and  C_24 
ROOT
ATOM      1  C   UNL d   1     -40.535  14.285  20.241  0.00  0.00     0.106 A 
ATOM      2  C   UNL d   1     -41.251  14.394  19.866  0.00  0.00     0.015 A 
ATOM      3  C   UNL d   1     -40.500  14.009  21.018  0.00  0.00     0.015 A 
ATOM      4  C   UNL d   1     -41.924  13.951  21.045  0.00  0.00     0.085 A 
ATOM      5  C   UNL d   1     -41.200  13.842  21.420  0.00  0.00     0.020 A 
ATOM      6  C   UNL d   1     -41.950  14.227  20.268  0.00  0.00     0.020 A 
ENDROOT
BRANCH   4   7
ATOM      7  N   UNL d   1     -42.631  13.781  21.454  0.00  0.00    -0.208 NA
ATOM      8  C   UNL d   1     -43.065  13.103  21.273  0.00  0.00     0.279 C 
ATOM      9  O   UNL d   1     -42.791  12.595  20.681  0.00  0.00    -0.265 OA
BRANCH   8  10
ATOM     10  C   UNL d   1     -43.761  12.938  21.678  0.00  0.00     0.058 A 
ATOM     11  C   UNL d   1     -44.412  13.441  21.612  0.00  0.00     0.005 A 
ATOM     12  C   UNL d   1     -45.107  13.279  22.014  0.00  0.00     0.013 A 
ATOM     13  C   UNL d   1     -45.166  12.604  22.497  0.00  0.00     0.104 A 
ATOM     14  C   UNL d   1     -44.503  12.095  22.563  0.00  0.00     0.013 A 
ATOM     15  C   UNL d   1     -43.811  12.256  22.162  0.00  0.00     0.005 A 
BRANCH  13  16
ATOM     16  S   UNL d   1     -45.871  12.441  22.905  0.00  0.00     0.271 S 
ATOM     17  O   UNL d   1     -46.267  13.014  22.454  0.00  0.00    -0.200 OA
ATOM     18  O   UNL d   1     -45.470  11.870  23.353  0.00  0.00    -0.200 OA
BRANCH  16  19
ATOM     19  N   UNL d   1     -46.572  12.279  23.310  0.00  0.00    -0.226 N 
ATOM     20  C   UNL d   1     -47.175  12.854  23.347  0.00  0.00     0.111 C 
ATOM     21  C   UNL d   1     -46.680  11.554  23.679  0.00  0.00     0.111 C 
ENDBRANCH  16  19
ENDBRANCH  13  16
ENDBRANCH   8  10
ENDBRANCH   4   7
BRANCH   1  22
ATOM     22  S   UNL d   1     -39.835  14.452  19.840  0.00  0.00     0.300 S 
ATOM     23  O   UNL d   1     -40.212  15.055  19.418  0.00  0.00    -0.198 OA
ATOM     24  O   UNL d   1     -39.446  13.855  20.252  0.00  0.00    -0.198 OA
BRANCH  22  25
ATOM     25  N   UNL d   1     -39.131  14.622  19.434  0.00  0.00     0.034 NA
BRANCH  25  26
ATOM     26  C   UNL d   1     -38.940  14.209  18.748  0.00  0.00     0.760 A 
ATOM     27  N   UNL d   1     -39.081  14.554  17.998  0.00  0.00    -0.059 NA
ATOM     28  C   UNL d   1     -38.890  14.141  17.311  0.00  0.00     0.102 A 
ATOM     29  C   UNL d   1     -39.028  14.480  16.572  0.00  0.00     0.021 C 
ATOM     30  C   UNL d   1     -38.561  13.388  17.365  0.00  0.00     0.041 A 
ATOM     31  C   UNL d   1     -38.420  13.043  18.115  0.00  0.00     0.120 A 
ATOM     32  N   UNL d   1     -38.613  13.460  18.793  0.00  0.00    -0.057 NA
ENDBRANCH  25  26
ENDBRANCH  22  25
ENDBRANCH   1  22
TORSDOF 7
ENDMDL
