MODEL 1
REMARK VINA RESULT:      48.3      0.000      0.000
REMARK  6 active torsions:
REMARK  status: ('A' for Active; 'I' for Inactive)
REMARK    1  A    between atoms: C_3  and  C_1 
REMARK    2  A    between atoms: C_7  and  C_2 
REMARK       I    between atoms: N_5  and  C_3 
REMARK    3  A    between atoms: C_6  and  N_5 
REMARK    4  A    between atoms: N_10  and  C_6 
REMARK    5  A    between atoms: C_11  and  N_10 
REMARK    6  A    between atoms: O_18  and  C_15 
ROOT
ATOM      1  C   UNL d   1      14.243  13.533  -3.061  0.00  0.00     0.285 C 
ATOM      2  N   UNL d   1      14.018  14.316  -3.125  0.00  0.00    -0.179 NA
ATOM      3  O   UNL d   1      15.018  13.355  -2.831  0.00  0.00    -0.265 OA
ENDROOT
BRANCH   1   4
ATOM      4  C   UNL d   1      13.725  12.921  -3.217  0.00  0.00     0.103 A 
ATOM      5  C   UNL d   1      13.617  12.258  -2.736  0.00  0.00     0.116 A 
ATOM      6  N   UNL d   1      13.050  11.782  -3.094  0.00  0.00    -0.126 NA
ATOM      7  O   UNL d   1      12.806  12.148  -3.792  0.00  0.00    -0.211 OA
ATOM      8  C   UNL d   1      13.224  12.841  -3.859  0.00  0.00     0.131 A 
ATOM      9  C   UNL d   1      13.153  13.378  -4.473  0.00  0.00     0.029 C 
BRANCH   5  10
ATOM     10  C   UNL d   1      14.006  12.102  -2.029  0.00  0.00     0.031 A 
ATOM     11  C   UNL d   1      13.589  12.095  -1.324  0.00  0.00     0.059 A 
ATOM     12 CL   UNL d   1      12.782  12.245  -1.325  0.00  0.00    -0.082 Cl
ATOM     13  C   UNL d   1      13.980  11.940  -0.625  0.00  0.00     0.011 A 
ATOM     14  C   UNL d   1      14.794  11.788  -0.621  0.00  0.00     0.001 A 
ATOM     15  C   UNL d   1      15.205  11.797  -1.333  0.00  0.00     0.000 A 
ATOM     16  C   UNL d   1      14.819  11.953  -2.047  0.00  0.00     0.002 A 
ENDBRANCH   5  10
ENDBRANCH   1   4
BRANCH   2  17
ATOM     17  C   UNL d   1      14.537  14.927  -2.968  0.00  0.00     0.224 C 
ATOM     18  S   UNL d   1      14.793  15.406  -3.592  0.00  0.00    -0.037 SA
BRANCH  17  19
ATOM     19  N   UNL d   1      14.806  15.075  -2.207  0.00  0.00    -0.215 NA
BRANCH  19  20
ATOM     20  C   UNL d   1      14.911  15.847  -1.959  0.00  0.00     0.106 A 
ATOM     21  C   UNL d   1      15.280  15.999  -1.224  0.00  0.00     0.112 A 
ATOM     22  C   UNL d   1      15.386  16.780  -0.973  0.00  0.00     0.026 A 
ATOM     23  C   UNL d   1      15.127  17.405  -1.446  0.00  0.00     0.002 A 
ATOM     24  C   UNL d   1      14.761  17.260  -2.174  0.00  0.00     0.002 A 
ATOM     25  C   UNL d   1      14.653  16.480  -2.429  0.00  0.00     0.021 A 
BRANCH  21  26
ATOM     26  O   UNL d   1      15.534  15.373  -0.760  0.00  0.00    -0.327 OA
ATOM     27  C   UNL d   1      15.201  15.252  -0.020  0.00  0.00     0.181 C 
ENDBRANCH  21  26
ENDBRANCH  19  20
ENDBRANCH  17  19
ENDBRANCH   2  17
TORSDOF 6
ENDMDL
MODEL 2
REMARK VINA RESULT:      50.9      1.665      3.956
REMARK  6 active torsions:
REMARK  status: ('A' for Active; 'I' for Inactive)
REMARK    1  A    between atoms: C_3  and  C_1 
REMARK    2  A    between atoms: C_7  and  C_2 
REMARK       I    between atoms: N_5  and  C_3 
REMARK    3  A    between atoms: C_6  and  N_5 
REMARK    4  A    between atoms: N_10  and  C_6 
REMARK    5  A    between atoms: C_11  and  N_10 
REMARK    6  A    between atoms: O_18  and  C_15 
ROOT
ATOM      1  C   UNL d   1      14.179  13.571  -1.661  0.00  0.00     0.285 C 
ATOM      2  N   UNL d   1      14.153  13.355  -2.449  0.00  0.00    -0.179 NA
ATOM      3  O   UNL d   1      13.855  14.297  -1.433  0.00  0.00    -0.265 OA
ENDROOT
BRANCH   1   4
ATOM      4  C   UNL d   1      14.517  13.090  -1.094  0.00  0.00     0.103 A 
ATOM      5  C   UNL d   1      15.008  13.352  -0.483  0.00  0.00     0.116 A 
ATOM      6  N   UNL d   1      15.225  12.695  -0.040  0.00  0.00    -0.126 NA
ATOM      7  O   UNL d   1      14.870  12.028  -0.372  0.00  0.00    -0.211 OA
ATOM      8  C   UNL d   1      14.440  12.279  -1.014  0.00  0.00     0.131 A 
ATOM      9  C   UNL d   1      13.999  11.796  -1.506  0.00  0.00     0.029 C 
BRANCH   5  10
ATOM     10  C   UNL d   1      15.239  14.129  -0.345  0.00  0.00     0.031 A 
ATOM     11  C   UNL d   1      16.021  14.299  -0.167  0.00  0.00     0.059 A 
ATOM     12 CL   UNL d   1      16.573  13.693  -0.128  0.00  0.00    -0.082 Cl
ATOM     13  C   UNL d   1      16.246  15.072  -0.031  0.00  0.00     0.011 A 
ATOM     14  C   UNL d   1      15.691  15.685  -0.070  0.00  0.00     0.001 A 
ATOM     15  C   UNL d   1      14.909  15.506  -0.248  0.00  0.00     0.000 A 
ATOM     16  C   UNL d   1      14.670  14.727  -0.389  0.00  0.00     0.002 A 
ENDBRANCH   5  10
ENDBRANCH   1   4
BRANCH   2  17
ATOM     17  C   UNL d   1      13.816  13.835  -3.017  0.00  0.00     0.224 C 
ATOM     18  S   UNL d   1      14.230  14.502  -3.276  0.00  0.00    -0.037 SA
BRANCH  17  19
ATOM     19  N   UNL d   1      13.076  13.669  -3.333  0.00  0.00    -0.215 NA
BRANCH  19  20
ATOM     20  C   UNL d   1      13.015  13.161  -3.971  0.00  0.00     0.106 A 
ATOM     21  C   UNL d   1      13.141  13.451  -4.745  0.00  0.00     0.112 A 
ATOM     22  C   UNL d   1      13.079  12.938  -5.390  0.00  0.00     0.026 A 
ATOM     23  C   UNL d   1      12.895  12.143  -5.269  0.00  0.00     0.002 A 
ATOM     24  C   UNL d   1      12.769  11.850  -4.505  0.00  0.00     0.002 A 
ATOM     25  C   UNL d   1      12.830  12.361  -3.857  0.00  0.00     0.021 A 
BRANCH  21  26
ATOM     26  O   UNL d   1      13.325  14.243  -4.857  0.00  0.00    -0.327 OA
ATOM     27  C   UNL d   1      13.431  14.534  -5.617  0.00  0.00     0.181 C 
ENDBRANCH  21  26
ENDBRANCH  19  20
ENDBRANCH  17  19
ENDBRANCH   2  17
TORSDOF 6
ENDMDL
