MODEL 1
REMARK VINA RESULT:      11.3      0.000      0.000
REMARK  4 active torsions:
REMARK  status: ('A' for Active; 'I' for Inactive)
REMARK    1  A    between atoms: C_10  and  N_1 
REMARK       I    between atoms: C_3  and  N_9 
REMARK    2  A    between atoms: C_6  and  C_3 
REMARK    3  A    between atoms: N_9  and  C_11 
REMARK    4  A    between atoms: C_11  and  C_10 
ROOT
ATOM      1  N   UNL d   1      46.064 -17.374  44.080  0.00  0.00    -0.303 N 
ATOM      2  C   UNL d   1      46.092 -17.217  43.267  0.00  0.00     0.080 A 
ATOM      3  C   UNL d   1      46.245 -18.177  44.186  0.00  0.00     0.064 A 
ATOM      4  C   UNL d   1      46.289 -17.916  42.878  0.00  0.00     0.021 A 
ATOM      5  C   UNL d   1      46.384 -18.510  43.442  0.00  0.00     0.018 A 
ATOM      6  C   UNL d   1      46.298 -18.634  44.868  0.00  0.00     0.018 A 
ATOM      7  C   UNL d   1      46.577 -19.308  43.388  0.00  0.00     0.002 A 
ATOM      8  C   UNL d   1      46.492 -19.432  44.814  0.00  0.00     0.002 A 
ATOM      9  C   UNL d   1      46.635 -19.782  44.069  0.00  0.00     0.000 A 
ENDROOT
BRANCH   1  10
ATOM     10  C   UNL d   1      45.887 -16.827  44.672  0.00  0.00     0.101 C 
BRANCH  10  11
ATOM     11  C   UNL d   1      45.756 -16.037  44.476  0.00  0.00     0.121 C 
BRANCH  11  12
ATOM     12  N   UNL d   1      45.078 -15.653  44.749  0.00  0.00    -0.209 NA
ATOM     13  C   UNL d   1      44.997 -14.839  44.658  0.00  0.00     0.255 C 
ATOM     14  O   UNL d   1      44.320 -14.454  44.930  0.00  0.00    -0.270 OA
BRANCH  13  15
ATOM     15  C   UNL d   1      45.601 -14.403  44.290  0.00  0.00     0.073 C 
ATOM     16  C   UNL d   1      46.090 -14.525  44.950  0.00  0.00     0.009 C 
ATOM     17  C   UNL d   1      46.197 -13.971  43.922  0.00  0.00     0.009 C 
ATOM     18  C   UNL d   1      45.109 -14.288  43.641  0.00  0.00     0.009 C 
ENDBRANCH  13  15
ENDBRANCH  11  12
ENDBRANCH  10  11
ENDBRANCH   1  10
TORSDOF 4
ENDMDL
MODEL 2
REMARK VINA RESULT:      13.3      1.494      4.147
REMARK  4 active torsions:
REMARK  status: ('A' for Active; 'I' for Inactive)
REMARK    1  A    between atoms: C_10  and  N_1 
REMARK       I    between atoms: C_3  and  N_9 
REMARK    2  A    between atoms: C_6  and  C_3 
REMARK    3  A    between atoms: N_9  and  C_11 
REMARK    4  A    between atoms: C_11  and  C_10 
ROOT
ATOM      1  N   UNL d   1      45.617 -16.009  44.569  0.00  0.00    -0.303 N 
ATOM      2  C   UNL d   1      44.849 -16.178  44.830  0.00  0.00     0.080 A 
ATOM      3  C   UNL d   1      45.692 -15.183  44.530  0.00  0.00     0.064 A 
ATOM      4  C   UNL d   1      44.456 -15.464  44.950  0.00  0.00     0.021 A 
ATOM      5  C   UNL d   1      44.974 -14.849  44.766  0.00  0.00     0.018 A 
ATOM      6  C   UNL d   1      46.326 -14.708  44.310  0.00  0.00     0.018 A 
ATOM      7  C   UNL d   1      44.897 -14.030  44.779  0.00  0.00     0.002 A 
ATOM      8  C   UNL d   1      46.249 -13.889  44.323  0.00  0.00     0.002 A 
ATOM      9  C   UNL d   1      45.529 -13.536  44.558  0.00  0.00     0.000 A 
ENDROOT
BRANCH   1  10
ATOM     10  C   UNL d   1      46.197 -16.565  44.383  0.00  0.00     0.101 C 
BRANCH  10  11
ATOM     11  C   UNL d   1      45.983 -17.289  44.053  0.00  0.00     0.121 C 
BRANCH  11  12
ATOM     12  N   UNL d   1      46.279 -17.990  44.372  0.00  0.00    -0.209 NA
ATOM     13  C   UNL d   1      46.351 -18.663  43.902  0.00  0.00     0.255 C 
ATOM     14  O   UNL d   1      46.647 -19.364  44.220  0.00  0.00    -0.270 OA
BRANCH  13  15
ATOM     15  C   UNL d   1      46.123 -18.634  43.104  0.00  0.00     0.073 C 
ATOM     16  C   UNL d   1      45.598 -19.264  43.232  0.00  0.00     0.009 C 
ATOM     17  C   UNL d   1      45.901 -18.602  42.313  0.00  0.00     0.009 C 
ATOM     18  C   UNL d   1      46.646 -18.010  42.988  0.00  0.00     0.009 C 
ENDBRANCH  13  15
ENDBRANCH  11  12
ENDBRANCH  10  11
ENDBRANCH   1  10
TORSDOF 4
ENDMDL
