MODEL 1
REMARK VINA RESULT:      -7.8      0.000      0.000
REMARK  2 active torsions:
REMARK  status: ('A' for Active; 'I' for Inactive)
REMARK    1  A    between atoms: C_5  and  C_1 
REMARK    2  A    between atoms: N_7  and  C_3 
REMARK       I    between atoms: C_8  and  N_7 
ROOT
ATOM      1  C   UNL d   1      53.665  33.132  53.887  0.00  0.00     0.231 A 
ATOM      2  O   UNL d   1      53.252  32.434  54.045  0.00  0.00    -0.252 OA
ATOM      3  C   UNL d   1      53.694  31.806  53.745  0.00  0.00     0.297 A 
ATOM      4  N   UNL d   1      54.354  32.930  53.494  0.00  0.00    -0.117 NA
ATOM      5  N   UNL d   1      54.372  32.113  53.406  0.00  0.00    -0.101 NA
ENDROOT
BRANCH   1   6
ATOM      6  C   UNL d   1      53.417  33.895  54.094  0.00  0.00     0.168 A 
ATOM      7  O   UNL d   1      52.968  34.332  53.565  0.00  0.00    -0.297 OA
ATOM      8  C   UNL d   1      52.725  35.083  53.768  0.00  0.00     0.149 A 
ATOM      9  C   UNL d   1      52.925  35.401  54.496  0.00  0.00     0.149 A 
ATOM     10  O   UNL d   1      53.373  34.972  55.032  0.00  0.00    -0.299 OA
ATOM     11  C   UNL d   1      53.619  34.218  54.829  0.00  0.00     0.151 A 
ENDBRANCH   1   6
BRANCH   3  12
ATOM     12  N   UNL d   1      53.480  31.013  53.785  0.00  0.00    -0.165 NA
ATOM     13  C   UNL d   1      53.055  30.669  53.182  0.00  0.00     0.282 C 
ATOM     14  O   UNL d   1      52.830  31.115  52.516  0.00  0.00    -0.265 OA
ATOM     15  C   UNL d   1      52.841  29.872  53.223  0.00  0.00     0.068 C 
ENDBRANCH   3  12
TORSDOF 2
ENDMDL
MODEL 2
REMARK VINA RESULT:      -7.3      0.815      3.608
REMARK  2 active torsions:
REMARK  status: ('A' for Active; 'I' for Inactive)
REMARK    1  A    between atoms: C_5  and  C_1 
REMARK    2  A    between atoms: N_7  and  C_3 
REMARK       I    between atoms: C_8  and  N_7 
ROOT
ATOM      1  C   UNL d   1      53.607  32.216  53.739  0.00  0.00     0.231 A 
ATOM      2  O   UNL d   1      53.155  32.784  54.136  0.00  0.00    -0.252 OA
ATOM      3  C   UNL d   1      53.616  33.462  54.216  0.00  0.00     0.297 A 
ATOM      4  N   UNL d   1      54.338  32.547  53.580  0.00  0.00    -0.117 NA
ATOM      5  N   UNL d   1      54.344  33.315  53.874  0.00  0.00    -0.101 NA
ENDROOT
BRANCH   1   6
ATOM      6  C   UNL d   1      53.355  31.452  53.544  0.00  0.00     0.168 A 
ATOM      7  O   UNL d   1      53.650  30.810  53.960  0.00  0.00    -0.297 OA
ATOM      8  C   UNL d   1      53.402  30.058  53.767  0.00  0.00     0.149 A 
ATOM      9  C   UNL d   1      52.862  29.941  53.163  0.00  0.00     0.149 A 
ATOM     10  O   UNL d   1      52.561  30.576  52.741  0.00  0.00    -0.299 OA
ATOM     11  C   UNL d   1      52.809  31.332  52.933  0.00  0.00     0.151 A 
ENDBRANCH   1   6
BRANCH   3  12
ATOM     12  N   UNL d   1      53.376  34.160  54.579  0.00  0.00    -0.165 NA
ATOM     13  C   UNL d   1      53.095  34.781  54.134  0.00  0.00     0.282 C 
ATOM     14  O   UNL d   1      53.047  34.719  53.305  0.00  0.00    -0.265 OA
ATOM     15  C   UNL d   1      52.854  35.482  54.500  0.00  0.00     0.068 C 
ENDBRANCH   3  12
TORSDOF 2
ENDMDL
MODEL 3
REMARK VINA RESULT:      -7.1      1.947      2.828
REMARK  2 active torsions:
REMARK  status: ('A' for Active; 'I' for Inactive)
REMARK    1  A    between atoms: C_5  and  C_1 
REMARK    2  A    between atoms: N_7  and  C_3 
REMARK       I    between atoms: C_8  and  N_7 
ROOT
ATOM      1  C   UNL d   1      52.928  33.094  53.755  0.00  0.00     0.231 A 
ATOM      2  O   UNL d   1      52.257  33.572  53.825  0.00  0.00    -0.252 OA
ATOM      3  C   UNL d   1      51.675  33.266  53.329  0.00  0.00     0.297 A 
ATOM      4  N   UNL d   1      52.754  32.500  53.218  0.00  0.00    -0.117 NA
ATOM      5  N   UNL d   1      51.982  32.607  52.956  0.00  0.00    -0.101 NA
ENDROOT
BRANCH   1   6
ATOM      6  C   UNL d   1      53.642  33.204  54.158  0.00  0.00     0.168 A 
ATOM      7  O   UNL d   1      53.633  33.512  54.919  0.00  0.00    -0.297 OA
ATOM      8  C   UNL d   1      54.336  33.620  55.317  0.00  0.00     0.149 A 
ATOM      9  C   UNL d   1      55.048  33.424  54.962  0.00  0.00     0.149 A 
ATOM     10  O   UNL d   1      55.068  33.117  54.202  0.00  0.00    -0.299 OA
ATOM     11  C   UNL d   1      54.362  33.007  53.802  0.00  0.00     0.151 A 
ENDBRANCH   1   6
BRANCH   3  12
ATOM     12  N   UNL d   1      50.920  33.578  53.233  0.00  0.00    -0.165 NA
ATOM     13  C   UNL d   1      50.762  34.094  52.623  0.00  0.00     0.282 C 
ATOM     14  O   UNL d   1      51.361  34.314  52.089  0.00  0.00    -0.265 OA
ATOM     15  C   UNL d   1      50.003  34.407  52.528  0.00  0.00     0.068 C 
ENDBRANCH   3  12
TORSDOF 2
ENDMDL
MODEL 4
REMARK VINA RESULT:      -6.9      1.843      2.773
REMARK  2 active torsions:
REMARK  status: ('A' for Active; 'I' for Inactive)
REMARK    1  A    between atoms: C_5  and  C_1 
REMARK    2  A    between atoms: N_7  and  C_3 
REMARK       I    between atoms: C_8  and  N_7 
ROOT
ATOM      1  C   UNL d   1      52.526  33.295  53.191  0.00  0.00     0.231 A 
ATOM      2  O   UNL d   1      53.106  33.748  53.568  0.00  0.00    -0.252 OA
ATOM      3  C   UNL d   1      53.752  33.260  53.716  0.00  0.00     0.297 A 
ATOM      4  N   UNL d   1      52.820  32.535  53.111  0.00  0.00    -0.117 NA
ATOM      5  N   UNL d   1      53.575  32.513  53.434  0.00  0.00    -0.101 NA
ENDROOT
BRANCH   1   6
ATOM      6  C   UNL d   1      51.786  33.569  52.944  0.00  0.00     0.168 A 
ATOM      7  O   UNL d   1      51.728  34.019  52.260  0.00  0.00    -0.297 OA
ATOM      8  C   UNL d   1      50.999  34.289  52.017  0.00  0.00     0.149 A 
ATOM      9  C   UNL d   1      50.326  34.114  52.450  0.00  0.00     0.149 A 
ATOM     10  O   UNL d   1      50.372  33.665  53.134  0.00  0.00    -0.299 OA
ATOM     11  C   UNL d   1      51.104  33.393  53.380  0.00  0.00     0.151 A 
ENDBRANCH   1   6
BRANCH   3  12
ATOM     12  N   UNL d   1      54.450  33.494  54.084  0.00  0.00    -0.165 NA
ATOM     13  C   UNL d   1      54.569  33.344  54.875  0.00  0.00     0.282 C 
ATOM     14  O   UNL d   1      53.987  32.953  55.324  0.00  0.00    -0.265 OA
ATOM     15  C   UNL d   1      55.270  33.580  55.244  0.00  0.00     0.068 C 
ENDBRANCH   3  12
TORSDOF 2
ENDMDL
