MODEL 1
REMARK VINA RESULT:      26.4      0.000      0.000
REMARK  2 active torsions:
REMARK  status: ('A' for Active; 'I' for Inactive)
REMARK    1  A    between atoms: C_7  and  C_1 
REMARK    2  A    between atoms: C_8  and  C_7 
ROOT
ATOM      1  C   UNL d   1     -51.431  25.014  33.362  0.00  0.00     0.118 A 
ATOM      2  N   UNL d   1     -52.857  25.089  33.418  0.00  0.00    -0.178 NA
ATOM      3  N   UNL d   1     -52.208  23.821  33.472  0.00  0.00    -0.178 NA
ATOM      4  C   UNL d   1     -52.121  25.464  33.362  0.00  0.00     0.286 A 
ATOM      5  C   UNL d   1     -51.472  24.196  33.416  0.00  0.00     0.286 A 
ATOM      6  C   UNL d   1     -52.917  24.258  33.474  0.00  0.00     0.226 A 
ATOM      7  S   UNL d   1     -53.649  23.886  33.530  0.00  0.00    -0.037 SA
ATOM      8  O   UNL d   1     -52.089  26.298  33.307  0.00  0.00    -0.265 OA
ATOM      9  O   UNL d   1     -50.775  23.733  33.417  0.00  0.00    -0.265 OA
ENDROOT
BRANCH   1  10
ATOM     10  C   UNL d   1     -50.692  25.390  33.306  0.00  0.00     0.034 C 
BRANCH  10  11
ATOM     11  C   UNL d   1     -50.590  26.128  33.639  0.00  0.00     0.100 A 
ATOM     12  O   UNL d   1     -50.107  26.211  34.307  0.00  0.00    -0.307 OA
ATOM     13  C   UNL d   1     -50.111  27.009  34.516  0.00  0.00     0.100 A 
ATOM     14  C   UNL d   1     -49.703  27.348  35.152  0.00  0.00     0.027 C 
ATOM     15  C   UNL d   1     -50.581  27.404  33.994  0.00  0.00     0.027 A 
ATOM     16  C   UNL d   1     -50.890  26.876  33.440  0.00  0.00     0.027 A 
ENDBRANCH  10  11
ENDBRANCH   1  10
TORSDOF 2
ENDMDL
MODEL 2
REMARK VINA RESULT:      27.6      1.777      3.096
REMARK  2 active torsions:
REMARK  status: ('A' for Active; 'I' for Inactive)
REMARK    1  A    between atoms: C_7  and  C_1 
REMARK    2  A    between atoms: C_8  and  C_7 
ROOT
ATOM      1  C   UNL d   1     -52.044  25.266  33.392  0.00  0.00     0.118 A 
ATOM      2  N   UNL d   1     -51.402  26.531  33.561  0.00  0.00    -0.178 NA
ATOM      3  N   UNL d   1     -50.621  25.342  33.477  0.00  0.00    -0.178 NA
ATOM      4  C   UNL d   1     -52.093  26.084  33.476  0.00  0.00     0.286 A 
ATOM      5  C   UNL d   1     -51.312  24.894  33.392  0.00  0.00     0.286 A 
ATOM      6  C   UNL d   1     -50.649  26.170  33.563  0.00  0.00     0.226 A 
ATOM      7  S   UNL d   1     -49.962  26.615  33.648  0.00  0.00    -0.037 SA
ATOM      8  O   UNL d   1     -52.835  26.471  33.476  0.00  0.00    -0.265 OA
ATOM      9  O   UNL d   1     -51.256  24.064  33.307  0.00  0.00    -0.265 OA
ENDROOT
BRANCH   1  10
ATOM     10  C   UNL d   1     -52.738  24.817  33.306  0.00  0.00     0.034 C 
BRANCH  10  11
ATOM     11  C   UNL d   1     -52.924  24.254  33.868  0.00  0.00     0.100 A 
ATOM     12  O   UNL d   1     -52.892  24.454  34.671  0.00  0.00    -0.307 OA
ATOM     13  C   UNL d   1     -53.107  23.783  35.101  0.00  0.00     0.100 A 
ATOM     14  C   UNL d   1     -53.152  23.726  35.925  0.00  0.00     0.027 C 
ATOM     15  C   UNL d   1     -53.265  23.190  34.578  0.00  0.00     0.027 A 
ATOM     16  C   UNL d   1     -53.158  23.460  33.806  0.00  0.00     0.027 A 
ENDBRANCH  10  11
ENDBRANCH   1  10
TORSDOF 2
ENDMDL
