MODEL 1
REMARK VINA RESULT:      -8.4      0.000      0.000
REMARK  4 active torsions:
REMARK  status: ('A' for Active; 'I' for Inactive)
REMARK    1  A    between atoms: C_11  and  C_3 
REMARK    2  A    between atoms: N_10  and  C_4 
REMARK    3  A    between atoms: C_13  and  N_10 
REMARK    4  A    between atoms: C_14  and  C_13 
ROOT
ATOM      1  C   UNL d   1      52.621  33.935  53.732  0.00  0.00     0.167 A 
ATOM      2  N   UNL d   1      51.998  34.405  53.468  0.00  0.00    -0.195 N 
ATOM      3  C   UNL d   1      53.140  34.416  54.144  0.00  0.00     0.057 A 
ATOM      4  C   UNL d   1      51.385  34.069  53.033  0.00  0.00     0.167 A 
ATOM      5  N   UNL d   1      52.137  35.171  53.719  0.00  0.00    -0.161 NA
ATOM      6  N   UNL d   1      52.632  33.131  53.562  0.00  0.00    -0.227 NA
ATOM      7  C   UNL d   1      51.399  33.259  52.862  0.00  0.00     0.058 A 
ATOM      8  C   UNL d   1      52.834  35.182  54.132  0.00  0.00     0.124 A 
ATOM      9  C   UNL d   1      52.015  32.794  53.124  0.00  0.00     0.086 A 
ATOM     10  C   UNL d   1      52.007  31.989  52.942  0.00  0.00     0.021 C 
ENDROOT
BRANCH   4  11
ATOM     11  N   UNL d   1      50.762  34.539  52.768  0.00  0.00    -0.224 NA
BRANCH  11  12
ATOM     12  C   UNL d   1      50.032  34.198  52.604  0.00  0.00     0.120 C 
BRANCH  12  13
ATOM     13  C   UNL d   1      49.384  34.680  52.400  0.00  0.00     0.101 A 
ATOM     14  N   UNL d   1      49.042  35.180  52.966  0.00  0.00    -0.242 NA
ATOM     15  C   UNL d   1      48.405  35.653  52.766  0.00  0.00     0.099 A 
ATOM     16  C   UNL d   1      48.097  35.636  51.997  0.00  0.00     0.021 A 
ATOM     17  C   UNL d   1      48.439  35.138  51.435  0.00  0.00     0.003 A 
ATOM     18  C   UNL d   1      49.083  34.658  51.637  0.00  0.00     0.021 A 
ENDBRANCH  12  13
ENDBRANCH  11  12
ENDBRANCH   4  11
BRANCH   3  19
ATOM     19  C   UNL d   1      53.827  34.105  54.481  0.00  0.00     0.004 A 
ATOM     20  C   UNL d   1      53.801  33.810  55.254  0.00  0.00     0.000 A 
ATOM     21  C   UNL d   1      54.480  33.499  55.596  0.00  0.00     0.000 A 
ATOM     22  C   UNL d   1      55.192  33.480  55.166  0.00  0.00     0.000 A 
ATOM     23  C   UNL d   1      55.209  33.775  54.397  0.00  0.00     0.000 A 
ATOM     24  C   UNL d   1      54.525  34.087  54.056  0.00  0.00     0.000 A 
ENDBRANCH   3  19
TORSDOF 4
ENDMDL
MODEL 2
REMARK VINA RESULT:      -7.5      2.136      3.422
REMARK  4 active torsions:
REMARK  status: ('A' for Active; 'I' for Inactive)
REMARK    1  A    between atoms: C_11  and  C_3 
REMARK    2  A    between atoms: N_10  and  C_4 
REMARK    3  A    between atoms: C_13  and  N_10 
REMARK    4  A    between atoms: C_14  and  C_13 
ROOT
ATOM      1  C   UNL d   1      53.183  31.232  53.677  0.00  0.00     0.167 A 
ATOM      2  N   UNL d   1      52.802  31.737  53.150  0.00  0.00    -0.195 N 
ATOM      3  C   UNL d   1      52.996  30.463  53.468  0.00  0.00     0.057 A 
ATOM      4  C   UNL d   1      52.888  32.551  53.224  0.00  0.00     0.167 A 
ATOM      5  N   UNL d   1      52.383  31.275  52.620  0.00  0.00    -0.161 NA
ATOM      6  N   UNL d   1      53.651  31.541  54.279  0.00  0.00    -0.227 NA
ATOM      7  C   UNL d   1      53.359  32.861  53.830  0.00  0.00     0.058 A 
ATOM      8  C   UNL d   1      52.499  30.496  52.811  0.00  0.00     0.124 A 
ATOM      9  C   UNL d   1      53.737  32.362  54.352  0.00  0.00     0.086 A 
ATOM     10  C   UNL d   1      54.202  32.694  54.949  0.00  0.00     0.021 C 
ENDROOT
BRANCH   4  11
ATOM     11  N   UNL d   1      52.506  33.056  52.696  0.00  0.00    -0.224 NA
BRANCH  11  12
ATOM     12  C   UNL d   1      52.156  33.748  52.970  0.00  0.00     0.120 C 
BRANCH  12  13
ATOM     13  C   UNL d   1      51.448  34.021  52.626  0.00  0.00     0.101 A 
ATOM     14  N   UNL d   1      51.392  34.114  51.805  0.00  0.00    -0.242 NA
ATOM     15  C   UNL d   1      50.695  34.382  51.467  0.00  0.00     0.099 A 
ATOM     16  C   UNL d   1      50.042  34.561  51.945  0.00  0.00     0.021 A 
ATOM     17  C   UNL d   1      50.100  34.468  52.762  0.00  0.00     0.003 A 
ATOM     18  C   UNL d   1      50.804  34.197  53.104  0.00  0.00     0.021 A 
ENDBRANCH  12  13
ENDBRANCH  11  12
ENDBRANCH   4  11
BRANCH   3  19
ATOM     19  C   UNL d   1      53.298  29.823  53.897  0.00  0.00     0.004 A 
ATOM     20  C   UNL d   1      52.881  29.545  54.556  0.00  0.00     0.000 A 
ATOM     21  C   UNL d   1      53.175  28.911  54.986  0.00  0.00     0.000 A 
ATOM     22  C   UNL d   1      53.889  28.548  54.762  0.00  0.00     0.000 A 
ATOM     23  C   UNL d   1      54.298  28.832  54.105  0.00  0.00     0.000 A 
ATOM     24  C   UNL d   1      54.000  29.470  53.673  0.00  0.00     0.000 A 
ENDBRANCH   3  19
TORSDOF 4
ENDMDL
MODEL 3
REMARK VINA RESULT:      -6.7      1.020      1.718
REMARK  4 active torsions:
REMARK  status: ('A' for Active; 'I' for Inactive)
REMARK    1  A    between atoms: C_11  and  C_3 
REMARK    2  A    between atoms: N_10  and  C_4 
REMARK    3  A    between atoms: C_13  and  N_10 
REMARK    4  A    between atoms: C_14  and  C_13 
ROOT
ATOM      1  C   UNL d   1      52.336  33.617  53.413  0.00  0.00     0.167 A 
ATOM      2  N   UNL d   1      51.636  33.562  52.981  0.00  0.00    -0.195 N 
ATOM      3  C   UNL d   1      52.720  32.897  53.359  0.00  0.00     0.057 A 
ATOM      4  C   UNL d   1      51.129  34.209  52.935  0.00  0.00     0.167 A 
ATOM      5  N   UNL d   1      51.595  32.809  52.665  0.00  0.00    -0.161 NA
ATOM      6  N   UNL d   1      52.529  34.318  53.798  0.00  0.00    -0.227 NA
ATOM      7  C   UNL d   1      51.326  34.914  53.323  0.00  0.00     0.058 A 
ATOM      8  C   UNL d   1      52.255  32.399  52.894  0.00  0.00     0.124 A 
ATOM      9  C   UNL d   1      52.018  34.968  53.750  0.00  0.00     0.086 A 
ATOM     10  C   UNL d   1      52.193  35.681  54.129  0.00  0.00     0.021 C 
ENDROOT
BRANCH   4  11
ATOM     11  N   UNL d   1      50.429  34.154  52.504  0.00  0.00    -0.224 NA
BRANCH  11  12
ATOM     12  C   UNL d   1      49.884  34.769  52.525  0.00  0.00     0.120 C 
BRANCH  12  13
ATOM     13  C   UNL d   1      49.262  34.794  51.972  0.00  0.00     0.101 A 
ATOM     14  N   UNL d   1      49.363  34.470  51.216  0.00  0.00    -0.242 NA
ATOM     15  C   UNL d   1      48.751  34.494  50.672  0.00  0.00     0.099 A 
ATOM     16  C   UNL d   1      48.027  34.843  50.874  0.00  0.00     0.021 A 
ATOM     17  C   UNL d   1      47.928  35.165  51.627  0.00  0.00     0.003 A 
ATOM     18  C   UNL d   1      48.547  35.140  52.177  0.00  0.00     0.021 A 
ENDBRANCH  12  13
ENDBRANCH  11  12
ENDBRANCH   4  11
BRANCH   3  19
ATOM     19  C   UNL d   1      53.446  32.776  53.737  0.00  0.00     0.004 A 
ATOM     20  C   UNL d   1      53.454  32.506  54.520  0.00  0.00     0.000 A 
ATOM     21  C   UNL d   1      54.170  32.384  54.902  0.00  0.00     0.000 A 
ATOM     22  C   UNL d   1      54.886  32.531  54.504  0.00  0.00     0.000 A 
ATOM     23  C   UNL d   1      54.868  32.799  53.725  0.00  0.00     0.000 A 
ATOM     24  C   UNL d   1      54.146  32.921  53.343  0.00  0.00     0.000 A 
ENDBRANCH   3  19
TORSDOF 4
ENDMDL
MODEL 4
REMARK VINA RESULT:      -6.4      1.252      5.623
REMARK  4 active torsions:
REMARK  status: ('A' for Active; 'I' for Inactive)
REMARK    1  A    between atoms: C_11  and  C_3 
REMARK    2  A    between atoms: N_10  and  C_4 
REMARK    3  A    between atoms: C_13  and  N_10 
REMARK    4  A    between atoms: C_14  and  C_13 
ROOT
ATOM      1  C   UNL d   1      48.301  35.346  52.524  0.00  0.00     0.167 A 
ATOM      2  N   UNL d   1      49.023  35.257  52.910  0.00  0.00    -0.195 N 
ATOM      3  C   UNL d   1      47.810  35.785  53.010  0.00  0.00     0.057 A 
ATOM      4  C   UNL d   1      49.632  34.836  52.552  0.00  0.00     0.167 A 
ATOM      5  N   UNL d   1      48.971  35.641  53.631  0.00  0.00    -0.161 NA
ATOM      6  N   UNL d   1      48.188  35.015  51.780  0.00  0.00    -0.227 NA
ATOM      7  C   UNL d   1      49.516  34.503  51.802  0.00  0.00     0.058 A 
ATOM      8  C   UNL d   1      48.232  35.965  53.696  0.00  0.00     0.124 A 
ATOM      9  C   UNL d   1      48.802  34.592  51.420  0.00  0.00     0.086 A 
ATOM     10  C   UNL d   1      48.709  34.251  50.674  0.00  0.00     0.021 C 
ENDROOT
BRANCH   4  11
ATOM     11  N   UNL d   1      50.355  34.746  52.938  0.00  0.00    -0.224 NA
BRANCH  11  12
ATOM     12  C   UNL d   1      50.965  34.331  52.576  0.00  0.00     0.120 C 
BRANCH  12  13
ATOM     13  C   UNL d   1      51.677  34.196  52.987  0.00  0.00     0.101 A 
ATOM     14  N   UNL d   1      51.834  33.452  53.316  0.00  0.00    -0.242 NA
ATOM     15  C   UNL d   1      52.534  33.319  53.720  0.00  0.00     0.099 A 
ATOM     16  C   UNL d   1      53.090  33.927  53.802  0.00  0.00     0.021 A 
ATOM     17  C   UNL d   1      52.933  34.667  53.473  0.00  0.00     0.003 A 
ATOM     18  C   UNL d   1      52.225  34.802  53.065  0.00  0.00     0.021 A 
ENDBRANCH  12  13
ENDBRANCH  11  12
ENDBRANCH   4  11
BRANCH   3  19
ATOM     19  C   UNL d   1      47.039  35.970  52.775  0.00  0.00     0.004 A 
ATOM     20  C   UNL d   1      46.402  35.584  53.136  0.00  0.00     0.000 A 
ATOM     21  C   UNL d   1      45.634  35.762  52.908  0.00  0.00     0.000 A 
ATOM     22  C   UNL d   1      45.495  36.330  52.315  0.00  0.00     0.000 A 
ATOM     23  C   UNL d   1      46.136  36.710  51.961  0.00  0.00     0.000 A 
ATOM     24  C   UNL d   1      46.907  36.528  52.193  0.00  0.00     0.000 A 
ENDBRANCH   3  19
TORSDOF 4
ENDMDL
MODEL 5
REMARK VINA RESULT:      -6.1      2.229      4.645
REMARK  4 active torsions:
REMARK  status: ('A' for Active; 'I' for Inactive)
REMARK    1  A    between atoms: C_11  and  C_3 
REMARK    2  A    between atoms: N_10  and  C_4 
REMARK    3  A    between atoms: C_13  and  N_10 
REMARK    4  A    between atoms: C_14  and  C_13 
ROOT
ATOM      1  C   UNL d   1      53.211  33.137  53.937  0.00  0.00     0.167 A 
ATOM      2  N   UNL d   1      53.527  32.381  54.028  0.00  0.00    -0.195 N 
ATOM      3  C   UNL d   1      53.643  33.647  54.410  0.00  0.00     0.057 A 
ATOM      4  C   UNL d   1      53.202  31.747  53.616  0.00  0.00     0.167 A 
ATOM      5  N   UNL d   1      54.150  32.431  54.556  0.00  0.00    -0.161 NA
ATOM      6  N   UNL d   1      52.572  33.259  53.435  0.00  0.00    -0.227 NA
ATOM      7  C   UNL d   1      52.558  31.873  53.110  0.00  0.00     0.058 A 
ATOM      8  C   UNL d   1      54.224  33.203  54.792  0.00  0.00     0.124 A 
ATOM      9  C   UNL d   1      52.246  32.620  53.021  0.00  0.00     0.086 A 
ATOM     10  C   UNL d   1      51.604  32.721  52.511  0.00  0.00     0.021 C 
ENDROOT
BRANCH   4  11
ATOM     11  N   UNL d   1      53.517  30.991  53.706  0.00  0.00    -0.224 NA
BRANCH  11  12
ATOM     12  C   UNL d   1      53.025  30.334  53.672  0.00  0.00     0.120 C 
BRANCH  12  13
ATOM     13  C   UNL d   1      53.225  29.642  54.090  0.00  0.00     0.101 A 
ATOM     14  N   UNL d   1      52.876  29.482  54.824  0.00  0.00    -0.242 NA
ATOM     15  C   UNL d   1      53.073  28.801  55.235  0.00  0.00     0.099 A 
ATOM     16  C   UNL d   1      53.623  28.268  54.919  0.00  0.00     0.021 A 
ATOM     17  C   UNL d   1      53.970  28.429  54.187  0.00  0.00     0.003 A 
ATOM     18  C   UNL d   1      53.770  29.117  53.772  0.00  0.00     0.021 A 
ENDBRANCH  12  13
ENDBRANCH  11  12
ENDBRANCH   4  11
BRANCH   3  19
ATOM     19  C   UNL d   1      53.459  34.453  54.440  0.00  0.00     0.004 A 
ATOM     20  C   UNL d   1      53.011  34.742  55.072  0.00  0.00     0.000 A 
ATOM     21  C   UNL d   1      52.824  35.541  55.109  0.00  0.00     0.000 A 
ATOM     22  C   UNL d   1      53.085  36.058  54.512  0.00  0.00     0.000 A 
ATOM     23  C   UNL d   1      53.532  35.761  53.886  0.00  0.00     0.000 A 
ATOM     24  C   UNL d   1      53.717  34.957  53.852  0.00  0.00     0.000 A 
ENDBRANCH   3  19
TORSDOF 4
ENDMDL
MODEL 6
REMARK VINA RESULT:      -5.7      2.276      4.263
REMARK  4 active torsions:
REMARK  status: ('A' for Active; 'I' for Inactive)
REMARK    1  A    between atoms: C_11  and  C_3 
REMARK    2  A    between atoms: N_10  and  C_4 
REMARK    3  A    between atoms: C_13  and  N_10 
REMARK    4  A    between atoms: C_14  and  C_13 
ROOT
ATOM      1  C   UNL d   1      49.062  34.976  52.418  0.00  0.00     0.167 A 
ATOM      2  N   UNL d   1      48.400  35.066  51.936  0.00  0.00    -0.195 N 
ATOM      3  C   UNL d   1      49.577  34.461  52.044  0.00  0.00     0.057 A 
ATOM      4  C   UNL d   1      47.783  35.556  52.171  0.00  0.00     0.167 A 
ATOM      5  N   UNL d   1      48.512  34.606  51.268  0.00  0.00    -0.161 NA
ATOM      6  N   UNL d   1      49.107  35.376  53.135  0.00  0.00    -0.227 NA
ATOM      7  C   UNL d   1      47.830  35.958  52.894  0.00  0.00     0.058 A 
ATOM      8  C   UNL d   1      49.229  34.235  51.330  0.00  0.00     0.124 A 
ATOM      9  C   UNL d   1      48.485  35.869  53.371  0.00  0.00     0.086 A 
ATOM     10  C   UNL d   1      48.510  36.280  54.087  0.00  0.00     0.021 C 
ENDROOT
BRANCH   4  11
ATOM     11  N   UNL d   1      47.121  35.647  51.689  0.00  0.00    -0.224 NA
BRANCH  11  12
ATOM     12  C   UNL d   1      46.409  35.903  52.011  0.00  0.00     0.120 C 
BRANCH  12  13
ATOM     13  C   UNL d   1      45.709  35.859  51.562  0.00  0.00     0.101 A 
ATOM     14  N   UNL d   1      45.445  35.129  51.272  0.00  0.00    -0.242 NA
ATOM     15  C   UNL d   1      44.756  35.086  50.830  0.00  0.00     0.099 A 
ATOM     16  C   UNL d   1      44.319  35.772  50.672  0.00  0.00     0.021 A 
ATOM     17  C   UNL d   1      44.584  36.498  50.962  0.00  0.00     0.003 A 
ATOM     18  C   UNL d   1      45.280  36.541  51.408  0.00  0.00     0.021 A 
ENDBRANCH  12  13
ENDBRANCH  11  12
ENDBRANCH   4  11
BRANCH   3  19
ATOM     19  C   UNL d   1      50.298  34.257  52.392  0.00  0.00     0.004 A 
ATOM     20  C   UNL d   1      50.989  34.640  52.145  0.00  0.00     0.000 A 
ATOM     21  C   UNL d   1      51.709  34.443  52.487  0.00  0.00     0.000 A 
ATOM     22  C   UNL d   1      51.745  33.861  53.080  0.00  0.00     0.000 A 
ATOM     23  C   UNL d   1      51.052  33.485  53.320  0.00  0.00     0.000 A 
ATOM     24  C   UNL d   1      50.329  33.685  52.974  0.00  0.00     0.000 A 
ENDBRANCH   3  19
TORSDOF 4
ENDMDL
MODEL 7
REMARK VINA RESULT:      -5.5      1.136      4.825
REMARK  4 active torsions:
REMARK  status: ('A' for Active; 'I' for Inactive)
REMARK    1  A    between atoms: C_11  and  C_3 
REMARK    2  A    between atoms: N_10  and  C_4 
REMARK    3  A    between atoms: C_13  and  N_10 
REMARK    4  A    between atoms: C_14  and  C_13 
ROOT
ATOM      1  C   UNL d   1      51.395  33.621  52.761  0.00  0.00     0.167 A 
ATOM      2  N   UNL d   1      52.190  33.708  52.958  0.00  0.00    -0.195 N 
ATOM      3  C   UNL d   1      51.121  34.345  52.496  0.00  0.00     0.057 A 
ATOM      4  C   UNL d   1      52.617  33.066  53.244  0.00  0.00     0.167 A 
ATOM      5  N   UNL d   1      52.400  34.486  52.812  0.00  0.00    -0.161 NA
ATOM      6  N   UNL d   1      51.026  32.891  52.851  0.00  0.00    -0.227 NA
ATOM      7  C   UNL d   1      52.244  32.332  53.334  0.00  0.00     0.058 A 
ATOM      8  C   UNL d   1      51.750  34.878  52.530  0.00  0.00     0.124 A 
ATOM      9  C   UNL d   1      51.457  32.245  53.139  0.00  0.00     0.086 A 
ATOM     10  C   UNL d   1      51.106  31.504  53.237  0.00  0.00     0.021 C 
ENDROOT
BRANCH   4  11
ATOM     11  N   UNL d   1      53.412  33.154  53.441  0.00  0.00    -0.224 NA
BRANCH  11  12
ATOM     12  C   UNL d   1      53.719  32.763  54.096  0.00  0.00     0.120 C 
BRANCH  12  13
ATOM     13  C   UNL d   1      54.329  33.114  54.542  0.00  0.00     0.101 A 
ATOM     14  N   UNL d   1      54.241  33.220  55.359  0.00  0.00    -0.242 NA
ATOM     15  C   UNL d   1      54.841  33.565  55.797  0.00  0.00     0.099 A 
ATOM     16  C   UNL d   1      55.540  33.810  55.426  0.00  0.00     0.021 A 
ATOM     17  C   UNL d   1      55.626  33.704  54.613  0.00  0.00     0.003 A 
ATOM     18  C   UNL d   1      55.020  33.355  54.170  0.00  0.00     0.021 A 
ENDBRANCH  12  13
ENDBRANCH  11  12
ENDBRANCH   4  11
BRANCH   3  19
ATOM     19  C   UNL d   1      50.335  34.437  52.255  0.00  0.00     0.004 A 
ATOM     20  C   UNL d   1      49.775  34.710  52.799  0.00  0.00     0.000 A 
ATOM     21  C   UNL d   1      48.993  34.803  52.567  0.00  0.00     0.000 A 
ATOM     22  C   UNL d   1      48.764  34.624  51.788  0.00  0.00     0.000 A 
ATOM     23  C   UNL d   1      49.329  34.353  51.253  0.00  0.00     0.000 A 
ATOM     24  C   UNL d   1      50.115  34.260  51.489  0.00  0.00     0.000 A 
ENDBRANCH   3  19
TORSDOF 4
ENDMDL
