MODEL 1
REMARK VINA RESULT:      73.2      0.000      0.000
REMARK  3 active torsions:
REMARK  status: ('A' for Active; 'I' for Inactive)
REMARK    1  A    between atoms: S_2  and  C_1 
REMARK    2  A    between atoms: N_8  and  S_2 
REMARK    3  A    between atoms: C_12  and  N_9 
ROOT
ATOM      1  N   UNL d   1     -50.105  26.717  34.086  0.00  0.00    -0.226 N 
ATOM      2  N   UNL d   1     -49.158  28.025  34.402  0.00  0.00    -0.299 N 
ATOM      3  C   UNL d   1     -49.742  27.119  33.476  0.00  0.00     0.111 A 
ATOM      4  C   UNL d   1     -49.990  26.977  34.864  0.00  0.00     0.111 A 
ATOM      5  C   UNL d   1     -49.274  27.764  33.623  0.00  0.00     0.100 A 
ATOM      6  C   UNL d   1     -49.515  27.633  35.022  0.00  0.00     0.100 A 
ENDROOT
BRANCH   1   7
ATOM      7  S   UNL d   1     -50.582  26.059  33.925  0.00  0.00     0.278 S 
ATOM      8  O   UNL d   1     -51.196  26.426  34.335  0.00  0.00    -0.199 OA
ATOM      9  O   UNL d   1     -49.955  25.700  33.514  0.00  0.00    -0.199 OA
BRANCH   7  10
ATOM     10  C   UNL d   1     -51.066  25.408  33.770  0.00  0.00     0.178 A 
ATOM     11  C   UNL d   1     -51.871  25.529  33.614  0.00  0.00     0.282 A 
ATOM     12  N   UNL d   1     -52.351  24.880  33.460  0.00  0.00    -0.224 N 
ATOM     13  O   UNL d   1     -52.179  26.279  33.614  0.00  0.00    -0.266 OA
ATOM     14  C   UNL d   1     -53.154  25.006  33.306  0.00  0.00     0.107 C 
ATOM     15  C   UNL d   1     -52.037  24.118  33.460  0.00  0.00     0.342 A 
ATOM     16  N   UNL d   1     -51.243  24.001  33.614  0.00  0.00    -0.255 N 
ATOM     17  O   UNL d   1     -52.520  23.464  33.306  0.00  0.00    -0.245 OA
ATOM     18  C   UNL d   1     -50.753  24.646  33.770  0.00  0.00     0.102 A 
ATOM     19  C   UNL d   1     -50.932  23.242  33.614  0.00  0.00     0.104 C 
ENDBRANCH   7  10
ENDBRANCH   1   7
BRANCH   2  20
ATOM     20  C   UNL d   1     -48.678  28.687  34.556  0.00  0.00     0.092 A 
ATOM     21  C   UNL d   1     -47.958  28.586  34.954  0.00  0.00     0.156 A 
ATOM     22  F   UNL d   1     -47.717  27.845  35.195  0.00  0.00    -0.203 F 
ATOM     23  C   UNL d   1     -47.484  29.246  35.105  0.00  0.00     0.031 A 
ATOM     24  C   UNL d   1     -47.727  29.994  34.862  0.00  0.00     0.002 A 
ATOM     25  C   UNL d   1     -48.448  30.095  34.464  0.00  0.00     0.002 A 
ATOM     26  C   UNL d   1     -48.921  29.436  34.313  0.00  0.00     0.020 A 
ENDBRANCH   2  20
TORSDOF 3
ENDMDL
