MODEL 1
REMARK VINA RESULT:       1.4      0.000      0.000
REMARK  5 active torsions:
REMARK  status: ('A' for Active; 'I' for Inactive)
REMARK       I    between atoms: N_2  and  C_1 
REMARK    1  A    between atoms: C_3  and  C_1 
REMARK    2  A    between atoms: C_5  and  N_2 
REMARK    3  A    between atoms: C_6  and  C_3 
REMARK    4  A    between atoms: C_7  and  C_3 
REMARK    5  A    between atoms: C_9  and  C_5 
ROOT
ATOM      1  C   UNL d   1     -42.075-123.118 -49.832  0.00  0.00     0.058 C 
ENDROOT
BRANCH   1   2
ATOM      2  C   UNL d   1     -41.433-123.163 -50.633  0.00  0.00     0.275 C 
ATOM      3  N   UNL d   1     -41.123-122.977 -51.314  0.00  0.00    -0.231 NA
ATOM      4  O   UNL d   1     -41.133-123.747 -50.204  0.00  0.00    -0.266 OA
BRANCH   3   5
ATOM      5  C   UNL d   1     -41.428-122.380 -51.754  0.00  0.00     0.146 C 
ATOM      6  C   UNL d   1     -41.703-122.900 -52.274  0.00  0.00     0.033 C 
ATOM      7  C   UNL d   1     -41.142-121.865 -51.218  0.00  0.00     0.033 C 
BRANCH   5   8
ATOM      8  C   UNL d   1     -41.727-121.773 -52.183  0.00  0.00     0.229 C 
ATOM      9  O   UNL d   1     -42.030-121.926 -52.910  0.00  0.00    -0.286 OA
ENDBRANCH   5   8
ENDBRANCH   3   5
ENDBRANCH   1   2
BRANCH   1  10
ATOM     10  C   UNL d   1     -41.768-123.129 -49.082  0.00  0.00     0.005 A 
ATOM     11  C   UNL d   1     -41.451-123.810 -48.776  0.00  0.00     0.000 A 
ATOM     12  C   UNL d   1     -41.140-123.814 -48.010  0.00  0.00     0.000 A 
ATOM     13  C   UNL d   1     -41.150-123.128 -47.553  0.00  0.00     0.000 A 
ATOM     14  C   UNL d   1     -41.476-122.431 -47.870  0.00  0.00     0.000 A 
ATOM     15  C   UNL d   1     -41.785-122.427 -48.631  0.00  0.00     0.000 A 
ENDBRANCH   1  10
BRANCH   1  16
ATOM     16  C   UNL d   1     -42.884-123.071 -49.790  0.00  0.00     0.005 A 
ATOM     17  C   UNL d   1     -43.345-123.756 -49.752  0.00  0.00     0.000 A 
ATOM     18  C   UNL d   1     -44.177-123.708 -49.708  0.00  0.00     0.000 A 
ATOM     19  C   UNL d   1     -44.548-122.964 -49.702  0.00  0.00     0.000 A 
ATOM     20  C   UNL d   1     -44.079-122.269 -49.741  0.00  0.00     0.000 A 
ATOM     21  C   UNL d   1     -43.253-122.333 -49.784  0.00  0.00     0.000 A 
ENDBRANCH   1  16
TORSDOF 5
ENDMDL
MODEL 2
REMARK VINA RESULT:       2.1      1.173      3.046
REMARK  5 active torsions:
REMARK  status: ('A' for Active; 'I' for Inactive)
REMARK       I    between atoms: N_2  and  C_1 
REMARK    1  A    between atoms: C_3  and  C_1 
REMARK    2  A    between atoms: C_5  and  N_2 
REMARK    3  A    between atoms: C_6  and  C_3 
REMARK    4  A    between atoms: C_7  and  C_3 
REMARK    5  A    between atoms: C_9  and  C_5 
ROOT
ATOM      1  C   UNL d   1     -42.077-122.998 -49.682  0.00  0.00     0.058 C 
ENDROOT
BRANCH   1   2
ATOM      2  C   UNL d   1     -41.445-123.393 -48.974  0.00  0.00     0.275 C 
ATOM      3  N   UNL d   1     -41.123-123.502 -48.283  0.00  0.00    -0.231 NA
ATOM      4  O   UNL d   1     -41.198-123.798 -49.598  0.00  0.00    -0.266 OA
BRANCH   3   5
ATOM      5  C   UNL d   1     -41.374-123.088 -47.644  0.00  0.00     0.146 C 
ATOM      6  C   UNL d   1     -41.601-123.755 -47.297  0.00  0.00     0.033 C 
ATOM      7  C   UNL d   1     -41.140-122.420 -48.007  0.00  0.00     0.033 C 
BRANCH   5   8
ATOM      8  C   UNL d   1     -41.621-122.662 -47.012  0.00  0.00     0.229 C 
ATOM      9  O   UNL d   1     -41.177-122.041 -46.767  0.00  0.00    -0.286 OA
ENDBRANCH   5   8
ENDBRANCH   3   5
ENDBRANCH   1   2
BRANCH   1  10
ATOM     10  C   UNL d   1     -41.762-122.688 -50.361  0.00  0.00     0.005 A 
ATOM     11  C   UNL d   1     -41.496-121.921 -50.380  0.00  0.00     0.000 A 
ATOM     12  C   UNL d   1     -41.176-121.612 -51.076  0.00  0.00     0.000 A 
ATOM     13  C   UNL d   1     -41.123-122.078 -51.754  0.00  0.00     0.000 A 
ATOM     14  C   UNL d   1     -41.396-122.864 -51.731  0.00  0.00     0.000 A 
ATOM     15  C   UNL d   1     -41.715-123.172 -51.039  0.00  0.00     0.000 A 
ENDBRANCH   1  10
BRANCH   1  16
ATOM     16  C   UNL d   1     -42.885-122.927 -49.705  0.00  0.00     0.005 A 
ATOM     17  C   UNL d   1     -43.370-123.594 -49.645  0.00  0.00     0.000 A 
ATOM     18  C   UNL d   1     -44.200-123.521 -49.669  0.00  0.00     0.000 A 
ATOM     19  C   UNL d   1     -44.547-122.769 -49.755  0.00  0.00     0.000 A 
ATOM     20  C   UNL d   1     -44.054-122.093 -49.816  0.00  0.00     0.000 A 
ATOM     21  C   UNL d   1     -43.229-122.182 -49.790  0.00  0.00     0.000 A 
ENDBRANCH   1  16
TORSDOF 5
ENDMDL
MODEL 3
REMARK VINA RESULT:       2.1      0.446      2.303
REMARK  5 active torsions:
REMARK  status: ('A' for Active; 'I' for Inactive)
REMARK       I    between atoms: N_2  and  C_1 
REMARK    1  A    between atoms: C_3  and  C_1 
REMARK    2  A    between atoms: C_5  and  N_2 
REMARK    3  A    between atoms: C_6  and  C_3 
REMARK    4  A    between atoms: C_7  and  C_3 
REMARK    5  A    between atoms: C_9  and  C_5 
ROOT
ATOM      1  C   UNL d   1     -42.014-123.140 -49.531  0.00  0.00     0.058 C 
ENDROOT
BRANCH   1   2
ATOM      2  C   UNL d   1     -41.425-123.114 -50.372  0.00  0.00     0.275 C 
ATOM      3  N   UNL d   1     -41.123-122.843 -51.027  0.00  0.00    -0.231 NA
ATOM      4  O   UNL d   1     -41.196-123.807 -50.084  0.00  0.00    -0.266 OA
BRANCH   3   5
ATOM      5  C   UNL d   1     -41.355-122.135 -51.323  0.00  0.00     0.146 C 
ATOM      6  C   UNL d   1     -41.134-121.780 -50.658  0.00  0.00     0.033 C 
ATOM      7  C   UNL d   1     -41.576-122.507 -51.992  0.00  0.00     0.033 C 
BRANCH   5   8
ATOM      8  C   UNL d   1     -41.592-121.434 -51.631  0.00  0.00     0.229 C 
ATOM      9  O   UNL d   1     -41.406-121.264 -52.393  0.00  0.00    -0.286 OA
ENDBRANCH   5   8
ENDBRANCH   3   5
ENDBRANCH   1   2
BRANCH   1  10
ATOM     10  C   UNL d   1     -42.820-123.141 -49.617  0.00  0.00     0.005 A 
ATOM     11  C   UNL d   1     -43.212-123.817 -49.835  0.00  0.00     0.000 A 
ATOM     12  C   UNL d   1     -44.033-123.811 -49.920  0.00  0.00     0.000 A 
ATOM     13  C   UNL d   1     -44.461-123.119 -49.786  0.00  0.00     0.000 A 
ATOM     14  C   UNL d   1     -44.057-122.427 -49.563  0.00  0.00     0.000 A 
ATOM     15  C   UNL d   1     -43.240-122.433 -49.478  0.00  0.00     0.000 A 
ENDBRANCH   1  10
BRANCH   1  16
ATOM     16  C   UNL d   1     -41.830-123.161 -48.742  0.00  0.00     0.005 A 
ATOM     17  C   UNL d   1     -42.143-122.602 -48.219  0.00  0.00     0.000 A 
ATOM     18  C   UNL d   1     -41.954-122.623 -47.408  0.00  0.00     0.000 A 
ATOM     19  C   UNL d   1     -41.444-123.213 -47.117  0.00  0.00     0.000 A 
ATOM     20  C   UNL d   1     -41.127-123.780 -47.648  0.00  0.00     0.000 A 
ATOM     21  C   UNL d   1     -41.324-123.746 -48.453  0.00  0.00     0.000 A 
ENDBRANCH   1  16
TORSDOF 5
ENDMDL
MODEL 4
REMARK VINA RESULT:       4.0      1.251      2.664
REMARK  5 active torsions:
REMARK  status: ('A' for Active; 'I' for Inactive)
REMARK       I    between atoms: N_2  and  C_1 
REMARK    1  A    between atoms: C_3  and  C_1 
REMARK    2  A    between atoms: C_5  and  N_2 
REMARK    3  A    between atoms: C_6  and  C_3 
REMARK    4  A    between atoms: C_7  and  C_3 
REMARK    5  A    between atoms: C_9  and  C_5 
ROOT
ATOM      1  C   UNL d   1     -41.646-122.516 -51.458  0.00  0.00     0.058 C 
ENDROOT
BRANCH   1   2
ATOM      2  C   UNL d   1     -41.461-123.194 -52.207  0.00  0.00     0.275 C 
ATOM      3  N   UNL d   1     -41.465-123.497 -52.916  0.00  0.00    -0.231 NA
ATOM      4  O   UNL d   1     -41.123-123.576 -51.611  0.00  0.00    -0.266 OA
BRANCH   3   5
ATOM      5  C   UNL d   1     -41.811-123.109 -53.526  0.00  0.00     0.146 C 
ATOM      6  C   UNL d   1     -41.125-122.772 -53.704  0.00  0.00     0.033 C 
ATOM      7  C   UNL d   1     -42.500-123.458 -53.333  0.00  0.00     0.033 C 
BRANCH   5   8
ATOM      8  C   UNL d   1     -42.170-122.727 -54.132  0.00  0.00     0.229 C 
ATOM      9  O   UNL d   1     -42.157-123.060 -54.861  0.00  0.00    -0.286 OA
ENDBRANCH   5   8
ENDBRANCH   3   5
ENDBRANCH   1   2
BRANCH   1  10
ATOM     10  C   UNL d   1     -42.030-122.764 -50.789  0.00  0.00     0.005 A 
ATOM     11  C   UNL d   1     -41.640-123.202 -50.227  0.00  0.00     0.000 A 
ATOM     12  C   UNL d   1     -42.038-123.452 -49.548  0.00  0.00     0.000 A 
ATOM     13  C   UNL d   1     -42.832-123.260 -49.435  0.00  0.00     0.000 A 
ATOM     14  C   UNL d   1     -43.229-122.811 -50.013  0.00  0.00     0.000 A 
ATOM     15  C   UNL d   1     -42.833-122.562 -50.688  0.00  0.00     0.000 A 
ENDBRANCH   1  10
BRANCH   1  16
ATOM     16  C   UNL d   1     -41.475-121.725 -51.390  0.00  0.00     0.005 A 
ATOM     17  C   UNL d   1     -41.305-121.392 -50.652  0.00  0.00     0.000 A 
ATOM     18  C   UNL d   1     -41.130-120.580 -50.581  0.00  0.00     0.000 A 
ATOM     19  C   UNL d   1     -41.125-120.097 -51.259  0.00  0.00     0.000 A 
ATOM     20  C   UNL d   1     -41.298-120.436 -52.007  0.00  0.00     0.000 A 
ATOM     21  C   UNL d   1     -41.470-121.246 -52.062  0.00  0.00     0.000 A 
ENDBRANCH   1  16
TORSDOF 5
ENDMDL
