MODEL 1
REMARK VINA RESULT:      -6.7      0.000      0.000
REMARK  5 active torsions:
REMARK  status: ('A' for Active; 'I' for Inactive)
REMARK    1  A    between atoms: C_2  and  S_1 
REMARK    2  A    between atoms: N_5  and  S_1 
REMARK    3  A    between atoms: O_14  and  C_4 
REMARK    4  A    between atoms: C_11  and  N_5 
REMARK    5  A    between atoms: C_15  and  C_11 
ROOT
ATOM      1  C   UNL d   1     -47.155  13.421  22.852  0.00  0.00     0.128 A 
ATOM      2  C   UNL d   1     -47.365  14.184  22.627  0.00  0.00     0.026 A 
ATOM      3  C   UNL d   1     -47.719  12.920  23.182  0.00  0.00     0.106 A 
ATOM      4  C   UNL d   1     -48.141  14.447  22.732  0.00  0.00     0.059 A 
ATOM      5  C   UNL d   1     -48.494  13.182  23.286  0.00  0.00     0.026 A 
ATOM      6  C   UNL d   1     -48.705  13.946  23.061  0.00  0.00     0.013 A 
ATOM      7 CL   UNL d   1     -48.352  15.211  22.506  0.00  0.00    -0.082 Cl
ATOM      8  C   UNL d   1     -49.480  14.209  23.165  0.00  0.00     0.001 C 
ENDROOT
BRANCH   1   9
ATOM      9  S   UNL d   1     -46.380  13.159  22.748  0.00  0.00     0.287 S 
ATOM     10  O   UNL d   1     -46.571  12.897  21.990  0.00  0.00    -0.198 OA
ATOM     11  O   UNL d   1     -46.189  13.421  23.507  0.00  0.00    -0.198 OA
BRANCH   9  12
ATOM     12  N   UNL d   1     -45.605  12.896  22.644  0.00  0.00    -0.155 NA
BRANCH  12  13
ATOM     13  C   UNL d   1     -45.162  13.161  22.001  0.00  0.00     0.137 C 
BRANCH  13  14
ATOM     14  C   UNL d   1     -44.396  12.878  21.883  0.00  0.00     0.120 A 
ATOM     15  O   UNL d   1     -44.079  12.183  22.195  0.00  0.00    -0.304 OA
ATOM     16  C   UNL d   1     -43.305  12.118  21.937  0.00  0.00     0.123 A 
ATOM     17  C   UNL d   1     -43.128  12.769  21.462  0.00  0.00     0.029 A 
ATOM     18  C   UNL d   1     -43.809  13.237  21.432  0.00  0.00     0.028 A 
ENDBRANCH  13  14
ENDBRANCH  12  13
ENDBRANCH   9  12
ENDBRANCH   1   9
BRANCH   3  19
ATOM     19  O   UNL d   1     -47.510  12.153  23.409  0.00  0.00    -0.327 OA
ATOM     20  C   UNL d   1     -48.082  11.638  23.698  0.00  0.00     0.181 C 
ENDBRANCH   3  19
TORSDOF 5
ENDMDL
MODEL 2
REMARK VINA RESULT:      -6.6      1.356      1.874
REMARK  5 active torsions:
REMARK  status: ('A' for Active; 'I' for Inactive)
REMARK    1  A    between atoms: C_2  and  S_1 
REMARK    2  A    between atoms: N_5  and  S_1 
REMARK    3  A    between atoms: O_14  and  C_4 
REMARK    4  A    between atoms: C_11  and  N_5 
REMARK    5  A    between atoms: C_15  and  C_11 
ROOT
ATOM      1  C   UNL d   1     -48.893  13.913  22.945  0.00  0.00     0.128 A 
ATOM      2  C   UNL d   1     -48.924  14.729  23.046  0.00  0.00     0.026 A 
ATOM      3  C   UNL d   1     -49.584  13.467  22.987  0.00  0.00     0.106 A 
ATOM      4  C   UNL d   1     -49.647  15.100  23.190  0.00  0.00     0.059 A 
ATOM      5  C   UNL d   1     -50.306  13.838  23.130  0.00  0.00     0.026 A 
ATOM      6  C   UNL d   1     -50.338  14.655  23.232  0.00  0.00     0.013 A 
ATOM      7 CL   UNL d   1     -49.678  15.917  23.292  0.00  0.00    -0.082 Cl
ATOM      8  C   UNL d   1     -51.061  15.026  23.375  0.00  0.00     0.001 C 
ENDROOT
BRANCH   1   9
ATOM      9  S   UNL d   1     -48.170  13.542  22.801  0.00  0.00     0.287 S 
ATOM     10  O   UNL d   1     -48.253  13.692  21.994  0.00  0.00    -0.198 OA
ATOM     11  O   UNL d   1     -48.087  13.392  23.608  0.00  0.00    -0.198 OA
BRANCH   9  12
ATOM     12  N   UNL d   1     -47.447  13.171  22.658  0.00  0.00    -0.155 NA
BRANCH  12  13
ATOM     13  C   UNL d   1     -46.744  13.537  22.881  0.00  0.00     0.137 C 
BRANCH  13  14
ATOM     14  C   UNL d   1     -46.019  13.203  22.670  0.00  0.00     0.120 A 
ATOM     15  O   UNL d   1     -45.701  12.502  22.967  0.00  0.00    -0.304 OA
ATOM     16  C   UNL d   1     -44.975  12.379  22.608  0.00  0.00     0.123 A 
ATOM     17  C   UNL d   1     -44.831  13.000  22.084  0.00  0.00     0.029 A 
ATOM     18  C   UNL d   1     -45.482  13.508  22.127  0.00  0.00     0.028 A 
ENDBRANCH  13  14
ENDBRANCH  12  13
ENDBRANCH   9  12
ENDBRANCH   1   9
BRANCH   3  19
ATOM     19  O   UNL d   1     -49.555  12.647  22.885  0.00  0.00    -0.327 OA
ATOM     20  C   UNL d   1     -50.246  12.202  22.923  0.00  0.00     0.181 C 
ENDBRANCH   3  19
TORSDOF 5
ENDMDL
MODEL 3
REMARK VINA RESULT:      -6.4      1.915      4.319
REMARK  5 active torsions:
REMARK  status: ('A' for Active; 'I' for Inactive)
REMARK    1  A    between atoms: C_2  and  S_1 
REMARK    2  A    between atoms: N_5  and  S_1 
REMARK    3  A    between atoms: O_14  and  C_4 
REMARK    4  A    between atoms: C_11  and  N_5 
REMARK    5  A    between atoms: C_15  and  C_11 
ROOT
ATOM      1  C   UNL d   1     -47.444  13.266  22.846  0.00  0.00     0.128 A 
ATOM      2  C   UNL d   1     -46.812  13.678  22.521  0.00  0.00     0.026 A 
ATOM      3  C   UNL d   1     -47.335  12.499  23.126  0.00  0.00     0.106 A 
ATOM      4  C   UNL d   1     -46.068  13.325  22.475  0.00  0.00     0.059 A 
ATOM      5  C   UNL d   1     -46.591  12.146  23.081  0.00  0.00     0.026 A 
ATOM      6  C   UNL d   1     -45.956  12.559  22.755  0.00  0.00     0.013 A 
ATOM      7 CL   UNL d   1     -45.433  13.738  22.150  0.00  0.00    -0.082 Cl
ATOM      8  C   UNL d   1     -45.212  12.205  22.709  0.00  0.00     0.001 C 
ENDROOT
BRANCH   1   9
ATOM      9  S   UNL d   1     -48.189  13.619  22.892  0.00  0.00     0.287 S 
ATOM     10  O   UNL d   1     -48.377  13.318  22.148  0.00  0.00    -0.198 OA
ATOM     11  O   UNL d   1     -48.000  13.920  23.637  0.00  0.00    -0.198 OA
BRANCH   9  12
ATOM     12  N   UNL d   1     -48.933  13.973  22.938  0.00  0.00    -0.155 NA
BRANCH  12  13
ATOM     13  C   UNL d   1     -49.000  14.768  23.144  0.00  0.00     0.137 C 
BRANCH  13  14
ATOM     14  C   UNL d   1     -49.744  15.099  23.275  0.00  0.00     0.120 A 
ATOM     15  O   UNL d   1     -50.466  14.794  23.017  0.00  0.00    -0.304 OA
ATOM     16  C   UNL d   1     -51.061  15.297  23.269  0.00  0.00     0.123 A 
ATOM     17  C   UNL d   1     -50.719  15.922  23.686  0.00  0.00     0.029 A 
ATOM     18  C   UNL d   1     -49.902  15.793  23.687  0.00  0.00     0.028 A 
ENDBRANCH  13  14
ENDBRANCH  12  13
ENDBRANCH   9  12
ENDBRANCH   1   9
BRANCH   3  19
ATOM     19  O   UNL d   1     -47.969  12.082  23.454  0.00  0.00    -0.327 OA
ATOM     20  C   UNL d   1     -47.870  11.302  23.695  0.00  0.00     0.181 C 
ENDBRANCH   3  19
TORSDOF 5
ENDMDL
MODEL 4
REMARK VINA RESULT:      -6.2      1.928      2.632
REMARK  5 active torsions:
REMARK  status: ('A' for Active; 'I' for Inactive)
REMARK    1  A    between atoms: C_2  and  S_1 
REMARK    2  A    between atoms: N_5  and  S_1 
REMARK    3  A    between atoms: O_14  and  C_4 
REMARK    4  A    between atoms: C_11  and  N_5 
REMARK    5  A    between atoms: C_15  and  C_11 
ROOT
ATOM      1  C   UNL d   1     -48.739  13.236  22.598  0.00  0.00     0.128 A 
ATOM      2  C   UNL d   1     -49.393  12.737  22.581  0.00  0.00     0.026 A 
ATOM      3  C   UNL d   1     -48.831  14.040  22.446  0.00  0.00     0.106 A 
ATOM      4  C   UNL d   1     -50.141  13.042  22.412  0.00  0.00     0.059 A 
ATOM      5  C   UNL d   1     -49.578  14.345  22.277  0.00  0.00     0.026 A 
ATOM      6  C   UNL d   1     -50.234  13.846  22.260  0.00  0.00     0.013 A 
ATOM      7 CL   UNL d   1     -50.796  12.543  22.395  0.00  0.00    -0.082 Cl
ATOM      8  C   UNL d   1     -50.982  14.151  22.091  0.00  0.00     0.001 C 
ENDROOT
BRANCH   1   9
ATOM      9  S   UNL d   1     -47.991  12.930  22.767  0.00  0.00     0.287 S 
ATOM     10  O   UNL d   1     -48.133  13.030  23.574  0.00  0.00    -0.198 OA
ATOM     11  O   UNL d   1     -47.849  12.831  21.961  0.00  0.00    -0.198 OA
BRANCH   9  12
ATOM     12  N   UNL d   1     -47.244  12.625  22.937  0.00  0.00    -0.155 NA
BRANCH  12  13
ATOM     13  C   UNL d   1     -47.167  11.968  23.427  0.00  0.00     0.137 C 
BRANCH  13  14
ATOM     14  C   UNL d   1     -46.444  11.574  23.481  0.00  0.00     0.120 A 
ATOM     15  O   UNL d   1     -45.701  11.896  23.326  0.00  0.00    -0.304 OA
ATOM     16  C   UNL d   1     -45.139  11.312  23.447  0.00  0.00     0.123 A 
ATOM     17  C   UNL d   1     -45.524  10.620  23.679  0.00  0.00     0.029 A 
ATOM     18  C   UNL d   1     -46.333  10.788  23.698  0.00  0.00     0.028 A 
ENDBRANCH  13  14
ENDBRANCH  12  13
ENDBRANCH   9  12
ENDBRANCH   1   9
BRANCH   3  19
ATOM     19  O   UNL d   1     -48.175  14.543  22.463  0.00  0.00    -0.327 OA
ATOM     20  C   UNL d   1     -48.275  15.354  22.371  0.00  0.00     0.181 C 
ENDBRANCH   3  19
TORSDOF 5
ENDMDL
MODEL 5
REMARK VINA RESULT:      -5.4      6.742      9.231
REMARK  5 active torsions:
REMARK  status: ('A' for Active; 'I' for Inactive)
REMARK    1  A    between atoms: C_2  and  S_1 
REMARK    2  A    between atoms: N_5  and  S_1 
REMARK    3  A    between atoms: O_14  and  C_4 
REMARK    4  A    between atoms: C_11  and  N_5 
REMARK    5  A    between atoms: C_15  and  C_11 
ROOT
ATOM      1  C   UNL d   1     -39.055  14.021  17.507  0.00  0.00     0.128 A 
ATOM      2  C   UNL d   1     -39.089  14.636  16.961  0.00  0.00     0.026 A 
ATOM      3  C   UNL d   1     -38.649  13.329  17.322  0.00  0.00     0.106 A 
ATOM      4  C   UNL d   1     -38.718  14.559  16.229  0.00  0.00     0.059 A 
ATOM      5  C   UNL d   1     -38.277  13.252  16.589  0.00  0.00     0.026 A 
ATOM      6  C   UNL d   1     -38.311  13.868  16.042  0.00  0.00     0.013 A 
ATOM      7 CL   UNL d   1     -38.752  15.174  15.682  0.00  0.00    -0.082 Cl
ATOM      8  C   UNL d   1     -37.940  13.791  15.310  0.00  0.00     0.001 C 
ENDROOT
BRANCH   1   9
ATOM      9  S   UNL d   1     -39.427  14.098  18.240  0.00  0.00     0.287 S 
ATOM     10  O   UNL d   1     -38.739  14.428  18.554  0.00  0.00    -0.198 OA
ATOM     11  O   UNL d   1     -40.115  13.769  17.925  0.00  0.00    -0.198 OA
BRANCH   9  12
ATOM     12  N   UNL d   1     -39.799  14.175  18.972  0.00  0.00    -0.155 NA
BRANCH  12  13
ATOM     13  C   UNL d   1     -40.409  14.720  19.070  0.00  0.00     0.137 C 
BRANCH  13  14
ATOM     14  C   UNL d   1     -40.695  14.888  19.826  0.00  0.00     0.120 A 
ATOM     15  O   UNL d   1     -40.977  14.339  20.373  0.00  0.00    -0.304 OA
ATOM     16  C   UNL d   1     -41.205  14.745  21.047  0.00  0.00     0.123 A 
ATOM     17  C   UNL d   1     -41.069  15.550  20.929  0.00  0.00     0.029 A 
ATOM     18  C   UNL d   1     -40.753  15.633  20.170  0.00  0.00     0.028 A 
ENDBRANCH  13  14
ENDBRANCH  12  13
ENDBRANCH   9  12
ENDBRANCH   1   9
BRANCH   3  19
ATOM     19  O   UNL d   1     -38.613  12.710  17.869  0.00  0.00    -0.327 OA
ATOM     20  C   UNL d   1     -38.181  12.032  17.696  0.00  0.00     0.181 C 
ENDBRANCH   3  19
TORSDOF 5
ENDMDL
MODEL 6
REMARK VINA RESULT:      -5.0      7.543      8.337
REMARK  5 active torsions:
REMARK  status: ('A' for Active; 'I' for Inactive)
REMARK    1  A    between atoms: C_2  and  S_1 
REMARK    2  A    between atoms: N_5  and  S_1 
REMARK    3  A    between atoms: O_14  and  C_4 
REMARK    4  A    between atoms: C_11  and  N_5 
REMARK    5  A    between atoms: C_15  and  C_11 
ROOT
ATOM      1  C   UNL d   1     -39.913  14.626  18.325  0.00  0.00     0.128 A 
ATOM      2  C   UNL d   1     -40.575  15.110  18.385  0.00  0.00     0.026 A 
ATOM      3  C   UNL d   1     -39.586  14.466  17.587  0.00  0.00     0.106 A 
ATOM      4  C   UNL d   1     -40.911  15.436  17.706  0.00  0.00     0.059 A 
ATOM      5  C   UNL d   1     -39.922  14.793  16.907  0.00  0.00     0.026 A 
ATOM      6  C   UNL d   1     -40.585  15.278  16.967  0.00  0.00     0.013 A 
ATOM      7 CL   UNL d   1     -41.574  15.922  17.766  0.00  0.00    -0.082 Cl
ATOM      8  C   UNL d   1     -40.921  15.604  16.288  0.00  0.00     0.001 C 
ENDROOT
BRANCH   1   9
ATOM      9  S   UNL d   1     -39.577  14.300  19.005  0.00  0.00     0.287 S 
ATOM     10  O   UNL d   1     -40.076  13.646  18.938  0.00  0.00    -0.198 OA
ATOM     11  O   UNL d   1     -39.078  14.953  19.071  0.00  0.00    -0.198 OA
BRANCH   9  12
ATOM     12  N   UNL d   1     -39.241  13.974  19.684  0.00  0.00    -0.155 NA
BRANCH  12  13
ATOM     13  C   UNL d   1     -39.319  14.358  20.408  0.00  0.00     0.137 C 
BRANCH  13  14
ATOM     14  C   UNL d   1     -39.058  13.992  21.100  0.00  0.00     0.120 A 
ATOM     15  O   UNL d   1     -38.347  13.585  21.198  0.00  0.00    -0.304 OA
ATOM     16  C   UNL d   1     -38.312  13.313  21.970  0.00  0.00     0.123 A 
ATOM     17  C   UNL d   1     -38.999  13.546  22.363  0.00  0.00     0.029 A 
ATOM     18  C   UNL d   1     -39.458  13.967  21.819  0.00  0.00     0.028 A 
ENDBRANCH  13  14
ENDBRANCH  12  13
ENDBRANCH   9  12
ENDBRANCH   1   9
BRANCH   3  19
ATOM     19  O   UNL d   1     -38.920  13.980  17.524  0.00  0.00    -0.327 OA
ATOM     20  C   UNL d   1     -38.603  13.809  16.785  0.00  0.00     0.181 C 
ENDBRANCH   3  19
TORSDOF 5
ENDMDL
MODEL 7
REMARK VINA RESULT:      -4.7      7.487      8.316
REMARK  5 active torsions:
REMARK  status: ('A' for Active; 'I' for Inactive)
REMARK    1  A    between atoms: C_2  and  S_1 
REMARK    2  A    between atoms: N_5  and  S_1 
REMARK    3  A    between atoms: O_14  and  C_4 
REMARK    4  A    between atoms: C_11  and  N_5 
REMARK    5  A    between atoms: C_15  and  C_11 
ROOT
ATOM      1  C   UNL d   1     -39.319  14.564  20.329  0.00  0.00     0.128 A 
ATOM      2  C   UNL d   1     -38.808  13.922  20.277  0.00  0.00     0.026 A 
ATOM      3  C   UNL d   1     -39.476  14.907  21.061  0.00  0.00     0.106 A 
ATOM      4  C   UNL d   1     -38.452  13.622  20.958  0.00  0.00     0.059 A 
ATOM      5  C   UNL d   1     -39.120  14.606  21.742  0.00  0.00     0.026 A 
ATOM      6  C   UNL d   1     -38.607  13.963  21.691  0.00  0.00     0.013 A 
ATOM      7 CL   UNL d   1     -37.940  12.978  20.907  0.00  0.00    -0.082 Cl
ATOM      8  C   UNL d   1     -38.251  13.663  22.372  0.00  0.00     0.001 C 
ENDROOT
BRANCH   1   9
ATOM      9  S   UNL d   1     -39.675  14.865  19.648  0.00  0.00     0.287 S 
ATOM     10  O   UNL d   1     -40.310  14.348  19.752  0.00  0.00    -0.198 OA
ATOM     11  O   UNL d   1     -39.040  15.381  19.544  0.00  0.00    -0.198 OA
BRANCH   9  12
ATOM     12  N   UNL d   1     -40.031  15.165  18.968  0.00  0.00    -0.155 NA
BRANCH  12  13
ATOM     13  C   UNL d   1     -40.146  14.679  18.313  0.00  0.00     0.137 C 
BRANCH  13  14
ATOM     14  C   UNL d   1     -40.454  14.992  17.614  0.00  0.00     0.120 A 
ATOM     15  O   UNL d   1     -41.242  15.197  17.478  0.00  0.00    -0.304 OA
ATOM     16  C   UNL d   1     -41.302  15.485  16.713  0.00  0.00     0.123 A 
ATOM     17  C   UNL d   1     -40.555  15.463  16.363  0.00  0.00     0.029 A 
ATOM     18  C   UNL d   1     -40.033  15.157  16.927  0.00  0.00     0.028 A 
ENDBRANCH  13  14
ENDBRANCH  12  13
ENDBRANCH   9  12
ENDBRANCH   1   9
BRANCH   3  19
ATOM     19  O   UNL d   1     -39.990  15.553  21.116  0.00  0.00    -0.327 OA
ATOM     20  C   UNL d   1     -40.118  15.917  21.842  0.00  0.00     0.181 C 
ENDBRANCH   3  19
TORSDOF 5
ENDMDL
MODEL 8
REMARK VINA RESULT:      -4.4      7.881      8.940
REMARK  5 active torsions:
REMARK  status: ('A' for Active; 'I' for Inactive)
REMARK    1  A    between atoms: C_2  and  S_1 
REMARK    2  A    between atoms: N_5  and  S_1 
REMARK    3  A    between atoms: O_14  and  C_4 
REMARK    4  A    between atoms: C_11  and  N_5 
REMARK    5  A    between atoms: C_15  and  C_11 
ROOT
ATOM      1  C   UNL d   1     -39.292  14.646  18.308  0.00  0.00     0.128 A 
ATOM      2  C   UNL d   1     -38.691  14.116  18.121  0.00  0.00     0.026 A 
ATOM      3  C   UNL d   1     -39.750  14.975  17.708  0.00  0.00     0.106 A 
ATOM      4  C   UNL d   1     -38.549  13.913  17.334  0.00  0.00     0.059 A 
ATOM      5  C   UNL d   1     -39.607  14.773  16.921  0.00  0.00     0.026 A 
ATOM      6  C   UNL d   1     -39.006  14.241  16.734  0.00  0.00     0.013 A 
ATOM      7 CL   UNL d   1     -37.947  13.382  17.147  0.00  0.00    -0.082 Cl
ATOM      8  C   UNL d   1     -38.864  14.039  15.947  0.00  0.00     0.001 C 
ENDROOT
BRANCH   1   9
ATOM      9  S   UNL d   1     -39.434  14.849  19.095  0.00  0.00     0.287 S 
ATOM     10  O   UNL d   1     -38.916  15.487  19.025  0.00  0.00    -0.198 OA
ATOM     11  O   UNL d   1     -39.952  14.211  19.165  0.00  0.00    -0.198 OA
BRANCH   9  12
ATOM     12  N   UNL d   1     -39.577  15.051  19.882  0.00  0.00    -0.155 NA
BRANCH  12  13
ATOM     13  C   UNL d   1     -38.974  14.989  20.440  0.00  0.00     0.137 C 
BRANCH  13  14
ATOM     14  C   UNL d   1     -39.123  15.171  21.231  0.00  0.00     0.120 A 
ATOM     15  O   UNL d   1     -39.085  15.921  21.573  0.00  0.00    -0.304 OA
ATOM     16  C   UNL d   1     -39.273  15.848  22.367  0.00  0.00     0.123 A 
ATOM     17  C   UNL d   1     -39.429  15.055  22.530  0.00  0.00     0.029 A 
ATOM     18  C   UNL d   1     -39.335  14.640  21.822  0.00  0.00     0.028 A 
ENDBRANCH  13  14
ENDBRANCH  12  13
ENDBRANCH   9  12
ENDBRANCH   1   9
BRANCH   3  19
ATOM     19  O   UNL d   1     -40.354  15.509  17.893  0.00  0.00    -0.327 OA
ATOM     20  C   UNL d   1     -40.840  15.804  17.298  0.00  0.00     0.181 C 
ENDBRANCH   3  19
TORSDOF 5
ENDMDL
