MODEL 1
REMARK VINA RESULT:      42.7      0.000      0.000
REMARK  2 active torsions:
REMARK  status: ('A' for Active; 'I' for Inactive)
REMARK    1  A    between atoms: C_10  and  C_3 
REMARK    2  A    between atoms: O_20  and  C_16 
ROOT
ATOM      1  C   UNL d   1     -54.724-101.231 -40.101  0.00  0.00     0.203 A 
ATOM      2  C   UNL d   1     -54.727-101.270 -40.930  0.00  0.00     0.101 A 
ATOM      3  C   UNL d   1     -54.730-101.927 -39.643  0.00  0.00     0.064 A 
ATOM      4  C   UNL d   1     -54.737-102.020 -41.304  0.00  0.00     0.109 A 
ATOM      5  C   UNL d   1     -54.739-102.673 -40.024  0.00  0.00     0.126 A 
ATOM      6  C   UNL d   1     -54.721-100.583 -41.379  0.00  0.00     0.204 A 
ATOM      7  O   UNL d   1     -54.743-102.717 -40.855  0.00  0.00    -0.305 OA
ATOM      8  C   UNL d   1     -54.740-102.059 -42.133  0.00  0.00     0.067 A 
ATOM      9  C   UNL d   1     -54.725-100.626 -42.201  0.00  0.00     0.084 A 
ATOM     10  O   UNL d   1     -54.715-100.496 -39.726  0.00  0.00    -0.286 OA
ATOM     11  C   UNL d   1     -54.734-101.361 -42.576  0.00  0.00     0.201 A 
ATOM     12  O   UNL d   1     -54.712 -99.848 -41.004  0.00  0.00    -0.286 OA
ATOM     13  O   UNL d   1     -54.737-101.404 -43.399  0.00  0.00    -0.286 OA
ENDROOT
BRANCH   3  14
ATOM     14  C   UNL d   1     -54.727-101.885 -38.821  0.00  0.00     0.005 A 
ATOM     15  C   UNL d   1     -54.736-102.581 -38.378  0.00  0.00     0.002 A 
ATOM     16  C   UNL d   1     -54.733-102.539 -37.556  0.00  0.00     0.024 A 
ATOM     17  C   UNL d   1     -54.721-101.812 -37.178  0.00  0.00     0.094 A 
ATOM     18  C   UNL d   1     -54.712-101.113 -37.632  0.00  0.00     0.024 A 
ATOM     19  C   UNL d   1     -54.715-101.156 -38.455  0.00  0.00     0.002 A 
BRANCH  17  20
ATOM     20  O   UNL d   1     -54.718-101.770 -36.356  0.00  0.00    -0.328 OA
ATOM     21  C   UNL d   1     -54.744-102.465 -35.902  0.00  0.00     0.181 C 
ENDBRANCH  17  20
ENDBRANCH   3  14
TORSDOF 2
ENDMDL
