MODEL 1
REMARK VINA RESULT:      -3.3      0.000      0.000
REMARK  5 active torsions:
REMARK  status: ('A' for Active; 'I' for Inactive)
REMARK    1  A    between atoms: C_6  and  N_2 
REMARK    2  A    between atoms: C_7  and  C_6 
REMARK    3  A    between atoms: C_8  and  C_7 
REMARK       I    between atoms: N_10  and  C_8 
REMARK    4  A    between atoms: C_12  and  N_10 
REMARK    5  A    between atoms: C_13  and  C_12 
ROOT
ATOM      1  C   UNL d   1      33.090  20.612 -22.425  0.00  0.00     0.088 C 
ENDROOT
BRANCH   1   2
ATOM      2  N   UNL d   1      32.998  21.052 -21.735  0.00  0.00    -0.268 N 
ATOM      3  C   UNL d   1      33.067  20.768 -20.967  0.00  0.00     0.296 A 
ATOM      4  S   UNL d   1      32.925  21.434 -20.447  0.00  0.00    -0.025 SA
ATOM      5  O   UNL d   1      33.240  19.991 -20.753  0.00  0.00    -0.259 OA
ATOM      6  C   UNL d   1      32.781  22.068 -20.902  0.00  0.00     0.050 A 
ATOM      7  C   UNL d   1      32.611  22.851 -20.689  0.00  0.00     0.008 A 
ATOM      8  C   UNL d   1      32.821  21.856 -21.698  0.00  0.00     0.073 A 
ATOM      9  C   UNL d   1      32.480  23.422 -21.277  0.00  0.00     0.001 A 
ATOM     10  C   UNL d   1      32.522  23.199 -22.070  0.00  0.00     0.002 A 
ATOM     11  C   UNL d   1      32.693  22.418 -22.278  0.00  0.00     0.018 A 
ENDBRANCH   1   2
BRANCH   1  12
ATOM     12  C   UNL d   1      32.941  19.805 -22.424  0.00  0.00     0.082 C 
BRANCH  12  13
ATOM     13  C   UNL d   1      32.891  19.387 -23.133  0.00  0.00     0.281 C 
ATOM     14  N   UNL d   1      32.497  18.667 -23.167  0.00  0.00    -0.206 NA
ATOM     15  O   UNL d   1      33.241  19.695 -23.814  0.00  0.00    -0.265 OA
BRANCH  14  16
ATOM     16  C   UNL d   1      32.449  18.254 -23.873  0.00  0.00     0.102 C 
BRANCH  16  17
ATOM     17  C   UNL d   1      32.011  17.561 -23.911  0.00  0.00     0.019 A 
ATOM     18  C   UNL d   1      32.261  16.884 -23.495  0.00  0.00     0.002 A 
ATOM     19  C   UNL d   1      31.812  16.186 -23.538  0.00  0.00     0.000 A 
ATOM     20  C   UNL d   1      31.124  16.157 -23.987  0.00  0.00     0.000 A 
ATOM     21  C   UNL d   1      30.873  16.834 -24.404  0.00  0.00     0.000 A 
ATOM     22  C   UNL d   1      31.311  17.536 -24.370  0.00  0.00     0.002 A 
ENDBRANCH  16  17
ENDBRANCH  14  16
ENDBRANCH  12  13
ENDBRANCH   1  12
TORSDOF 5
ENDMDL
MODEL 2
REMARK VINA RESULT:      -3.2      1.455      5.307
REMARK  5 active torsions:
REMARK  status: ('A' for Active; 'I' for Inactive)
REMARK    1  A    between atoms: C_6  and  N_2 
REMARK    2  A    between atoms: C_7  and  C_6 
REMARK    3  A    between atoms: C_8  and  C_7 
REMARK       I    between atoms: N_10  and  C_8 
REMARK    4  A    between atoms: C_12  and  N_10 
REMARK    5  A    between atoms: C_13  and  C_12 
ROOT
ATOM      1  C   UNL d   1      32.643  18.911 -23.147  0.00  0.00     0.088 C 
ENDROOT
BRANCH   1   2
ATOM      2  N   UNL d   1      32.756  18.469 -23.833  0.00  0.00    -0.268 N 
ATOM      3  C   UNL d   1      32.976  18.763 -24.568  0.00  0.00     0.296 A 
ATOM      4  S   UNL d   1      33.020  18.090 -25.096  0.00  0.00    -0.025 SA
ATOM      5  O   UNL d   1      33.123  19.554 -24.747  0.00  0.00    -0.259 OA
ATOM      6  C   UNL d   1      32.832  17.443 -24.679  0.00  0.00     0.050 A 
ATOM      7  C   UNL d   1      32.788  16.649 -24.914  0.00  0.00     0.008 A 
ATOM      8  C   UNL d   1      32.666  17.652 -23.898  0.00  0.00     0.073 A 
ATOM      9  C   UNL d   1      32.576  16.064 -24.364  0.00  0.00     0.001 A 
ATOM     10  C   UNL d   1      32.411  16.285 -23.586  0.00  0.00     0.002 A 
ATOM     11  C   UNL d   1      32.457  17.077 -23.356  0.00  0.00     0.018 A 
ENDBRANCH   1   2
BRANCH   1  12
ATOM     12  C   UNL d   1      33.232  19.416 -22.880  0.00  0.00     0.082 C 
BRANCH  12  13
ATOM     13  C   UNL d   1      33.157  19.799 -22.153  0.00  0.00     0.281 C 
ATOM     14  N   UNL d   1      32.999  20.605 -22.119  0.00  0.00    -0.206 NA
ATOM     15  O   UNL d   1      33.241  19.369 -21.454  0.00  0.00    -0.265 OA
BRANCH  14  16
ATOM     16  C   UNL d   1      32.925  20.982 -21.396  0.00  0.00     0.102 C 
BRANCH  16  17
ATOM     17  C   UNL d   1      32.723  21.778 -21.370  0.00  0.00     0.019 A 
ATOM     18  C   UNL d   1      33.041  22.309 -21.927  0.00  0.00     0.002 A 
ATOM     19  C   UNL d   1      32.832  23.112 -21.894  0.00  0.00     0.000 A 
ATOM     20  C   UNL d   1      32.316  23.388 -21.317  0.00  0.00     0.000 A 
ATOM     21  C   UNL d   1      31.997  22.857 -20.759  0.00  0.00     0.000 A 
ATOM     22  C   UNL d   1      32.197  22.054 -20.780  0.00  0.00     0.002 A 
ENDBRANCH  16  17
ENDBRANCH  14  16
ENDBRANCH  12  13
ENDBRANCH   1  12
TORSDOF 5
ENDMDL
MODEL 3
REMARK VINA RESULT:      -3.1      1.342      2.175
REMARK  5 active torsions:
REMARK  status: ('A' for Active; 'I' for Inactive)
REMARK    1  A    between atoms: C_6  and  N_2 
REMARK    2  A    between atoms: C_7  and  C_6 
REMARK    3  A    between atoms: C_8  and  C_7 
REMARK       I    between atoms: N_10  and  C_8 
REMARK    4  A    between atoms: C_12  and  N_10 
REMARK    5  A    between atoms: C_13  and  C_12 
ROOT
ATOM      1  C   UNL d   1      32.673  21.312 -21.080  0.00  0.00     0.088 C 
ENDROOT
BRANCH   1   2
ATOM      2  N   UNL d   1      32.734  22.111 -20.891  0.00  0.00    -0.268 N 
ATOM      3  C   UNL d   1      32.630  22.741 -21.408  0.00  0.00     0.296 A 
ATOM      4  S   UNL d   1      32.751  23.455 -20.950  0.00  0.00    -0.025 SA
ATOM      5  O   UNL d   1      32.444  22.682 -22.209  0.00  0.00    -0.259 OA
ATOM      6  C   UNL d   1      32.917  23.239 -20.206  0.00  0.00     0.050 A 
ATOM      7  C   UNL d   1      33.081  23.702 -19.538  0.00  0.00     0.008 A 
ATOM      8  C   UNL d   1      32.913  22.416 -20.145  0.00  0.00     0.073 A 
ATOM      9  C   UNL d   1      33.241  23.339 -18.809  0.00  0.00     0.001 A 
ATOM     10  C   UNL d   1      33.233  22.516 -18.760  0.00  0.00     0.002 A 
ATOM     11  C   UNL d   1      33.070  22.057 -19.428  0.00  0.00     0.018 A 
ENDBRANCH   1   2
BRANCH   1  12
ATOM     12  C   UNL d   1      33.155  20.986 -21.658  0.00  0.00     0.082 C 
BRANCH  12  13
ATOM     13  C   UNL d   1      33.169  20.171 -21.781  0.00  0.00     0.281 C 
ATOM     14  N   UNL d   1      33.133  19.862 -22.542  0.00  0.00    -0.206 NA
ATOM     15  O   UNL d   1      33.219  19.661 -21.135  0.00  0.00    -0.265 OA
BRANCH  14  16
ATOM     16  C   UNL d   1      33.147  19.051 -22.660  0.00  0.00     0.102 C 
BRANCH  16  17
ATOM     17  C   UNL d   1      32.943  18.744 -23.394  0.00  0.00     0.019 A 
ATOM     18  C   UNL d   1      33.190  19.125 -24.092  0.00  0.00     0.002 A 
ATOM     19  C   UNL d   1      32.980  18.807 -24.830  0.00  0.00     0.000 A 
ATOM     20  C   UNL d   1      32.531  18.121 -24.879  0.00  0.00     0.000 A 
ATOM     21  C   UNL d   1      32.282  17.739 -24.181  0.00  0.00     0.000 A 
ATOM     22  C   UNL d   1      32.485  18.044 -23.439  0.00  0.00     0.002 A 
ENDBRANCH  16  17
ENDBRANCH  14  16
ENDBRANCH  12  13
ENDBRANCH   1  12
TORSDOF 5
ENDMDL
MODEL 4
REMARK VINA RESULT:      -2.9      1.543      2.372
REMARK  5 active torsions:
REMARK  status: ('A' for Active; 'I' for Inactive)
REMARK    1  A    between atoms: C_6  and  N_2 
REMARK    2  A    between atoms: C_7  and  C_6 
REMARK    3  A    between atoms: C_8  and  C_7 
REMARK       I    between atoms: N_10  and  C_8 
REMARK    4  A    between atoms: C_12  and  N_10 
REMARK    5  A    between atoms: C_13  and  C_12 
ROOT
ATOM      1  C   UNL d   1      33.145  18.887 -23.430  0.00  0.00     0.088 C 
ENDROOT
BRANCH   1   2
ATOM      2  N   UNL d   1      33.179  19.702 -23.317  0.00  0.00    -0.268 N 
ATOM      3  C   UNL d   1      33.212  20.271 -23.909  0.00  0.00     0.296 A 
ATOM      4  S   UNL d   1      33.241  21.031 -23.514  0.00  0.00    -0.025 SA
ATOM      5  O   UNL d   1      33.216  20.125 -24.720  0.00  0.00    -0.259 OA
ATOM      6  C   UNL d   1      33.225  20.898 -22.733  0.00  0.00     0.050 A 
ATOM      7  C   UNL d   1      33.240  21.432 -22.098  0.00  0.00     0.008 A 
ATOM      8  C   UNL d   1      33.187  20.087 -22.588  0.00  0.00     0.073 A 
ATOM      9  C   UNL d   1      33.218  21.151 -21.318  0.00  0.00     0.001 A 
ATOM     10  C   UNL d   1      33.180  20.337 -21.185  0.00  0.00     0.002 A 
ATOM     11  C   UNL d   1      33.165  19.808 -21.820  0.00  0.00     0.018 A 
ENDBRANCH   1   2
BRANCH   1  12
ATOM     12  C   UNL d   1      32.495  18.548 -23.799  0.00  0.00     0.082 C 
BRANCH  12  13
ATOM     13  C   UNL d   1      32.446  17.730 -23.892  0.00  0.00     0.281 C 
ATOM     14  N   UNL d   1      31.743  17.377 -24.129  0.00  0.00    -0.206 NA
ATOM     15  O   UNL d   1      33.109  17.261 -23.745  0.00  0.00    -0.265 OA
BRANCH  14  16
ATOM     16  C   UNL d   1      31.698  16.564 -24.220  0.00  0.00     0.102 C 
BRANCH  16  17
ATOM     17  C   UNL d   1      30.963  16.202 -24.280  0.00  0.00     0.019 A 
ATOM     18  C   UNL d   1      30.598  16.115 -25.024  0.00  0.00     0.002 A 
ATOM     19  C   UNL d   1      29.855  15.746 -25.076  0.00  0.00     0.000 A 
ATOM     20  C   UNL d   1      29.477  15.468 -24.402  0.00  0.00     0.000 A 
ATOM     21  C   UNL d   1      29.842  15.554 -23.657  0.00  0.00     0.000 A 
ATOM     22  C   UNL d   1      30.582  15.919 -23.591  0.00  0.00     0.002 A 
ENDBRANCH  16  17
ENDBRANCH  14  16
ENDBRANCH  12  13
ENDBRANCH   1  12
TORSDOF 5
ENDMDL
MODEL 5
REMARK VINA RESULT:      -2.5      2.156      5.368
REMARK  5 active torsions:
REMARK  status: ('A' for Active; 'I' for Inactive)
REMARK    1  A    between atoms: C_6  and  N_2 
REMARK    2  A    between atoms: C_7  and  C_6 
REMARK    3  A    between atoms: C_8  and  C_7 
REMARK       I    between atoms: N_10  and  C_8 
REMARK    4  A    between atoms: C_12  and  N_10 
REMARK    5  A    between atoms: C_13  and  C_12 
ROOT
ATOM      1  C   UNL d   1      31.562  17.264 -23.446  0.00  0.00     0.088 C 
ENDROOT
BRANCH   1   2
ATOM      2  N   UNL d   1      31.145  16.827 -24.006  0.00  0.00    -0.268 N 
ATOM      3  C   UNL d   1      31.446  16.214 -24.462  0.00  0.00     0.296 A 
ATOM      4  S   UNL d   1      30.801  15.939 -24.956  0.00  0.00    -0.025 SA
ATOM      5  O   UNL d   1      32.218  15.928 -24.440  0.00  0.00    -0.259 OA
ATOM      6  C   UNL d   1      30.163  16.378 -24.786  0.00  0.00     0.050 A 
ATOM      7  C   UNL d   1      29.395  16.350 -25.097  0.00  0.00     0.008 A 
ATOM      8  C   UNL d   1      30.352  16.932 -24.203  0.00  0.00     0.073 A 
ATOM      9  C   UNL d   1      28.816  16.877 -24.823  0.00  0.00     0.001 A 
ATOM     10  C   UNL d   1      29.016  17.426 -24.241  0.00  0.00     0.002 A 
ATOM     11  C   UNL d   1      29.782  17.452 -23.933  0.00  0.00     0.018 A 
ENDBRANCH   1   2
BRANCH   1  12
ATOM     12  C   UNL d   1      32.279  17.612 -23.643  0.00  0.00     0.082 C 
BRANCH  12  13
ATOM     13  C   UNL d   1      32.730  17.996 -23.069  0.00  0.00     0.281 C 
ATOM     14  N   UNL d   1      32.788  18.815 -23.062  0.00  0.00    -0.206 NA
ATOM     15  O   UNL d   1      33.127  17.552 -22.498  0.00  0.00    -0.265 OA
BRANCH  14  16
ATOM     16  C   UNL d   1      33.237  19.193 -22.490  0.00  0.00     0.102 C 
BRANCH  16  17
ATOM     17  C   UNL d   1      33.177  20.007 -22.398  0.00  0.00     0.019 A 
ATOM     18  C   UNL d   1      33.055  20.335 -21.642  0.00  0.00     0.002 A 
ATOM     19  C   UNL d   1      32.996  21.160 -21.557  0.00  0.00     0.000 A 
ATOM     20  C   UNL d   1      33.057  21.654 -22.211  0.00  0.00     0.000 A 
ATOM     21  C   UNL d   1      33.180  21.327 -22.967  0.00  0.00     0.000 A 
ATOM     22  C   UNL d   1      33.241  20.507 -23.066  0.00  0.00     0.002 A 
ENDBRANCH  16  17
ENDBRANCH  14  16
ENDBRANCH  12  13
ENDBRANCH   1  12
TORSDOF 5
ENDMDL
MODEL 6
REMARK VINA RESULT:      -1.5      2.351      3.847
REMARK  5 active torsions:
REMARK  status: ('A' for Active; 'I' for Inactive)
REMARK    1  A    between atoms: C_6  and  N_2 
REMARK    2  A    between atoms: C_7  and  C_6 
REMARK    3  A    between atoms: C_8  and  C_7 
REMARK       I    between atoms: N_10  and  C_8 
REMARK    4  A    between atoms: C_12  and  N_10 
REMARK    5  A    between atoms: C_13  and  C_12 
ROOT
ATOM      1  C   UNL d   1      32.141  17.349 -23.555  0.00  0.00     0.088 C 
ENDROOT
BRANCH   1   2
ATOM      2  N   UNL d   1      32.531  18.040 -23.774  0.00  0.00    -0.268 N 
ATOM      3  C   UNL d   1      32.929  18.168 -24.481  0.00  0.00     0.296 A 
ATOM      4  S   UNL d   1      33.239  18.966 -24.446  0.00  0.00    -0.025 SA
ATOM      5  O   UNL d   1      33.008  17.625 -25.096  0.00  0.00    -0.259 OA
ATOM      6  C   UNL d   1      33.024  19.277 -23.749  0.00  0.00     0.050 A 
ATOM      7  C   UNL d   1      33.175  20.028 -23.429  0.00  0.00     0.008 A 
ATOM      8  C   UNL d   1      32.588  18.725 -23.318  0.00  0.00     0.073 A 
ATOM      9  C   UNL d   1      32.886  20.223 -22.676  0.00  0.00     0.001 A 
ATOM     10  C   UNL d   1      32.451  19.664 -22.255  0.00  0.00     0.002 A 
ATOM     11  C   UNL d   1      32.303  18.917 -22.577  0.00  0.00     0.018 A 
ENDBRANCH   1   2
BRANCH   1  12
ATOM     12  C   UNL d   1      31.471  17.105 -23.962  0.00  0.00     0.082 C 
BRANCH  12  13
ATOM     13  C   UNL d   1      31.089  16.404 -23.757  0.00  0.00     0.281 C 
ATOM     14  N   UNL d   1      30.282  16.314 -23.886  0.00  0.00    -0.206 NA
ATOM     15  O   UNL d   1      31.520  15.787 -23.420  0.00  0.00    -0.265 OA
BRANCH  14  16
ATOM     16  C   UNL d   1      29.906  15.616 -23.682  0.00  0.00     0.102 C 
BRANCH  16  17
ATOM     17  C   UNL d   1      29.091  15.609 -23.575  0.00  0.00     0.019 A 
ATOM     18  C   UNL d   1      28.585  15.459 -24.219  0.00  0.00     0.002 A 
ATOM     19  C   UNL d   1      27.763  15.453 -24.102  0.00  0.00     0.000 A 
ATOM     20  C   UNL d   1      27.444  15.594 -23.358  0.00  0.00     0.000 A 
ATOM     21  C   UNL d   1      27.949  15.744 -22.713  0.00  0.00     0.000 A 
ATOM     22  C   UNL d   1      28.771  15.753 -22.815  0.00  0.00     0.002 A 
ENDBRANCH  16  17
ENDBRANCH  14  16
ENDBRANCH  12  13
ENDBRANCH   1  12
TORSDOF 5
ENDMDL
