MODEL 1
REMARK VINA RESULT:      -4.3      0.000      0.000
REMARK  3 active torsions:
REMARK  status: ('A' for Active; 'I' for Inactive)
REMARK    1  A    between atoms: C_2  and  C_1 
REMARK    2  A    between atoms: C_3  and  C_1 
REMARK    3  A    between atoms: C_5  and  C_2 
ROOT
ATOM      1  C   UNL d   1     -41.122-122.576 -52.904  0.00  0.00     0.000 C 
ENDROOT
BRANCH   1   2
ATOM      2  C   UNL d   1     -41.783-122.781 -53.351  0.00  0.00     0.000 C 
BRANCH   2   3
ATOM      3  C   UNL d   1     -41.853-122.501 -54.125  0.00  0.00     0.000 A 
ATOM      4  C   UNL d   1     -42.473-121.991 -54.320  0.00  0.00     0.000 A 
ATOM      5  C   UNL d   1     -42.549-121.707 -55.090  0.00  0.00     0.000 A 
ATOM      6  C   UNL d   1     -42.002-121.934 -55.671  0.00  0.00     0.000 A 
ATOM      7  C   UNL d   1     -41.383-122.442 -55.479  0.00  0.00     0.000 A 
ATOM      8  C   UNL d   1     -41.306-122.728 -54.707  0.00  0.00     0.000 A 
ENDBRANCH   2   3
ENDBRANCH   1   2
BRANCH   1   9
ATOM      9  C   UNL d   1     -41.124-122.697 -52.090  0.00  0.00     0.000 A 
ATOM     10  C   UNL d   1     -41.125-122.049 -51.579  0.00  0.00     0.002 A 
ATOM     11  C   UNL d   1     -41.126-122.169 -50.765  0.00  0.00     0.021 A 
ATOM     12  C   UNL d   1     -41.126-122.935 -50.458  0.00  0.00     0.103 A 
ATOM     13  C   UNL d   1     -41.125-123.581 -50.973  0.00  0.00     0.021 A 
ATOM     14  N   UNL d   1     -41.128-123.051 -49.639  0.00  0.00    -0.148 N 
ATOM     15  C   UNL d   1     -41.124-123.463 -51.789  0.00  0.00     0.002 A 
ENDBRANCH   1   9
TORSDOF 3
ENDMDL
