MODEL 1
REMARK VINA RESULT:      32.5      0.000      0.000
REMARK  3 active torsions:
REMARK  status: ('A' for Active; 'I' for Inactive)
REMARK       I    between atoms: C_2  and  N_1 
REMARK    1  A    between atoms: C_6  and  C_2 
REMARK    2  A    between atoms: O_14  and  C_9 
REMARK    3  A    between atoms: O_16  and  C_11 
ROOT
ATOM      1  C   UNL d   1      13.474  13.071  -3.484  0.00  0.00     0.060 A 
ATOM      2  C   UNL d   1      13.382  12.923  -4.287  0.00  0.00     0.031 A 
ATOM      3  C   UNL d   1      13.408  13.538  -4.831  0.00  0.00     0.116 A 
ATOM      4  C   UNL d   1      13.528  14.315  -4.567  0.00  0.00     0.116 A 
ATOM      5  C   UNL d   1      13.594  13.848  -3.220  0.00  0.00     0.007 A 
ATOM      6  C   UNL d   1      13.620  14.469  -3.763  0.00  0.00     0.026 A 
ENDROOT
BRANCH   1   7
ATOM      7  C   UNL d   1      13.448  12.452  -2.944  0.00  0.00     0.280 C 
ATOM      8  N   UNL d   1      13.890  12.494  -2.252  0.00  0.00    -0.195 N 
ATOM      9  N   UNL d   1      13.920  11.916  -1.656  0.00  0.00    -0.163 NA
ATOM     10  C   UNL d   1      14.379  13.115  -2.026  0.00  0.00     0.088 A 
ATOM     11  C   UNL d   1      14.430  12.183  -1.064  0.00  0.00     0.103 A 
ATOM     12  C   UNL d   1      14.620  11.780  -0.367  0.00  0.00     0.022 C 
ATOM     13  C   UNL d   1      14.714  12.922  -1.289  0.00  0.00     0.040 A 
ATOM     14  C   UNL d   1      14.516  13.810  -2.455  0.00  0.00     0.021 C 
ATOM     15  O   UNL d   1      12.980  11.790  -3.096  0.00  0.00    -0.265 OA
ENDBRANCH   1   7
BRANCH   3  16
ATOM     16  O   UNL d   1      13.315  13.385  -5.634  0.00  0.00    -0.326 OA
ATOM     17  C   UNL d   1      13.812  12.845  -6.010  0.00  0.00     0.181 C 
ENDBRANCH   3  16
BRANCH   4  18
ATOM     18  O   UNL d   1      13.554  14.932  -5.109  0.00  0.00    -0.326 OA
ATOM     19  C   UNL d   1      13.772  15.688  -4.868  0.00  0.00     0.181 C 
ENDBRANCH   4  18
TORSDOF 3
ENDMDL
