MODEL 1
REMARK VINA RESULT:      -6.5      0.000      0.000
REMARK  7 active torsions:
REMARK  status: ('A' for Active; 'I' for Inactive)
REMARK    1  A    between atoms: O_8  and  C_1 
REMARK    2  A    between atoms: C_10  and  C_5 
REMARK    3  A    between atoms: C_12  and  O_8 
REMARK    4  A    between atoms: N_9  and  C_10 
REMARK    5  A    between atoms: C_25  and  N_14 
REMARK    6  A    between atoms: O_24  and  C_17 
REMARK    7  A    between atoms: C_29  and  C_25 
ROOT
ATOM      1  C   UNL d   1      50.830  33.962  53.262  0.00  0.00     0.161 A 
ATOM      2  C   UNL d   1      52.313  33.229  53.073  0.00  0.00     0.108 A 
ATOM      3  C   UNL d   1      52.263  34.015  53.356  0.00  0.00     0.064 A 
ATOM      4  C   UNL d   1      51.531  34.379  53.450  0.00  0.00     0.222 A 
ATOM      5  C   UNL d   1      53.054  32.873  52.983  0.00  0.00     0.079 A 
ATOM      6  O   UNL d   1      51.625  32.812  52.886  0.00  0.00    -0.305 OA
ATOM      7  C   UNL d   1      50.879  33.179  52.981  0.00  0.00     0.126 A 
ATOM      8  C   UNL d   1      52.964  34.428  53.542  0.00  0.00     0.009 A 
ATOM      9  C   UNL d   1      53.743  33.278  53.165  0.00  0.00     0.199 A 
ATOM     10  O   UNL d   1      51.477  35.153  53.728  0.00  0.00    -0.284 OA
ATOM     11  C   UNL d   1      53.697  34.064  53.448  0.00  0.00     0.042 A 
ATOM     12  O   UNL d   1      54.474  32.927  53.076  0.00  0.00    -0.286 OA
ATOM     13  C   UNL d   1      50.192  32.767  52.795  0.00  0.00     0.029 C 
ENDROOT
BRANCH   5  14
ATOM     14  C   UNL d   1      53.098  32.103  52.705  0.00  0.00     0.086 C 
BRANCH  14  15
ATOM     15  N   UNL d   1      53.148  31.473  53.240  0.00  0.00    -0.300 N 
ATOM     16  C   UNL d   1      52.811  30.746  53.048  0.00  0.00     0.100 A 
ATOM     17  C   UNL d   1      52.860  30.119  53.579  0.00  0.00     0.100 A 
ATOM     18  N   UNL d   1      53.247  30.219  54.303  0.00  0.00    -0.297 N 
ATOM     19  C   UNL d   1      53.583  30.949  54.492  0.00  0.00     0.100 A 
ATOM     20  C   UNL d   1      53.536  31.585  53.959  0.00  0.00     0.100 A 
BRANCH  18  21
ATOM     21  C   UNL d   1      53.296  29.593  54.835  0.00  0.00     0.126 C 
BRANCH  21  22
ATOM     22  C   UNL d   1      53.376  28.820  54.556  0.00  0.00     0.253 C 
ATOM     23  O   UNL d   1      53.447  28.192  55.094  0.00  0.00    -0.281 OA
ENDBRANCH  21  22
ENDBRANCH  18  21
ENDBRANCH  14  15
ENDBRANCH   5  14
BRANCH   1  24
ATOM     24  O   UNL d   1      50.097  34.324  53.355  0.00  0.00    -0.300 OA
BRANCH  24  25
ATOM     25  C   UNL d   1      49.696  34.602  52.700  0.00  0.00     0.122 A 
ATOM     26  C   UNL d   1      49.074  35.123  52.791  0.00  0.00     0.117 A 
ATOM     27  C   UNL d   1      48.671  35.402  52.133  0.00  0.00     0.026 A 
ATOM     28  C   UNL d   1      48.899  35.153  51.379  0.00  0.00     0.002 A 
ATOM     29  C   UNL d   1      49.522  34.632  51.287  0.00  0.00     0.002 A 
ATOM     30  C   UNL d   1      49.926  34.352  51.949  0.00  0.00     0.027 A 
BRANCH  26  31
ATOM     31  O   UNL d   1      48.855  35.364  53.547  0.00  0.00    -0.326 OA
ATOM     32  C   UNL d   1      48.233  35.897  53.647  0.00  0.00     0.181 C 
ENDBRANCH  26  31
ENDBRANCH  24  25
ENDBRANCH   1  24
TORSDOF 7
ENDMDL
MODEL 2
REMARK VINA RESULT:      -6.1      1.550      5.084
REMARK  7 active torsions:
REMARK  status: ('A' for Active; 'I' for Inactive)
REMARK    1  A    between atoms: O_8  and  C_1 
REMARK    2  A    between atoms: C_10  and  C_5 
REMARK    3  A    between atoms: C_12  and  O_8 
REMARK    4  A    between atoms: N_9  and  C_10 
REMARK    5  A    between atoms: C_25  and  N_14 
REMARK    6  A    between atoms: O_24  and  C_17 
REMARK    7  A    between atoms: C_29  and  C_25 
ROOT
ATOM      1  C   UNL d   1      53.537  31.742  53.672  0.00  0.00     0.161 A 
ATOM      2  C   UNL d   1      53.141  33.358  53.605  0.00  0.00     0.108 A 
ATOM      3  C   UNL d   1      53.431  33.023  54.315  0.00  0.00     0.064 A 
ATOM      4  C   UNL d   1      53.627  32.224  54.350  0.00  0.00     0.222 A 
ATOM      5  C   UNL d   1      52.947  34.161  53.581  0.00  0.00     0.079 A 
ATOM      6  O   UNL d   1      53.050  32.887  52.933  0.00  0.00    -0.305 OA
ATOM      7  C   UNL d   1      53.248  32.075  52.965  0.00  0.00     0.126 A 
ATOM      8  C   UNL d   1      53.519  33.507  54.989  0.00  0.00     0.009 A 
ATOM      9  C   UNL d   1      53.033  34.637  54.242  0.00  0.00     0.199 A 
ATOM     10  O   UNL d   1      53.913  31.890  55.048  0.00  0.00    -0.284 OA
ATOM     11  C   UNL d   1      53.323  34.306  54.955  0.00  0.00     0.042 A 
ATOM     12  O   UNL d   1      52.842  35.430  54.219  0.00  0.00    -0.286 OA
ATOM     13  C   UNL d   1      53.159  31.602  52.297  0.00  0.00     0.029 C 
ENDROOT
BRANCH   5  14
ATOM     14  C   UNL d   1      52.663  34.485  52.883  0.00  0.00     0.086 C 
BRANCH  14  15
ATOM     15  N   UNL d   1      51.850  34.480  52.726  0.00  0.00    -0.300 N 
ATOM     16  C   UNL d   1      51.582  34.295  51.968  0.00  0.00     0.100 A 
ATOM     17  C   UNL d   1      50.774  34.291  51.811  0.00  0.00     0.100 A 
ATOM     18  N   UNL d   1      50.234  34.471  52.410  0.00  0.00    -0.297 N 
ATOM     19  C   UNL d   1      50.507  34.655  53.167  0.00  0.00     0.100 A 
ATOM     20  C   UNL d   1      51.322  34.661  53.331  0.00  0.00     0.100 A 
BRANCH  18  21
ATOM     21  C   UNL d   1      49.426  34.466  52.253  0.00  0.00     0.126 C 
BRANCH  21  22
ATOM     22  C   UNL d   1      49.142  34.773  51.542  0.00  0.00     0.253 C 
ATOM     23  O   UNL d   1      48.324  34.811  51.406  0.00  0.00    -0.281 OA
ENDBRANCH  21  22
ENDBRANCH  18  21
ENDBRANCH  14  15
ENDBRANCH   5  14
BRANCH   1  24
ATOM     24  O   UNL d   1      53.733  30.943  53.706  0.00  0.00    -0.300 OA
BRANCH  24  25
ATOM     25  C   UNL d   1      53.140  30.383  53.752  0.00  0.00     0.122 A 
ATOM     26  C   UNL d   1      53.318  29.617  53.977  0.00  0.00     0.117 A 
ATOM     27  C   UNL d   1      52.723  29.054  54.024  0.00  0.00     0.026 A 
ATOM     28  C   UNL d   1      51.945  29.266  53.843  0.00  0.00     0.002 A 
ATOM     29  C   UNL d   1      51.767  30.032  53.619  0.00  0.00     0.002 A 
ATOM     30  C   UNL d   1      52.366  30.597  53.572  0.00  0.00     0.027 A 
BRANCH  26  31
ATOM     31  O   UNL d   1      54.096  29.417  54.154  0.00  0.00    -0.326 OA
ATOM     32  C   UNL d   1      54.276  28.661  54.432  0.00  0.00     0.181 C 
ENDBRANCH  26  31
ENDBRANCH  24  25
ENDBRANCH   1  24
TORSDOF 7
ENDMDL
MODEL 3
REMARK VINA RESULT:      -5.4      2.535      6.100
REMARK  7 active torsions:
REMARK  status: ('A' for Active; 'I' for Inactive)
REMARK    1  A    between atoms: O_8  and  C_1 
REMARK    2  A    between atoms: C_10  and  C_5 
REMARK    3  A    between atoms: C_12  and  O_8 
REMARK    4  A    between atoms: N_9  and  C_10 
REMARK    5  A    between atoms: C_25  and  N_14 
REMARK    6  A    between atoms: O_24  and  C_17 
REMARK    7  A    between atoms: C_29  and  C_25 
ROOT
ATOM      1  C   UNL d   1      50.161  34.115  52.852  0.00  0.00     0.161 A 
ATOM      2  C   UNL d   1      48.946  35.209  52.532  0.00  0.00     0.108 A 
ATOM      3  C   UNL d   1      49.188  34.662  51.947  0.00  0.00     0.064 A 
ATOM      4  C   UNL d   1      49.788  34.121  52.103  0.00  0.00     0.222 A 
ATOM      5  C   UNL d   1      48.343  35.748  52.365  0.00  0.00     0.079 A 
ATOM      6  O   UNL d   1      49.311  35.208  53.273  0.00  0.00    -0.305 OA
ATOM      7  C   UNL d   1      49.921  34.659  53.435  0.00  0.00     0.126 A 
ATOM      8  C   UNL d   1      48.814  34.670  51.201  0.00  0.00     0.009 A 
ATOM      9  C   UNL d   1      47.975  35.757  51.632  0.00  0.00     0.199 A 
ATOM     10  O   UNL d   1      50.028  33.580  51.529  0.00  0.00    -0.284 OA
ATOM     11  C   UNL d   1      48.213  35.212  51.044  0.00  0.00     0.042 A 
ATOM     12  O   UNL d   1      47.379  36.290  51.467  0.00  0.00    -0.286 OA
ATOM     13  C   UNL d   1      50.286  34.656  54.173  0.00  0.00     0.029 C 
ENDROOT
BRANCH   5  14
ATOM     14  C   UNL d   1      48.110  36.282  52.942  0.00  0.00     0.086 C 
BRANCH  14  15
ATOM     15  N   UNL d   1      47.411  36.153  53.366  0.00  0.00    -0.300 N 
ATOM     16  C   UNL d   1      47.439  36.090  54.188  0.00  0.00     0.100 A 
ATOM     17  C   UNL d   1      46.745  35.962  54.611  0.00  0.00     0.100 A 
ATOM     18  N   UNL d   1      46.023  35.897  54.213  0.00  0.00    -0.297 N 
ATOM     19  C   UNL d   1      46.000  35.961  53.391  0.00  0.00     0.100 A 
ATOM     20  C   UNL d   1      46.698  36.091  52.959  0.00  0.00     0.100 A 
BRANCH  18  21
ATOM     21  C   UNL d   1      45.328  35.769  54.636  0.00  0.00     0.126 C 
BRANCH  21  22
ATOM     22  C   UNL d   1      45.025  35.005  54.710  0.00  0.00     0.253 C 
ATOM     23  O   UNL d   1      44.349  34.872  55.174  0.00  0.00    -0.281 OA
ENDBRANCH  21  22
ENDBRANCH  18  21
ENDBRANCH  14  15
ENDBRANCH   5  14
BRANCH   1  24
ATOM     24  O   UNL d   1      50.761  33.574  53.010  0.00  0.00    -0.300 OA
BRANCH  24  25
ATOM     25  C   UNL d   1      51.542  33.805  52.943  0.00  0.00     0.122 A 
ATOM     26  C   UNL d   1      52.138  33.249  52.987  0.00  0.00     0.117 A 
ATOM     27  C   UNL d   1      52.923  33.480  52.919  0.00  0.00     0.026 A 
ATOM     28  C   UNL d   1      53.104  34.278  52.807  0.00  0.00     0.002 A 
ATOM     29  C   UNL d   1      52.508  34.835  52.763  0.00  0.00     0.002 A 
ATOM     30  C   UNL d   1      51.719  34.602  52.831  0.00  0.00     0.027 A 
BRANCH  26  31
ATOM     31  O   UNL d   1      51.946  32.456  53.099  0.00  0.00    -0.326 OA
ATOM     32  C   UNL d   1      52.538  31.882  53.094  0.00  0.00     0.181 C 
ENDBRANCH  26  31
ENDBRANCH  24  25
ENDBRANCH   1  24
TORSDOF 7
ENDMDL
MODEL 4
REMARK VINA RESULT:      -5.4      1.407      2.494
REMARK  7 active torsions:
REMARK  status: ('A' for Active; 'I' for Inactive)
REMARK    1  A    between atoms: O_8  and  C_1 
REMARK    2  A    between atoms: C_10  and  C_5 
REMARK    3  A    between atoms: C_12  and  O_8 
REMARK    4  A    between atoms: N_9  and  C_10 
REMARK    5  A    between atoms: C_25  and  N_14 
REMARK    6  A    between atoms: O_24  and  C_17 
REMARK    7  A    between atoms: C_29  and  C_25 
ROOT
ATOM      1  C   UNL d   1      50.862  33.904  52.989  0.00  0.00     0.161 A 
ATOM      2  C   UNL d   1      52.086  32.775  52.983  0.00  0.00     0.108 A 
ATOM      3  C   UNL d   1      51.299  32.545  53.155  0.00  0.00     0.064 A 
ATOM      4  C   UNL d   1      50.694  33.103  53.158  0.00  0.00     0.222 A 
ATOM      5  C   UNL d   1      52.687  32.208  52.982  0.00  0.00     0.079 A 
ATOM      6  O   UNL d   1      52.258  33.565  52.815  0.00  0.00    -0.305 OA
ATOM      7  C   UNL d   1      51.644  34.133  52.818  0.00  0.00     0.126 A 
ATOM      8  C   UNL d   1      51.135  31.745  53.323  0.00  0.00     0.009 A 
ATOM      9  C   UNL d   1      52.526  31.421  53.147  0.00  0.00     0.199 A 
ATOM     10  O   UNL d   1      49.917  32.881  53.328  0.00  0.00    -0.284 OA
ATOM     11  C   UNL d   1      51.741  31.187  53.320  0.00  0.00     0.042 A 
ATOM     12  O   UNL d   1      53.119  30.860  53.146  0.00  0.00    -0.286 OA
ATOM     13  C   UNL d   1      51.813  34.921  52.651  0.00  0.00     0.029 C 
ENDROOT
BRANCH   5  14
ATOM     14  C   UNL d   1      53.455  32.437  52.813  0.00  0.00     0.086 C 
BRANCH  14  15
ATOM     15  N   UNL d   1      53.948  32.709  53.419  0.00  0.00    -0.300 N 
ATOM     16  C   UNL d   1      54.557  33.238  53.244  0.00  0.00     0.100 A 
ATOM     17  C   UNL d   1      55.047  33.510  53.846  0.00  0.00     0.100 A 
ATOM     18  N   UNL d   1      54.931  33.253  54.623  0.00  0.00    -0.297 N 
ATOM     19  C   UNL d   1      54.321  32.723  54.794  0.00  0.00     0.100 A 
ATOM     20  C   UNL d   1      53.823  32.446  54.189  0.00  0.00     0.100 A 
BRANCH  18  21
ATOM     21  C   UNL d   1      55.422  33.524  55.226  0.00  0.00     0.126 C 
BRANCH  21  22
ATOM     22  C   UNL d   1      55.143  34.083  55.765  0.00  0.00     0.253 C 
ATOM     23  O   UNL d   1      55.515  34.168  56.502  0.00  0.00    -0.281 OA
ENDBRANCH  21  22
ENDBRANCH  18  21
ENDBRANCH  14  15
ENDBRANCH   5  14
BRANCH   1  24
ATOM     24  O   UNL d   1      50.257  34.463  52.992  0.00  0.00    -0.300 OA
BRANCH  24  25
ATOM     25  C   UNL d   1      49.785  34.551  52.332  0.00  0.00     0.122 A 
ATOM     26  C   UNL d   1      49.098  34.991  52.376  0.00  0.00     0.117 A 
ATOM     27  C   UNL d   1      48.622  35.080  51.713  0.00  0.00     0.026 A 
ATOM     28  C   UNL d   1      48.844  34.723  51.001  0.00  0.00     0.002 A 
ATOM     29  C   UNL d   1      49.532  34.283  50.957  0.00  0.00     0.002 A 
ATOM     30  C   UNL d   1      50.009  34.194  51.624  0.00  0.00     0.027 A 
BRANCH  26  31
ATOM     31  O   UNL d   1      48.886  35.342  53.090  0.00  0.00    -0.326 OA
ATOM     32  C   UNL d   1      48.248  35.864  53.122  0.00  0.00     0.181 C 
ENDBRANCH  26  31
ENDBRANCH  24  25
ENDBRANCH   1  24
TORSDOF 7
ENDMDL
MODEL 5
REMARK VINA RESULT:      -5.0      2.211      5.634
REMARK  7 active torsions:
REMARK  status: ('A' for Active; 'I' for Inactive)
REMARK    1  A    between atoms: O_8  and  C_1 
REMARK    2  A    between atoms: C_10  and  C_5 
REMARK    3  A    between atoms: C_12  and  O_8 
REMARK    4  A    between atoms: N_9  and  C_10 
REMARK    5  A    between atoms: C_25  and  N_14 
REMARK    6  A    between atoms: O_24  and  C_17 
REMARK    7  A    between atoms: C_29  and  C_25 
ROOT
ATOM      1  C   UNL d   1      52.115  34.048  53.312  0.00  0.00     0.161 A 
ATOM      2  C   UNL d   1      50.725  34.182  52.405  0.00  0.00     0.108 A 
ATOM      3  C   UNL d   1      51.473  34.315  52.054  0.00  0.00     0.064 A 
ATOM      4  C   UNL d   1      52.161  34.249  52.501  0.00  0.00     0.222 A 
ATOM      5  C   UNL d   1      50.041  34.251  51.948  0.00  0.00     0.079 A 
ATOM      6  O   UNL d   1      50.674  33.984  53.205  0.00  0.00    -0.305 OA
ATOM      7  C   UNL d   1      51.371  33.916  53.662  0.00  0.00     0.126 A 
ATOM      8  C   UNL d   1      51.516  34.515  51.245  0.00  0.00     0.009 A 
ATOM      9  C   UNL d   1      50.081  34.447  51.153  0.00  0.00     0.199 A 
ATOM     10  O   UNL d   1      52.901  34.379  52.159  0.00  0.00    -0.284 OA
ATOM     11  C   UNL d   1      50.827  34.581  50.797  0.00  0.00     0.042 A 
ATOM     12  O   UNL d   1      49.405  34.515  50.700  0.00  0.00    -0.286 OA
ATOM     13  C   UNL d   1      51.323  33.719  54.460  0.00  0.00     0.029 C 
ENDROOT
BRANCH   5  14
ATOM     14  C   UNL d   1      49.310  34.120  52.296  0.00  0.00     0.086 C 
BRANCH  14  15
ATOM     15  N   UNL d   1      48.771  34.743  52.371  0.00  0.00    -0.300 N 
ATOM     16  C   UNL d   1      48.180  34.843  51.803  0.00  0.00     0.100 A 
ATOM     17  C   UNL d   1      47.644  35.462  51.876  0.00  0.00     0.100 A 
ATOM     18  N   UNL d   1      47.696  35.983  52.517  0.00  0.00    -0.297 N 
ATOM     19  C   UNL d   1      48.288  35.880  53.082  0.00  0.00     0.100 A 
ATOM     20  C   UNL d   1      48.833  35.255  53.013  0.00  0.00     0.100 A 
BRANCH  18  21
ATOM     21  C   UNL d   1      47.159  36.603  52.591  0.00  0.00     0.126 C 
BRANCH  21  22
ATOM     22  C   UNL d   1      46.497  36.519  53.075  0.00  0.00     0.253 C 
ATOM     23  O   UNL d   1      45.744  36.709  52.782  0.00  0.00    -0.281 OA
ENDBRANCH  21  22
ENDBRANCH  18  21
ENDBRANCH  14  15
ENDBRANCH   5  14
BRANCH   1  24
ATOM     24  O   UNL d   1      52.803  33.982  53.760  0.00  0.00    -0.300 OA
BRANCH  24  25
ATOM     25  C   UNL d   1      53.204  33.271  53.783  0.00  0.00     0.122 A 
ATOM     26  C   UNL d   1      53.899  33.207  54.209  0.00  0.00     0.117 A 
ATOM     27  C   UNL d   1      54.302  32.492  54.232  0.00  0.00     0.026 A 
ATOM     28  C   UNL d   1      54.001  31.840  53.823  0.00  0.00     0.002 A 
ATOM     29  C   UNL d   1      53.307  31.905  53.397  0.00  0.00     0.002 A 
ATOM     30  C   UNL d   1      52.902  32.623  53.374  0.00  0.00     0.027 A 
BRANCH  26  31
ATOM     31  O   UNL d   1      54.189  33.863  54.612  0.00  0.00    -0.326 OA
ATOM     32  C   UNL d   1      54.835  33.784  55.119  0.00  0.00     0.181 C 
ENDBRANCH  26  31
ENDBRANCH  24  25
ENDBRANCH   1  24
TORSDOF 7
ENDMDL
MODEL 6
REMARK VINA RESULT:      -4.4      2.016      4.198
REMARK  7 active torsions:
REMARK  status: ('A' for Active; 'I' for Inactive)
REMARK    1  A    between atoms: O_8  and  C_1 
REMARK    2  A    between atoms: C_10  and  C_5 
REMARK    3  A    between atoms: C_12  and  O_8 
REMARK    4  A    between atoms: N_9  and  C_10 
REMARK    5  A    between atoms: C_25  and  N_14 
REMARK    6  A    between atoms: O_24  and  C_17 
REMARK    7  A    between atoms: C_29  and  C_25 
ROOT
ATOM      1  C   UNL d   1      47.449  36.016  52.593  0.00  0.00     0.161 A 
ATOM      2  C   UNL d   1      48.899  35.281  52.233  0.00  0.00     0.108 A 
ATOM      3  C   UNL d   1      48.243  35.197  51.720  0.00  0.00     0.064 A 
ATOM      4  C   UNL d   1      47.526  35.559  51.897  0.00  0.00     0.222 A 
ATOM      5  C   UNL d   1      49.615  34.913  52.046  0.00  0.00     0.079 A 
ATOM      6  O   UNL d   1      48.829  35.730  52.922  0.00  0.00    -0.305 OA
ATOM      7  C   UNL d   1      48.101  36.100  53.105  0.00  0.00     0.126 A 
ATOM      8  C   UNL d   1      48.324  34.741  51.025  0.00  0.00     0.009 A 
ATOM      9  C   UNL d   1      49.695  34.464  51.364  0.00  0.00     0.199 A 
ATOM     10  O   UNL d   1      46.877  35.479  51.393  0.00  0.00    -0.284 OA
ATOM     11  C   UNL d   1      49.042  34.377  50.848  0.00  0.00     0.042 A 
ATOM     12  O   UNL d   1      50.402  34.100  51.179  0.00  0.00    -0.286 OA
ATOM     13  C   UNL d   1      48.028  36.548  53.791  0.00  0.00     0.029 C 
ENDROOT
BRANCH   5  14
ATOM     14  C   UNL d   1      50.255  34.998  52.552  0.00  0.00     0.086 C 
BRANCH  14  15
ATOM     15  N   UNL d   1      50.688  34.333  52.786  0.00  0.00    -0.300 N 
ATOM     16  C   UNL d   1      51.483  34.268  52.576  0.00  0.00     0.100 A 
ATOM     17  C   UNL d   1      51.914  33.608  52.808  0.00  0.00     0.100 A 
ATOM     18  N   UNL d   1      51.552  33.010  53.250  0.00  0.00    -0.297 N 
ATOM     19  C   UNL d   1      50.756  33.078  53.458  0.00  0.00     0.100 A 
ATOM     20  C   UNL d   1      50.316  33.744  53.226  0.00  0.00     0.100 A 
BRANCH  18  21
ATOM     21  C   UNL d   1      51.984  32.349  53.482  0.00  0.00     0.126 C 
BRANCH  21  22
ATOM     22  C   UNL d   1      52.516  31.998  52.959  0.00  0.00     0.253 C 
ATOM     23  O   UNL d   1      52.927  31.313  53.184  0.00  0.00    -0.281 OA
ENDBRANCH  21  22
ENDBRANCH  18  21
ENDBRANCH  14  15
ENDBRANCH   5  14
BRANCH   1  24
ATOM     24  O   UNL d   1      46.732  36.379  52.771  0.00  0.00    -0.300 OA
BRANCH  24  25
ATOM     25  C   UNL d   1      46.212  36.017  53.288  0.00  0.00     0.122 A 
ATOM     26  C   UNL d   1      45.407  36.113  53.191  0.00  0.00     0.117 A 
ATOM     27  C   UNL d   1      44.884  35.750  53.710  0.00  0.00     0.026 A 
ATOM     28  C   UNL d   1      45.178  35.287  54.328  0.00  0.00     0.002 A 
ATOM     29  C   UNL d   1      45.984  35.191  54.424  0.00  0.00     0.002 A 
ATOM     30  C   UNL d   1      46.509  35.557  53.903  0.00  0.00     0.027 A 
BRANCH  26  31
ATOM     31  O   UNL d   1      45.125  36.576  52.572  0.00  0.00    -0.326 OA
ATOM     32  C   UNL d   1      44.315  36.709  52.490  0.00  0.00     0.181 C 
ENDBRANCH  26  31
ENDBRANCH  24  25
ENDBRANCH   1  24
TORSDOF 7
ENDMDL
MODEL 7
REMARK VINA RESULT:      -4.1      3.281      6.318
REMARK  7 active torsions:
REMARK  status: ('A' for Active; 'I' for Inactive)
REMARK    1  A    between atoms: O_8  and  C_1 
REMARK    2  A    between atoms: C_10  and  C_5 
REMARK    3  A    between atoms: C_12  and  O_8 
REMARK    4  A    between atoms: N_9  and  C_10 
REMARK    5  A    between atoms: C_25  and  N_14 
REMARK    6  A    between atoms: O_24  and  C_17 
REMARK    7  A    between atoms: C_29  and  C_25 
ROOT
ATOM      1  C   UNL d   1      45.486  36.238  54.014  0.00  0.00     0.161 A 
ATOM      2  C   UNL d   1      46.565  36.093  52.754  0.00  0.00     0.108 A 
ATOM      3  C   UNL d   1      45.759  35.891  52.647  0.00  0.00     0.064 A 
ATOM      4  C   UNL d   1      45.225  35.963  53.269  0.00  0.00     0.222 A 
ATOM      5  C   UNL d   1      47.093  36.018  52.123  0.00  0.00     0.079 A 
ATOM      6  O   UNL d   1      46.828  36.365  53.488  0.00  0.00    -0.305 OA
ATOM      7  C   UNL d   1      46.287  36.438  54.122  0.00  0.00     0.126 A 
ATOM      8  C   UNL d   1      45.502  35.617  51.902  0.00  0.00     0.009 A 
ATOM      9  C   UNL d   1      46.841  35.748  51.391  0.00  0.00     0.199 A 
ATOM     10  O   UNL d   1      44.431  35.765  53.167  0.00  0.00    -0.284 OA
ATOM     11  C   UNL d   1      46.037  35.546  51.279  0.00  0.00     0.042 A 
ATOM     12  O   UNL d   1      47.363  35.674  50.767  0.00  0.00    -0.286 OA
ATOM     13  C   UNL d   1      46.547  36.709  54.854  0.00  0.00     0.029 C 
ENDROOT
BRANCH   5  14
ATOM     14  C   UNL d   1      47.881  36.216  52.233  0.00  0.00     0.086 C 
BRANCH  14  15
ATOM     15  N   UNL d   1      48.452  35.620  52.294  0.00  0.00    -0.300 N 
ATOM     16  C   UNL d   1      48.631  35.157  51.636  0.00  0.00     0.100 A 
ATOM     17  C   UNL d   1      49.199  34.564  51.695  0.00  0.00     0.100 A 
ATOM     18  N   UNL d   1      49.588  34.434  52.413  0.00  0.00    -0.297 N 
ATOM     19  C   UNL d   1      49.406  34.900  53.070  0.00  0.00     0.100 A 
ATOM     20  C   UNL d   1      48.834  35.500  53.014  0.00  0.00     0.100 A 
BRANCH  18  21
ATOM     21  C   UNL d   1      50.156  33.841  52.473  0.00  0.00     0.126 C 
BRANCH  21  22
ATOM     22  C   UNL d   1      50.587  33.751  53.171  0.00  0.00     0.253 C 
ATOM     23  O   UNL d   1      50.965  33.031  53.333  0.00  0.00    -0.281 OA
ENDBRANCH  21  22
ENDBRANCH  18  21
ENDBRANCH  14  15
ENDBRANCH   5  14
BRANCH   1  24
ATOM     24  O   UNL d   1      44.952  36.310  54.637  0.00  0.00    -0.300 OA
BRANCH  24  25
ATOM     25  C   UNL d   1      44.781  35.658  55.100  0.00  0.00     0.122 A 
ATOM     26  C   UNL d   1      44.486  35.760  55.855  0.00  0.00     0.117 A 
ATOM     27  C   UNL d   1      44.314  35.106  56.321  0.00  0.00     0.026 A 
ATOM     28  C   UNL d   1      44.441  34.347  56.021  0.00  0.00     0.002 A 
ATOM     29  C   UNL d   1      44.736  34.245  55.266  0.00  0.00     0.002 A 
ATOM     30  C   UNL d   1      44.909  34.903  54.798  0.00  0.00     0.027 A 
BRANCH  26  31
ATOM     31  O   UNL d   1      44.364  36.521  56.144  0.00  0.00    -0.326 OA
ATOM     32  C   UNL d   1      44.314  36.653  56.957  0.00  0.00     0.181 C 
ENDBRANCH  26  31
ENDBRANCH  24  25
ENDBRANCH   1  24
TORSDOF 7
ENDMDL
