MODEL 1
REMARK VINA RESULT:     141.3      0.000      0.000
REMARK  4 active torsions:
REMARK  status: ('A' for Active; 'I' for Inactive)
REMARK    1  A    between atoms: N_11  and  C_4 
REMARK    2  A    between atoms: C_13  and  C_17 
REMARK    3  A    between atoms: C_17  and  N_16 
REMARK    4  A    between atoms: O_29  and  C_18 
ROOT
ATOM      1  N   UNL d   1      61.690  44.374  50.719  0.00  0.00    -0.195 N 
ATOM      2  C   UNL d   1      61.705  43.640  51.061  0.00  0.00     0.168 A 
ATOM      3  C   UNL d   1      62.066  43.028  50.695  0.00  0.00     0.073 A 
ATOM      4  C   UNL d   1      61.325  44.973  51.098  0.00  0.00     0.153 A 
ATOM      5  N   UNL d   1      62.396  43.889  49.644  0.00  0.00    -0.143 NA
ATOM      6  C   UNL d   1      62.411  43.154  49.985  0.00  0.00     0.185 A 
ATOM      7  N   UNL d   1      61.356  43.523  51.772  0.00  0.00    -0.227 NA
ATOM      8  C   UNL d   1      62.081  42.301  51.033  0.00  0.00     0.007 A 
ATOM      9  N   UNL d   1      62.780  42.544  49.603  0.00  0.00    -0.225 NA
ATOM     10  C   UNL d   1      60.977  44.864  51.804  0.00  0.00     0.057 A 
ATOM     11  C   UNL d   1      62.442  41.689  50.667  0.00  0.00     0.019 A 
ATOM     12  C   UNL d   1      60.993  44.129  52.145  0.00  0.00     0.086 A 
ATOM     13  C   UNL d   1      62.796  41.810  49.945  0.00  0.00     0.083 A 
ATOM     14  C   UNL d   1      61.729  42.186  51.748  0.00  0.00     0.000 C 
ATOM     15  C   UNL d   1      60.628  44.012  52.886  0.00  0.00     0.021 C 
ATOM     16  C   UNL d   1      63.156  41.206  49.575  0.00  0.00     0.021 C 
ENDROOT
BRANCH   4  17
ATOM     17  N   UNL d   1      61.314  45.728  50.740  0.00  0.00    -0.286 N 
ATOM     18  C   UNL d   1      61.440  46.016  49.981  0.00  0.00     0.101 A 
ATOM     19  C   UNL d   1      61.377  46.834  49.831  0.00  0.00     0.100 A 
ATOM     20  N   UNL d   1      61.189  47.367  50.438  0.00  0.00    -0.300 N 
ATOM     21  C   UNL d   1      61.059  47.065  51.218  0.00  0.00     0.100 A 
ATOM     22  C   UNL d   1      61.124  46.244  51.360  0.00  0.00     0.101 A 
BRANCH  20  23
ATOM     23  C   UNL d   1      61.126  48.181  50.289  0.00  0.00     0.082 C 
BRANCH  23  24
ATOM     24  C   UNL d   1      60.810  48.687  50.859  0.00  0.00     0.042 A 
ATOM     25  C   UNL d   1      60.125  49.133  50.688  0.00  0.00     0.096 A 
ATOM     26  C   UNL d   1      59.818  49.636  51.268  0.00  0.00     0.027 A 
ATOM     27  C   UNL d   1      60.179  49.704  52.011  0.00  0.00     0.032 A 
ATOM     28  C   UNL d   1      60.866  49.259  52.183  0.00  0.00     0.140 A 
ATOM     29  C   UNL d   1      61.178  48.750  51.601  0.00  0.00     0.033 A 
ATOM     30  F   UNL d   1      61.236  49.319  52.925  0.00  0.00    -0.204 F 
BRANCH  25  31
ATOM     31  O   UNL d   1      59.764  49.070  49.957  0.00  0.00    -0.328 OA
ATOM     32  C   UNL d   1      59.312  49.701  49.654  0.00  0.00     0.181 C 
ENDBRANCH  25  31
ENDBRANCH  23  24
ENDBRANCH  20  23
ENDBRANCH   4  17
TORSDOF 4
ENDMDL
MODEL 2
REMARK VINA RESULT:     142.2      1.321      2.354
REMARK  4 active torsions:
REMARK  status: ('A' for Active; 'I' for Inactive)
REMARK    1  A    between atoms: N_11  and  C_4 
REMARK    2  A    between atoms: C_13  and  C_17 
REMARK    3  A    between atoms: C_17  and  N_16 
REMARK    4  A    between atoms: O_29  and  C_18 
ROOT
ATOM      1  N   UNL d   1      61.543  45.419  50.658  0.00  0.00    -0.195 N 
ATOM      2  C   UNL d   1      61.947  44.743  50.469  0.00  0.00     0.168 A 
ATOM      3  C   UNL d   1      61.823  44.067  50.875  0.00  0.00     0.073 A 
ATOM      4  C   UNL d   1      61.679  46.084  50.242  0.00  0.00     0.153 A 
ATOM      5  N   UNL d   1      60.888  44.745  51.663  0.00  0.00    -0.143 NA
ATOM      6  C   UNL d   1      61.292  44.069  51.473  0.00  0.00     0.185 A 
ATOM      7  N   UNL d   1      62.477  44.750  49.868  0.00  0.00    -0.227 NA
ATOM      8  C   UNL d   1      62.223  43.397  50.687  0.00  0.00     0.007 A 
ATOM      9  N   UNL d   1      61.156  43.392  51.894  0.00  0.00    -0.225 NA
ATOM     10  C   UNL d   1      62.203  46.098  49.645  0.00  0.00     0.057 A 
ATOM     11  C   UNL d   1      62.098  42.721  51.095  0.00  0.00     0.019 A 
ATOM     12  C   UNL d   1      62.607  45.422  49.456  0.00  0.00     0.086 A 
ATOM     13  C   UNL d   1      61.560  42.716  51.704  0.00  0.00     0.083 A 
ATOM     14  C   UNL d   1      62.755  43.407  50.083  0.00  0.00     0.000 C 
ATOM     15  C   UNL d   1      63.158  45.433  48.829  0.00  0.00     0.021 C 
ATOM     16  C   UNL d   1      61.432  42.047  52.113  0.00  0.00     0.021 C 
ENDROOT
BRANCH   4  17
ATOM     17  N   UNL d   1      61.258  46.778  50.444  0.00  0.00    -0.286 N 
ATOM     18  C   UNL d   1      60.541  46.940  50.808  0.00  0.00     0.101 A 
ATOM     19  C   UNL d   1      60.298  47.730  50.916  0.00  0.00     0.100 A 
ATOM     20  N   UNL d   1      60.772  48.362  50.660  0.00  0.00    -0.300 N 
ATOM     21  C   UNL d   1      61.511  48.190  50.285  0.00  0.00     0.100 A 
ATOM     22  C   UNL d   1      61.746  47.395  50.181  0.00  0.00     0.101 A 
BRANCH  20  23
ATOM     23  C   UNL d   1      60.531  49.149  50.768  0.00  0.00     0.082 C 
BRANCH  23  24
ATOM     24  C   UNL d   1      59.759  49.323  50.998  0.00  0.00     0.042 A 
ATOM     25  C   UNL d   1      59.597  49.536  51.789  0.00  0.00     0.096 A 
ATOM     26  C   UNL d   1      58.817  49.708  52.007  0.00  0.00     0.027 A 
ATOM     27  C   UNL d   1      58.200  49.671  51.455  0.00  0.00     0.032 A 
ATOM     28  C   UNL d   1      58.361  49.457  50.663  0.00  0.00     0.140 A 
ATOM     29  C   UNL d   1      59.146  49.284  50.439  0.00  0.00     0.033 A 
ATOM     30  F   UNL d   1      57.750  49.417  50.101  0.00  0.00    -0.204 F 
BRANCH  25  31
ATOM     31  O   UNL d   1      60.201  49.574  52.338  0.00  0.00    -0.328 OA
ATOM     32  C   UNL d   1      60.048  49.430  53.144  0.00  0.00     0.181 C 
ENDBRANCH  25  31
ENDBRANCH  23  24
ENDBRANCH  20  23
ENDBRANCH   4  17
TORSDOF 4
ENDMDL
MODEL 3
REMARK VINA RESULT:     142.3      2.017      5.924
REMARK  4 active torsions:
REMARK  status: ('A' for Active; 'I' for Inactive)
REMARK    1  A    between atoms: N_11  and  C_4 
REMARK    2  A    between atoms: C_13  and  C_17 
REMARK    3  A    between atoms: C_17  and  N_16 
REMARK    4  A    between atoms: O_29  and  C_18 
ROOT
ATOM      1  N   UNL d   1      61.126  47.261  50.450  0.00  0.00    -0.195 N 
ATOM      2  C   UNL d   1      61.136  48.071  50.447  0.00  0.00     0.168 A 
ATOM      3  C   UNL d   1      60.684  48.485  50.959  0.00  0.00     0.073 A 
ATOM      4  C   UNL d   1      61.582  46.863  49.931  0.00  0.00     0.153 A 
ATOM      5  N   UNL d   1      60.213  47.275  51.478  0.00  0.00    -0.143 NA
ATOM      6  C   UNL d   1      60.223  48.085  51.475  0.00  0.00     0.185 A 
ATOM      7  N   UNL d   1      61.602  48.462  49.926  0.00  0.00    -0.227 NA
ATOM      8  C   UNL d   1      60.694  49.287  50.957  0.00  0.00     0.007 A 
ATOM      9  N   UNL d   1      59.760  48.491  52.000  0.00  0.00    -0.225 NA
ATOM     10  C   UNL d   1      62.047  47.246  49.413  0.00  0.00     0.057 A 
ATOM     11  C   UNL d   1      60.242  49.701  51.470  0.00  0.00     0.019 A 
ATOM     12  C   UNL d   1      62.057  48.056  49.410  0.00  0.00     0.086 A 
ATOM     13  C   UNL d   1      59.770  49.301  51.997  0.00  0.00     0.083 A 
ATOM     14  C   UNL d   1      61.163  49.678  50.433  0.00  0.00     0.000 C 
ATOM     15  C   UNL d   1      62.543  48.460  48.867  0.00  0.00     0.021 C 
ATOM     16  C   UNL d   1      59.319  49.708  52.510  0.00  0.00     0.021 C 
ENDROOT
BRANCH   4  17
ATOM     17  N   UNL d   1      61.567  46.027  49.940  0.00  0.00    -0.286 N 
ATOM     18  C   UNL d   1      60.986  45.456  50.035  0.00  0.00     0.101 A 
ATOM     19  C   UNL d   1      61.189  44.647  50.010  0.00  0.00     0.100 A 
ATOM     20  N   UNL d   1      61.974  44.408  49.889  0.00  0.00    -0.300 N 
ATOM     21  C   UNL d   1      62.570  45.001  49.791  0.00  0.00     0.100 A 
ATOM     22  C   UNL d   1      62.358  45.809  49.818  0.00  0.00     0.101 A 
BRANCH  20  23
ATOM     23  C   UNL d   1      62.178  43.603  49.863  0.00  0.00     0.082 C 
BRANCH  23  24
ATOM     24  C   UNL d   1      62.224  43.161  50.558  0.00  0.00     0.042 A 
ATOM     25  C   UNL d   1      62.713  42.485  50.591  0.00  0.00     0.096 A 
ATOM     26  C   UNL d   1      62.750  42.050  51.294  0.00  0.00     0.027 A 
ATOM     27  C   UNL d   1      62.312  42.275  51.960  0.00  0.00     0.032 A 
ATOM     28  C   UNL d   1      61.822  42.952  51.928  0.00  0.00     0.140 A 
ATOM     29  C   UNL d   1      61.782  43.393  51.221  0.00  0.00     0.033 A 
ATOM     30  F   UNL d   1      61.378  43.186  52.590  0.00  0.00    -0.204 F 
BRANCH  25  31
ATOM     31  O   UNL d   1      63.148  42.258  49.936  0.00  0.00    -0.328 OA
ATOM     32  C   UNL d   1      63.153  41.462  49.688  0.00  0.00     0.181 C 
ENDBRANCH  25  31
ENDBRANCH  23  24
ENDBRANCH  20  23
ENDBRANCH   4  17
TORSDOF 4
ENDMDL
