MODEL 1
REMARK VINA RESULT:      -7.0      0.000      0.000
REMARK  6 active torsions:
REMARK  status: ('A' for Active; 'I' for Inactive)
REMARK    1  A    between atoms: C_5  and  C_4 
REMARK    2  A    between atoms: C_6  and  C_5 
REMARK       I    between atoms: N_9  and  C_6 
REMARK    3  A    between atoms: C_10  and  N_9 
REMARK    4  A    between atoms: O_14  and  C_13 
REMARK    5  A    between atoms: C_19  and  O_14 
REMARK    6  A    between atoms: C_20  and  C_19 
ROOT
ATOM      1  C   UNL d   1     -47.408  12.419  23.131  0.00  0.00     0.281 C 
ATOM      2  N   UNL d   1     -46.662  12.557  23.408  0.00  0.00    -0.206 NA
ATOM      3  O   UNL d   1     -47.533  12.347  22.328  0.00  0.00    -0.265 OA
ENDROOT
BRANCH   1   4
ATOM      4  C   UNL d   1     -48.023  12.355  23.658  0.00  0.00     0.086 C 
BRANCH   4   5
ATOM      5  C   UNL d   1     -48.766  12.670  23.479  0.00  0.00     0.144 A 
ATOM      6  C   UNL d   1     -49.425  12.175  23.417  0.00  0.00     0.297 A 
ATOM      7  N   UNL d   1     -50.170  12.483  23.239  0.00  0.00    -0.205 NA
ATOM      8  O   UNL d   1     -49.351  11.356  23.534  0.00  0.00    -0.264 OA
ATOM      9  C   UNL d   1     -50.248  13.307  23.121  0.00  0.00     0.102 A 
ATOM     10  C   UNL d   1     -49.590  13.802  23.182  0.00  0.00     0.099 A 
ATOM     11  C   UNL d   1     -50.993  13.614  22.942  0.00  0.00     0.021 A 
ATOM     12  N   UNL d   1     -48.843  13.481  23.363  0.00  0.00    -0.239 NA
ATOM     13  C   UNL d   1     -49.666  14.613  23.067  0.00  0.00     0.021 A 
ATOM     14  C   UNL d   1     -50.406  14.924  22.888  0.00  0.00     0.002 A 
ATOM     15  C   UNL d   1     -51.064  14.428  22.827  0.00  0.00     0.002 A 
ENDBRANCH   4   5
ENDBRANCH   1   4
BRANCH   2  16
ATOM     16  C   UNL d   1     -45.880  12.649  22.895  0.00  0.00     0.107 A 
ATOM     17  C   UNL d   1     -45.218  12.144  22.900  0.00  0.00     0.118 A 
ATOM     18  C   UNL d   1     -44.598  12.345  22.397  0.00  0.00     0.026 A 
ATOM     19  C   UNL d   1     -44.630  13.038  21.894  0.00  0.00     0.002 A 
ATOM     20  C   UNL d   1     -45.280  13.496  21.918  0.00  0.00     0.002 A 
ATOM     21  C   UNL d   1     -45.910  13.315  22.411  0.00  0.00     0.021 A 
BRANCH  17  22
ATOM     22  O   UNL d   1     -45.166  11.464  23.383  0.00  0.00    -0.304 OA
BRANCH  22  23
ATOM     23  C   UNL d   1     -44.481  10.993  23.364  0.00  0.00     0.123 C 
BRANCH  23  24
ATOM     24  C   UNL d   1     -44.484  10.190  23.651  0.00  0.00     0.027 C 
ATOM     25  C   UNL d   1     -43.795   9.707  23.649  0.00  0.00     0.002 C 
ENDBRANCH  23  24
ENDBRANCH  22  23
ENDBRANCH  17  22
ENDBRANCH   2  16
TORSDOF 6
ENDMDL
MODEL 2
REMARK VINA RESULT:      -7.0      1.475      4.793
REMARK  6 active torsions:
REMARK  status: ('A' for Active; 'I' for Inactive)
REMARK    1  A    between atoms: C_5  and  C_4 
REMARK    2  A    between atoms: C_6  and  C_5 
REMARK       I    between atoms: N_9  and  C_6 
REMARK    3  A    between atoms: C_10  and  N_9 
REMARK    4  A    between atoms: O_14  and  C_13 
REMARK    5  A    between atoms: C_19  and  O_14 
REMARK    6  A    between atoms: C_20  and  C_19 
ROOT
ATOM      1  C   UNL d   1     -48.126  14.306  22.585  0.00  0.00     0.281 C 
ATOM      2  N   UNL d   1     -48.850  14.362  22.937  0.00  0.00    -0.206 NA
ATOM      3  O   UNL d   1     -48.077  14.222  21.775  0.00  0.00    -0.265 OA
ENDROOT
BRANCH   1   4
ATOM      4  C   UNL d   1     -47.456  14.333  23.044  0.00  0.00     0.086 C 
BRANCH   4   5
ATOM      5  C   UNL d   1     -46.949  13.682  23.090  0.00  0.00     0.144 A 
ATOM      6  C   UNL d   1     -46.153  13.758  22.884  0.00  0.00     0.297 A 
ATOM      7  N   UNL d   1     -45.641  13.111  22.927  0.00  0.00    -0.205 NA
ATOM      8  O   UNL d   1     -45.851  14.488  22.628  0.00  0.00    -0.264 OA
ATOM      9  C   UNL d   1     -45.943  12.375  23.183  0.00  0.00     0.102 A 
ATOM     10  C   UNL d   1     -46.739  12.298  23.390  0.00  0.00     0.099 A 
ATOM     11  C   UNL d   1     -45.431  11.729  23.226  0.00  0.00     0.021 A 
ATOM     12  N   UNL d   1     -47.247  12.957  23.343  0.00  0.00    -0.239 NA
ATOM     13  C   UNL d   1     -47.037  11.574  23.642  0.00  0.00     0.021 A 
ATOM     14  C   UNL d   1     -46.530  10.928  23.686  0.00  0.00     0.002 A 
ATOM     15  C   UNL d   1     -45.734  11.004  23.480  0.00  0.00     0.002 A 
ENDBRANCH   4   5
ENDBRANCH   1   4
BRANCH   2  16
ATOM     16  C   UNL d   1     -49.687  14.343  22.509  0.00  0.00     0.107 A 
ATOM     17  C   UNL d   1     -50.298  13.791  22.633  0.00  0.00     0.118 A 
ATOM     18  C   UNL d   1     -50.982  13.893  22.187  0.00  0.00     0.026 A 
ATOM     19  C   UNL d   1     -51.064  14.534  21.623  0.00  0.00     0.002 A 
ATOM     20  C   UNL d   1     -50.458  15.041  21.534  0.00  0.00     0.002 A 
ATOM     21  C   UNL d   1     -49.766  14.958  21.967  0.00  0.00     0.021 A 
BRANCH  17  22
ATOM     22  O   UNL d   1     -50.239  13.159  23.177  0.00  0.00    -0.304 OA
BRANCH  22  23
ATOM     23  C   UNL d   1     -50.687  12.468  23.059  0.00  0.00     0.123 C 
BRANCH  23  24
ATOM     24  C   UNL d   1     -50.744  11.867  23.662  0.00  0.00     0.027 C 
ATOM     25  C   UNL d   1     -50.217  11.212  23.698  0.00  0.00     0.002 C 
ENDBRANCH  23  24
ENDBRANCH  22  23
ENDBRANCH  17  22
ENDBRANCH   2  16
TORSDOF 6
ENDMDL
MODEL 3
REMARK VINA RESULT:      -6.9      1.239      5.281
REMARK  6 active torsions:
REMARK  status: ('A' for Active; 'I' for Inactive)
REMARK    1  A    between atoms: C_5  and  C_4 
REMARK    2  A    between atoms: C_6  and  C_5 
REMARK       I    between atoms: N_9  and  C_6 
REMARK    3  A    between atoms: C_10  and  N_9 
REMARK    4  A    between atoms: O_14  and  C_13 
REMARK    5  A    between atoms: C_19  and  O_14 
REMARK    6  A    between atoms: C_20  and  C_19 
ROOT
ATOM      1  C   UNL d   1     -47.240  13.129  22.396  0.00  0.00     0.281 C 
ATOM      2  N   UNL d   1     -47.924  13.188  22.822  0.00  0.00    -0.206 NA
ATOM      3  O   UNL d   1     -47.269  12.884  21.619  0.00  0.00    -0.265 OA
ENDROOT
BRANCH   1   4
ATOM      4  C   UNL d   1     -46.533  13.315  22.751  0.00  0.00     0.086 C 
BRANCH   4   5
ATOM      5  C   UNL d   1     -45.939  12.746  22.831  0.00  0.00     0.144 A 
ATOM      6  C   UNL d   1     -45.175  12.900  22.560  0.00  0.00     0.297 A 
ATOM      7  N   UNL d   1     -44.576  12.335  22.637  0.00  0.00    -0.205 NA
ATOM      8  O   UNL d   1     -44.991  13.627  22.204  0.00  0.00    -0.264 OA
ATOM      9  C   UNL d   1     -44.758  11.602  22.995  0.00  0.00     0.102 A 
ATOM     10  C   UNL d   1     -45.523  11.447  23.266  0.00  0.00     0.099 A 
ATOM     11  C   UNL d   1     -44.160  11.038  23.072  0.00  0.00     0.021 A 
ATOM     12  N   UNL d   1     -46.119  12.024  23.184  0.00  0.00    -0.239 NA
ATOM     13  C   UNL d   1     -45.703  10.726  23.619  0.00  0.00     0.021 A 
ATOM     14  C   UNL d   1     -45.110  10.161  23.698  0.00  0.00     0.002 A 
ATOM     15  C   UNL d   1     -44.346  10.316  23.426  0.00  0.00     0.002 A 
ENDBRANCH   4   5
ENDBRANCH   1   4
BRANCH   2  16
ATOM     16  C   UNL d   1     -48.794  13.001  22.519  0.00  0.00     0.107 A 
ATOM     17  C   UNL d   1     -49.456  13.503  22.560  0.00  0.00     0.118 A 
ATOM     18  C   UNL d   1     -50.161  13.209  22.254  0.00  0.00     0.026 A 
ATOM     19  C   UNL d   1     -50.214  12.426  21.910  0.00  0.00     0.002 A 
ATOM     20  C   UNL d   1     -49.559  11.975  21.889  0.00  0.00     0.002 A 
ATOM     21  C   UNL d   1     -48.845  12.248  22.188  0.00  0.00     0.021 A 
BRANCH  17  22
ATOM     22  O   UNL d   1     -49.426  14.271  22.891  0.00  0.00    -0.304 OA
BRANCH  22  23
ATOM     23  C   UNL d   1     -50.132  14.692  23.023  0.00  0.00     0.123 C 
BRANCH  23  24
ATOM     24  C   UNL d   1     -50.135  15.431  23.450  0.00  0.00     0.027 C 
ATOM     25  C   UNL d   1     -50.846  15.805  23.698  0.00  0.00     0.002 C 
ENDBRANCH  23  24
ENDBRANCH  22  23
ENDBRANCH  17  22
ENDBRANCH   2  16
TORSDOF 6
ENDMDL
MODEL 4
REMARK VINA RESULT:      -6.5      1.473      2.245
REMARK  6 active torsions:
REMARK  status: ('A' for Active; 'I' for Inactive)
REMARK    1  A    between atoms: C_5  and  C_4 
REMARK    2  A    between atoms: C_6  and  C_5 
REMARK       I    between atoms: N_9  and  C_6 
REMARK    3  A    between atoms: C_10  and  N_9 
REMARK    4  A    between atoms: O_14  and  C_13 
REMARK    5  A    between atoms: C_19  and  O_14 
REMARK    6  A    between atoms: C_20  and  C_19 
ROOT
ATOM      1  C   UNL d   1     -47.114  13.623  22.928  0.00  0.00     0.281 C 
ATOM      2  N   UNL d   1     -46.566  13.192  22.520  0.00  0.00    -0.206 NA
ATOM      3  O   UNL d   1     -47.293  13.421  23.698  0.00  0.00    -0.265 OA
ENDROOT
BRANCH   1   4
ATOM      4  C   UNL d   1     -47.477  14.251  22.564  0.00  0.00     0.086 C 
BRANCH   4   5
ATOM      5  C   UNL d   1     -48.291  14.240  22.417  0.00  0.00     0.144 A 
ATOM      6  C   UNL d   1     -48.757  14.894  22.609  0.00  0.00     0.297 A 
ATOM      7  N   UNL d   1     -49.571  14.890  22.466  0.00  0.00    -0.205 NA
ATOM      8  O   UNL d   1     -48.418  15.570  22.951  0.00  0.00    -0.264 OA
ATOM      9  C   UNL d   1     -49.916  14.211  22.122  0.00  0.00     0.102 A 
ATOM     10  C   UNL d   1     -49.449  13.557  21.930  0.00  0.00     0.099 A 
ATOM     11  C   UNL d   1     -50.729  14.207  21.978  0.00  0.00     0.021 A 
ATOM     12  N   UNL d   1     -48.630  13.571  22.078  0.00  0.00    -0.239 NA
ATOM     13  C   UNL d   1     -49.788  12.888  21.591  0.00  0.00     0.021 A 
ATOM     14  C   UNL d   1     -50.598  12.879  21.446  0.00  0.00     0.002 A 
ATOM     15  C   UNL d   1     -51.064  13.533  21.638  0.00  0.00     0.002 A 
ENDBRANCH   4   5
ENDBRANCH   1   4
BRANCH   2  16
ATOM     16  C   UNL d   1     -46.085  12.449  22.837  0.00  0.00     0.107 A 
ATOM     17  C   UNL d   1     -45.289  12.265  22.678  0.00  0.00     0.118 A 
ATOM     18  C   UNL d   1     -44.993  11.578  23.023  0.00  0.00     0.026 A 
ATOM     19  C   UNL d   1     -45.478  11.077  23.521  0.00  0.00     0.002 A 
ATOM     20  C   UNL d   1     -46.234  11.287  23.650  0.00  0.00     0.002 A 
ATOM     21  C   UNL d   1     -46.550  11.967  23.316  0.00  0.00     0.021 A 
BRANCH  17  22
ATOM     22  O   UNL d   1     -44.799  12.740  22.194  0.00  0.00    -0.304 OA
BRANCH  22  23
ATOM     23  C   UNL d   1     -44.017  12.501  22.036  0.00  0.00     0.123 C 
BRANCH  23  24
ATOM     24  C   UNL d   1     -43.572  12.838  21.391  0.00  0.00     0.027 C 
ATOM     25  C   UNL d   1     -42.731  12.818  21.365  0.00  0.00     0.002 C 
ENDBRANCH  23  24
ENDBRANCH  22  23
ENDBRANCH  17  22
ENDBRANCH   2  16
TORSDOF 6
ENDMDL
MODEL 5
REMARK VINA RESULT:      -6.1      1.197      4.912
REMARK  6 active torsions:
REMARK  status: ('A' for Active; 'I' for Inactive)
REMARK    1  A    between atoms: C_5  and  C_4 
REMARK    2  A    between atoms: C_6  and  C_5 
REMARK       I    between atoms: N_9  and  C_6 
REMARK    3  A    between atoms: C_10  and  N_9 
REMARK    4  A    between atoms: O_14  and  C_13 
REMARK    5  A    between atoms: C_19  and  O_14 
REMARK    6  A    between atoms: C_20  and  C_19 
ROOT
ATOM      1  C   UNL d   1     -47.344  11.884  23.233  0.00  0.00     0.281 C 
ATOM      2  N   UNL d   1     -47.940  12.342  23.527  0.00  0.00    -0.206 NA
ATOM      3  O   UNL d   1     -47.462  11.460  22.546  0.00  0.00    -0.265 OA
ENDROOT
BRANCH   1   4
ATOM      4  C   UNL d   1     -46.633  11.853  23.627  0.00  0.00     0.086 C 
BRANCH   4   5
ATOM      5  C   UNL d   1     -45.921  11.947  23.218  0.00  0.00     0.144 A 
ATOM      6  C   UNL d   1     -45.340  11.361  23.252  0.00  0.00     0.297 A 
ATOM      7  N   UNL d   1     -44.626  11.448  22.846  0.00  0.00    -0.205 NA
ATOM      8  O   UNL d   1     -45.463  10.670  23.696  0.00  0.00    -0.264 OA
ATOM      9  C   UNL d   1     -44.499  12.143  22.398  0.00  0.00     0.102 A 
ATOM     10  C   UNL d   1     -45.080  12.729  22.364  0.00  0.00     0.099 A 
ATOM     11  C   UNL d   1     -43.786  12.230  21.993  0.00  0.00     0.021 A 
ATOM     12  N   UNL d   1     -45.797  12.632  22.777  0.00  0.00    -0.239 NA
ATOM     13  C   UNL d   1     -44.956  13.413  21.924  0.00  0.00     0.021 A 
ATOM     14  C   UNL d   1     -44.247  13.504  21.518  0.00  0.00     0.002 A 
ATOM     15  C   UNL d   1     -43.666  12.918  21.552  0.00  0.00     0.002 A 
ENDBRANCH   4   5
ENDBRANCH   1   4
BRANCH   2  16
ATOM     16  C   UNL d   1     -48.798  12.453  23.159  0.00  0.00     0.107 A 
ATOM     17  C   UNL d   1     -49.168  13.173  22.965  0.00  0.00     0.118 A 
ATOM     18  C   UNL d   1     -49.926  13.123  22.648  0.00  0.00     0.026 A 
ATOM     19  C   UNL d   1     -50.317  12.371  22.524  0.00  0.00     0.002 A 
ATOM     20  C   UNL d   1     -49.930  11.704  22.722  0.00  0.00     0.002 A 
ATOM     21  C   UNL d   1     -49.174  11.730  23.040  0.00  0.00     0.021 A 
BRANCH  17  22
ATOM     22  O   UNL d   1     -48.805  13.917  23.078  0.00  0.00    -0.304 OA
BRANCH  22  23
ATOM     23  C   UNL d   1     -48.997  14.553  22.576  0.00  0.00     0.123 C 
BRANCH  23  24
ATOM     24  C   UNL d   1     -48.619  15.313  22.656  0.00  0.00     0.027 C 
ATOM     25  C   UNL d   1     -47.935  15.525  22.215  0.00  0.00     0.002 C 
ENDBRANCH  23  24
ENDBRANCH  22  23
ENDBRANCH  17  22
ENDBRANCH   2  16
TORSDOF 6
ENDMDL
MODEL 6
REMARK VINA RESULT:      -6.1      1.395      5.096
REMARK  6 active torsions:
REMARK  status: ('A' for Active; 'I' for Inactive)
REMARK    1  A    between atoms: C_5  and  C_4 
REMARK    2  A    between atoms: C_6  and  C_5 
REMARK       I    between atoms: N_9  and  C_6 
REMARK    3  A    between atoms: C_10  and  N_9 
REMARK    4  A    between atoms: O_14  and  C_13 
REMARK    5  A    between atoms: C_19  and  O_14 
REMARK    6  A    between atoms: C_20  and  C_19 
ROOT
ATOM      1  C   UNL d   1     -46.544  12.840  23.136  0.00  0.00     0.281 C 
ATOM      2  N   UNL d   1     -47.260  12.934  22.775  0.00  0.00    -0.206 NA
ATOM      3  O   UNL d   1     -46.220  13.459  23.557  0.00  0.00    -0.265 OA
ENDROOT
BRANCH   1   4
ATOM      4  C   UNL d   1     -46.158  12.128  23.074  0.00  0.00     0.086 C 
BRANCH   4   5
ATOM      5  C   UNL d   1     -45.373  12.095  22.815  0.00  0.00     0.144 A 
ATOM      6  C   UNL d   1     -44.855  11.530  23.123  0.00  0.00     0.297 A 
ATOM      7  N   UNL d   1     -44.070  11.492  22.867  0.00  0.00    -0.205 NA
ATOM      8  O   UNL d   1     -45.113  10.988  23.696  0.00  0.00    -0.264 OA
ATOM      9  C   UNL d   1     -43.808  12.037  22.290  0.00  0.00     0.102 A 
ATOM     10  C   UNL d   1     -44.325  12.602  21.982  0.00  0.00     0.099 A 
ATOM     11  C   UNL d   1     -43.023  11.998  22.036  0.00  0.00     0.021 A 
ATOM     12  N   UNL d   1     -45.115  12.632  22.246  0.00  0.00    -0.239 NA
ATOM     13  C   UNL d   1     -44.068  13.138  21.414  0.00  0.00     0.021 A 
ATOM     14  C   UNL d   1     -43.287  13.104  21.157  0.00  0.00     0.002 A 
ATOM     15  C   UNL d   1     -42.769  12.539  21.465  0.00  0.00     0.002 A 
ENDBRANCH   4   5
ENDBRANCH   1   4
BRANCH   2  16
ATOM     16  C   UNL d   1     -47.795  13.707  22.778  0.00  0.00     0.107 A 
ATOM     17  C   UNL d   1     -48.582  13.768  23.042  0.00  0.00     0.118 A 
ATOM     18  C   UNL d   1     -48.932  14.511  22.987  0.00  0.00     0.026 A 
ATOM     19  C   UNL d   1     -48.510  15.189  22.675  0.00  0.00     0.002 A 
ATOM     20  C   UNL d   1     -47.758  15.090  22.433  0.00  0.00     0.002 A 
ATOM     21  C   UNL d   1     -47.389  14.359  22.478  0.00  0.00     0.021 A 
BRANCH  17  22
ATOM     22  O   UNL d   1     -49.012  13.121  23.349  0.00  0.00    -0.304 OA
BRANCH  22  23
ATOM     23  C   UNL d   1     -49.842  13.110  23.292  0.00  0.00     0.123 C 
BRANCH  23  24
ATOM     24  C   UNL d   1     -50.284  12.385  23.373  0.00  0.00     0.027 C 
ATOM     25  C   UNL d   1     -51.062  12.364  23.693  0.00  0.00     0.002 C 
ENDBRANCH  23  24
ENDBRANCH  22  23
ENDBRANCH  17  22
ENDBRANCH   2  16
TORSDOF 6
ENDMDL
MODEL 7
REMARK VINA RESULT:      -6.0      1.168      2.200
REMARK  6 active torsions:
REMARK  status: ('A' for Active; 'I' for Inactive)
REMARK    1  A    between atoms: C_5  and  C_4 
REMARK    2  A    between atoms: C_6  and  C_5 
REMARK       I    between atoms: N_9  and  C_6 
REMARK    3  A    between atoms: C_10  and  N_9 
REMARK    4  A    between atoms: O_14  and  C_13 
REMARK    5  A    between atoms: C_19  and  O_14 
REMARK    6  A    between atoms: C_20  and  C_19 
ROOT
ATOM      1  C   UNL d   1     -48.564  11.693  23.187  0.00  0.00     0.281 C 
ATOM      2  N   UNL d   1     -47.956  11.843  23.698  0.00  0.00    -0.206 NA
ATOM      3  O   UNL d   1     -48.402  11.396  22.445  0.00  0.00    -0.265 OA
ENDROOT
BRANCH   1   4
ATOM      4  C   UNL d   1     -49.327  11.841  23.422  0.00  0.00     0.086 C 
BRANCH   4   5
ATOM      5  C   UNL d   1     -49.758  12.461  23.086  0.00  0.00     0.144 A 
ATOM      6  C   UNL d   1     -50.332  12.307  22.512  0.00  0.00     0.297 A 
ATOM      7  N   UNL d   1     -50.767  12.922  22.172  0.00  0.00    -0.205 NA
ATOM      8  O   UNL d   1     -50.485  11.530  22.264  0.00  0.00    -0.264 OA
ATOM      9  C   UNL d   1     -50.616  13.707  22.419  0.00  0.00     0.102 A 
ATOM     10  C   UNL d   1     -50.042  13.861  22.993  0.00  0.00     0.099 A 
ATOM     11  C   UNL d   1     -51.050  14.321  22.079  0.00  0.00     0.021 A 
ATOM     12  N   UNL d   1     -49.609  13.234  23.329  0.00  0.00    -0.239 NA
ATOM     13  C   UNL d   1     -49.892  14.632  23.236  0.00  0.00     0.021 A 
ATOM     14  C   UNL d   1     -50.323  15.248  22.900  0.00  0.00     0.002 A 
ATOM     15  C   UNL d   1     -50.897  15.093  22.327  0.00  0.00     0.002 A 
ENDBRANCH   4   5
ENDBRANCH   1   4
BRANCH   2  16
ATOM     16  C   UNL d   1     -47.039  11.711  23.536  0.00  0.00     0.107 A 
ATOM     17  C   UNL d   1     -46.493  12.280  23.272  0.00  0.00     0.118 A 
ATOM     18  C   UNL d   1     -45.716  12.026  23.172  0.00  0.00     0.026 A 
ATOM     19  C   UNL d   1     -45.480  11.218  23.332  0.00  0.00     0.002 A 
ATOM     20  C   UNL d   1     -46.032  10.703  23.583  0.00  0.00     0.002 A 
ATOM     21  C   UNL d   1     -46.812  10.934  23.690  0.00  0.00     0.021 A 
BRANCH  17  22
ATOM     22  O   UNL d   1     -46.702  13.074  23.111  0.00  0.00    -0.304 OA
BRANCH  22  23
ATOM     23  C   UNL d   1     -46.112  13.624  22.908  0.00  0.00     0.123 C 
BRANCH  23  24
ATOM     24  C   UNL d   1     -46.291  14.453  22.814  0.00  0.00     0.027 C 
ATOM     25  C   UNL d   1     -45.755  14.992  22.453  0.00  0.00     0.002 C 
ENDBRANCH  23  24
ENDBRANCH  22  23
ENDBRANCH  17  22
ENDBRANCH   2  16
TORSDOF 6
ENDMDL
MODEL 8
REMARK VINA RESULT:      -5.1      1.396      4.883
REMARK  6 active torsions:
REMARK  status: ('A' for Active; 'I' for Inactive)
REMARK    1  A    between atoms: C_5  and  C_4 
REMARK    2  A    between atoms: C_6  and  C_5 
REMARK       I    between atoms: N_9  and  C_6 
REMARK    3  A    between atoms: C_10  and  N_9 
REMARK    4  A    between atoms: O_14  and  C_13 
REMARK    5  A    between atoms: C_19  and  O_14 
REMARK    6  A    between atoms: C_20  and  C_19 
ROOT
ATOM      1  C   UNL d   1     -47.422  13.810  22.841  0.00  0.00     0.281 C 
ATOM      2  N   UNL d   1     -48.129  14.017  23.173  0.00  0.00    -0.206 NA
ATOM      3  O   UNL d   1     -47.353  13.777  22.029  0.00  0.00    -0.265 OA
ENDROOT
BRANCH   1   4
ATOM      4  C   UNL d   1     -46.791  13.638  23.322  0.00  0.00     0.086 C 
BRANCH   4   5
ATOM      5  C   UNL d   1     -46.136  13.227  23.028  0.00  0.00     0.144 A 
ATOM      6  C   UNL d   1     -46.027  12.430  23.214  0.00  0.00     0.297 A 
ATOM      7  N   UNL d   1     -45.375  12.014  22.924  0.00  0.00    -0.205 NA
ATOM      8  O   UNL d   1     -46.570  12.030  23.698  0.00  0.00    -0.264 OA
ATOM      9  C   UNL d   1     -44.826  12.414  22.437  0.00  0.00     0.102 A 
ATOM     10  C   UNL d   1     -44.935  13.211  22.251  0.00  0.00     0.099 A 
ATOM     11  C   UNL d   1     -44.174  11.997  22.147  0.00  0.00     0.021 A 
ATOM     12  N   UNL d   1     -45.596  13.622  22.548  0.00  0.00    -0.239 NA
ATOM     13  C   UNL d   1     -44.395  13.605  21.771  0.00  0.00     0.021 A 
ATOM     14  C   UNL d   1     -43.745  13.195  21.480  0.00  0.00     0.002 A 
ATOM     15  C   UNL d   1     -43.635  12.397  21.666  0.00  0.00     0.002 A 
ENDBRANCH   4   5
ENDBRANCH   1   4
BRANCH   2  16
ATOM     16  C   UNL d   1     -48.922  14.236  22.718  0.00  0.00     0.107 A 
ATOM     17  C   UNL d   1     -49.602  13.762  22.646  0.00  0.00     0.118 A 
ATOM     18  C   UNL d   1     -50.229  14.081  22.217  0.00  0.00     0.026 A 
ATOM     19  C   UNL d   1     -50.185  14.859  21.862  0.00  0.00     0.002 A 
ATOM     20  C   UNL d   1     -49.517  15.282  21.953  0.00  0.00     0.002 A 
ATOM     21  C   UNL d   1     -48.880  14.985  22.376  0.00  0.00     0.021 A 
BRANCH  17  22
ATOM     22  O   UNL d   1     -49.666  13.000  22.985  0.00  0.00    -0.304 OA
BRANCH  22  23
ATOM     23  C   UNL d   1     -50.417  12.676  23.136  0.00  0.00     0.123 C 
BRANCH  23  24
ATOM     24  C   UNL d   1     -50.543  11.832  23.149  0.00  0.00     0.027 C 
ATOM     25  C   UNL d   1     -50.131  11.323  23.677  0.00  0.00     0.002 C 
ENDBRANCH  23  24
ENDBRANCH  22  23
ENDBRANCH  17  22
ENDBRANCH   2  16
TORSDOF 6
ENDMDL
