MODEL 1
REMARK VINA RESULT:      18.0      0.000      0.000
REMARK  3 active torsions:
REMARK  status: ('A' for Active; 'I' for Inactive)
REMARK    1  A    between atoms: N_2  and  S_1 
REMARK    2  A    between atoms: C_5  and  S_1 
REMARK    3  A    between atoms: C_3  and  N_4 
ROOT
ATOM      1  N   UNL d   1      46.003 -16.193  44.179  0.00  0.00    -0.226 N 
ATOM      2  N   UNL d   1      45.807 -14.559  44.253  0.00  0.00    -0.134 N 
ATOM      3  C   UNL d   1      45.518 -15.863  44.758  0.00  0.00     0.111 A 
ATOM      4  C   UNL d   1      46.391 -15.705  43.638  0.00  0.00     0.111 A 
ATOM      5  C   UNL d   1      46.292 -14.888  43.675  0.00  0.00     0.118 A 
ATOM      6  C   UNL d   1      45.420 -15.047  44.794  0.00  0.00     0.118 A 
ENDROOT
BRANCH   1   7
ATOM      7  S   UNL d   1      46.098 -17.020  44.149  0.00  0.00     0.271 S 
ATOM      8  O   UNL d   1      45.905 -17.070  44.955  0.00  0.00    -0.200 OA
ATOM      9  O   UNL d   1      46.290 -16.962  43.339  0.00  0.00    -0.200 OA
BRANCH   7  10
ATOM     10  C   UNL d   1      46.193 -17.846  44.110  0.00  0.00     0.104 A 
ATOM     11  C   UNL d   1      46.255 -18.209  43.358  0.00  0.00     0.015 A 
ATOM     12  C   UNL d   1      46.352 -19.038  43.312  0.00  0.00     0.030 A 
ATOM     13  C   UNL d   1      46.385 -19.491  44.012  0.00  0.00     0.140 A 
ATOM     14  C   UNL d   1      46.323 -19.122  44.761  0.00  0.00     0.030 A 
ATOM     15  F   UNL d   1      46.481 -20.312  43.967  0.00  0.00    -0.204 F 
ATOM     16  C   UNL d   1      46.226 -18.292  44.797  0.00  0.00     0.015 A 
ENDBRANCH   7  10
ENDBRANCH   1   7
BRANCH   2  17
ATOM     17  C   UNL d   1      45.714 -13.753  44.284  0.00  0.00     0.735 A 
ATOM     18  N   UNL d   1      45.300 -13.356  43.691  0.00  0.00    -0.059 NA
ATOM     19  C   UNL d   1      45.207 -12.542  43.727  0.00  0.00     0.120 A 
ATOM     20  C   UNL d   1      45.530 -12.122  44.357  0.00  0.00     0.043 A 
ATOM     21  C   UNL d   1      45.944 -12.519  44.950  0.00  0.00     0.120 A 
ATOM     22  N   UNL d   1      46.032 -13.328  44.909  0.00  0.00    -0.059 NA
ENDBRANCH   2  17
TORSDOF 3
ENDMDL
