MODEL 1
REMARK VINA RESULT:      -7.6      0.000      0.000
REMARK  5 active torsions:
REMARK  status: ('A' for Active; 'I' for Inactive)
REMARK    1  A    between atoms: N_9  and  C_1 
REMARK    2  A    between atoms: C_12  and  C_2 
REMARK       I    between atoms: C_13  and  N_9 
REMARK    3  A    between atoms: C_11  and  C_14 
REMARK    4  A    between atoms: O_19  and  C_12 
REMARK    5  A    between atoms: C_14  and  C_13 
ROOT
ATOM      1  C   UNL d   1     -49.156  13.443  22.757  0.00  0.00     0.119 A 
ATOM      2  C   UNL d   1     -49.620  14.120  22.576  0.00  0.00     0.087 A 
ATOM      3  S   UNL d   1     -49.480  12.778  22.390  0.00  0.00    -0.068 SA
ATOM      4  C   UNL d   1     -50.226  13.861  22.098  0.00  0.00     0.013 A 
ATOM      5  C   UNL d   1     -50.150  13.035  21.976  0.00  0.00     0.031 A 
ATOM      6  C   UNL d   1     -50.807  14.351  21.795  0.00  0.00     0.001 C 
ATOM      7  C   UNL d   1     -50.650  12.558  21.525  0.00  0.00     0.007 C 
ENDROOT
BRANCH   1   8
ATOM      8  N   UNL d   1     -48.470  13.364  23.220  0.00  0.00    -0.201 NA
ATOM      9  C   UNL d   1     -47.811  12.971  22.921  0.00  0.00     0.280 C 
ATOM     10  O   UNL d   1     -47.820  12.644  22.146  0.00  0.00    -0.265 OA
BRANCH   9  11
ATOM     11  C   UNL d   1     -47.113  12.890  23.392  0.00  0.00     0.074 C 
BRANCH  11  12
ATOM     12  C   UNL d   1     -46.365  12.776  23.040  0.00  0.00     0.095 A 
ATOM     13  C   UNL d   1     -45.869  12.158  23.180  0.00  0.00     0.287 A 
ATOM     14  N   UNL d   1     -45.192  12.265  22.717  0.00  0.00    -0.181 NA
ATOM     15  O   UNL d   1     -46.000  11.517  23.698  0.00  0.00    -0.265 OA
ATOM     16  C   UNL d   1     -45.301  12.971  22.294  0.00  0.00     0.217 A 
ATOM     17  S   UNL d   1     -46.039  13.285  22.502  0.00  0.00    -0.042 SA
ATOM     18  N   UNL d   1     -44.749  13.297  21.751  0.00  0.00    -0.119 N 
ENDBRANCH  11  12
ENDBRANCH   9  11
ENDBRANCH   1   8
BRANCH   2  19
ATOM     19  C   UNL d   1     -49.510  14.885  22.815  0.00  0.00     0.298 C 
ATOM     20  O   UNL d   1     -49.142  15.404  22.315  0.00  0.00    -0.259 OA
BRANCH  19  21
ATOM     21  O   UNL d   1     -49.767  15.121  23.549  0.00  0.00    -0.296 OA
ATOM     22  C   UNL d   1     -49.924  15.906  23.698  0.00  0.00     0.185 C 
ENDBRANCH  19  21
ENDBRANCH   2  19
TORSDOF 5
ENDMDL
MODEL 2
REMARK VINA RESULT:      -7.4      1.116      1.738
REMARK  5 active torsions:
REMARK  status: ('A' for Active; 'I' for Inactive)
REMARK    1  A    between atoms: N_9  and  C_1 
REMARK    2  A    between atoms: C_12  and  C_2 
REMARK       I    between atoms: C_13  and  N_9 
REMARK    3  A    between atoms: C_11  and  C_14 
REMARK    4  A    between atoms: O_19  and  C_12 
REMARK    5  A    between atoms: C_14  and  C_13 
ROOT
ATOM      1  C   UNL d   1     -48.836  13.777  22.939  0.00  0.00     0.119 A 
ATOM      2  C   UNL d   1     -49.547  13.423  22.663  0.00  0.00     0.087 A 
ATOM      3  S   UNL d   1     -48.859  14.590  22.801  0.00  0.00    -0.068 SA
ATOM      4  C   UNL d   1     -50.000  14.026  22.358  0.00  0.00     0.013 A 
ATOM      5  C   UNL d   1     -49.586  14.752  22.437  0.00  0.00     0.031 A 
ATOM      6  C   UNL d   1     -50.741  13.918  22.029  0.00  0.00     0.001 C 
ATOM      7  C   UNL d   1     -49.850  15.495  22.197  0.00  0.00     0.007 C 
ENDROOT
BRANCH   1   8
ATOM      8  N   UNL d   1     -48.169  13.441  23.303  0.00  0.00    -0.201 NA
ATOM      9  C   UNL d   1     -47.417  13.736  23.144  0.00  0.00     0.280 C 
ATOM     10  O   UNL d   1     -47.311  14.379  22.614  0.00  0.00    -0.265 OA
BRANCH   9  11
ATOM     11  C   UNL d   1     -46.738  13.393  23.514  0.00  0.00     0.074 C 
BRANCH  11  12
ATOM     12  C   UNL d   1     -46.110  13.080  23.062  0.00  0.00     0.095 A 
ATOM     13  C   UNL d   1     -45.788  12.348  23.147  0.00  0.00     0.287 A 
ATOM     14  N   UNL d   1     -45.184  12.268  22.589  0.00  0.00    -0.181 NA
ATOM     15  O   UNL d   1     -46.013  11.762  23.698  0.00  0.00    -0.265 OA
ATOM     16  C   UNL d   1     -45.156  12.982  22.164  0.00  0.00     0.217 A 
ATOM     17  S   UNL d   1     -45.740  13.485  22.467  0.00  0.00    -0.042 SA
ATOM     18  N   UNL d   1     -44.621  13.148  21.538  0.00  0.00    -0.119 N 
ENDBRANCH  11  12
ENDBRANCH   9  11
ENDBRANCH   1   8
BRANCH   2  19
ATOM     19  C   UNL d   1     -49.763  12.644  22.685  0.00  0.00     0.298 C 
ATOM     20  O   UNL d   1     -49.627  12.180  22.037  0.00  0.00    -0.259 OA
BRANCH  19  21
ATOM     21  O   UNL d   1     -50.112  12.339  23.353  0.00  0.00    -0.296 OA
ATOM     22  C   UNL d   1     -50.255  11.539  23.414  0.00  0.00     0.185 C 
ENDBRANCH  19  21
ENDBRANCH   2  19
TORSDOF 5
ENDMDL
MODEL 3
REMARK VINA RESULT:      -6.8      1.633      4.116
REMARK  5 active torsions:
REMARK  status: ('A' for Active; 'I' for Inactive)
REMARK    1  A    between atoms: N_9  and  C_1 
REMARK    2  A    between atoms: C_12  and  C_2 
REMARK       I    between atoms: C_13  and  N_9 
REMARK    3  A    between atoms: C_11  and  C_14 
REMARK    4  A    between atoms: O_19  and  C_12 
REMARK    5  A    between atoms: C_14  and  C_13 
ROOT
ATOM      1  C   UNL d   1     -47.058  12.221  23.431  0.00  0.00     0.119 A 
ATOM      2  C   UNL d   1     -46.371  12.529  23.058  0.00  0.00     0.087 A 
ATOM      3  S   UNL d   1     -46.910  11.454  23.697  0.00  0.00    -0.068 SA
ATOM      4  C   UNL d   1     -45.806  11.944  23.099  0.00  0.00     0.013 A 
ATOM      5  C   UNL d   1     -46.127  11.275  23.492  0.00  0.00     0.031 A 
ATOM      6  C   UNL d   1     -45.049  12.019  22.798  0.00  0.00     0.001 C 
ATOM      7  C   UNL d   1     -45.737  10.565  23.648  0.00  0.00     0.007 C 
ENDROOT
BRANCH   1   8
ATOM      8  N   UNL d   1     -47.806  12.562  23.556  0.00  0.00    -0.201 NA
ATOM      9  C   UNL d   1     -48.487  12.107  23.477  0.00  0.00     0.280 C 
ATOM     10  O   UNL d   1     -48.440  11.294  23.270  0.00  0.00    -0.265 OA
BRANCH   9  11
ATOM     11  C   UNL d   1     -49.249  12.454  23.604  0.00  0.00     0.074 C 
BRANCH  11  12
ATOM     12  C   UNL d   1     -49.680  12.793  22.976  0.00  0.00     0.095 A 
ATOM     13  C   UNL d   1     -49.984  13.538  22.962  0.00  0.00     0.287 A 
ATOM     14  N   UNL d   1     -50.368  13.644  22.237  0.00  0.00    -0.181 NA
ATOM     15  O   UNL d   1     -49.931  14.113  23.565  0.00  0.00    -0.265 OA
ATOM     16  C   UNL d   1     -50.281  12.933  21.815  0.00  0.00     0.217 A 
ATOM     17  S   UNL d   1     -49.849  12.405  22.286  0.00  0.00    -0.042 SA
ATOM     18  N   UNL d   1     -50.585  12.790  21.046  0.00  0.00    -0.119 N 
ENDBRANCH  11  12
ENDBRANCH   9  11
ENDBRANCH   1   8
BRANCH   2  19
ATOM     19  C   UNL d   1     -46.265  13.255  22.718  0.00  0.00     0.298 C 
ATOM     20  O   UNL d   1     -46.098  13.299  21.927  0.00  0.00    -0.259 OA
BRANCH  19  21
ATOM     21  O   UNL d   1     -46.328  13.927  23.171  0.00  0.00    -0.296 OA
ATOM     22  C   UNL d   1     -46.043  14.638  22.894  0.00  0.00     0.185 C 
ENDBRANCH  19  21
ENDBRANCH   2  19
TORSDOF 5
ENDMDL
MODEL 4
REMARK VINA RESULT:      -6.3      1.287      1.629
REMARK  5 active torsions:
REMARK  status: ('A' for Active; 'I' for Inactive)
REMARK    1  A    between atoms: N_9  and  C_1 
REMARK    2  A    between atoms: C_12  and  C_2 
REMARK       I    between atoms: C_13  and  N_9 
REMARK    3  A    between atoms: C_11  and  C_14 
REMARK    4  A    between atoms: O_19  and  C_12 
REMARK    5  A    between atoms: C_14  and  C_13 
ROOT
ATOM      1  C   UNL d   1     -48.884  12.966  23.508  0.00  0.00     0.119 A 
ATOM      2  C   UNL d   1     -49.554  13.434  23.307  0.00  0.00     0.087 A 
ATOM      3  S   UNL d   1     -49.126  12.194  23.674  0.00  0.00    -0.068 SA
ATOM      4  C   UNL d   1     -50.199  12.941  23.352  0.00  0.00     0.013 A 
ATOM      5  C   UNL d   1     -49.948  12.173  23.578  0.00  0.00     0.031 A 
ATOM      6  C   UNL d   1     -50.966  13.181  23.197  0.00  0.00     0.001 C 
ATOM      7  C   UNL d   1     -50.430  11.513  23.687  0.00  0.00     0.007 C 
ENDROOT
BRANCH   1   8
ATOM      8  N   UNL d   1     -48.079  13.164  23.557  0.00  0.00    -0.201 NA
ATOM      9  C   UNL d   1     -47.502  12.596  23.408  0.00  0.00     0.280 C 
ATOM     10  O   UNL d   1     -47.716  11.809  23.204  0.00  0.00    -0.265 OA
BRANCH   9  11
ATOM     11  C   UNL d   1     -46.682  12.798  23.457  0.00  0.00     0.074 C 
BRANCH  11  12
ATOM     12  C   UNL d   1     -46.088  12.217  23.382  0.00  0.00     0.095 A 
ATOM     13  C   UNL d   1     -45.386  12.309  22.999  0.00  0.00     0.287 A 
ATOM     14  N   UNL d   1     -44.968  11.598  23.059  0.00  0.00    -0.181 NA
ATOM     15  O   UNL d   1     -45.115  12.993  22.605  0.00  0.00    -0.265 OA
ATOM     16  C   UNL d   1     -45.446  11.076  23.494  0.00  0.00     0.217 A 
ATOM     17  S   UNL d   1     -46.146  11.472  23.692  0.00  0.00    -0.042 SA
ATOM     18  N   UNL d   1     -45.241  10.285  23.690  0.00  0.00    -0.119 N 
ENDBRANCH  11  12
ENDBRANCH   9  11
ENDBRANCH   1   8
BRANCH   2  19
ATOM     19  C   UNL d   1     -49.578  14.217  23.105  0.00  0.00     0.298 C 
ATOM     20  O   UNL d   1     -49.660  14.771  23.689  0.00  0.00    -0.259 OA
BRANCH  19  21
ATOM     21  O   UNL d   1     -49.519  14.435  22.324  0.00  0.00    -0.296 OA
ATOM     22  C   UNL d   1     -49.543  15.222  22.114  0.00  0.00     0.185 C 
ENDBRANCH  19  21
ENDBRANCH   2  19
TORSDOF 5
ENDMDL
MODEL 5
REMARK VINA RESULT:      -5.6      8.341     10.617
REMARK  5 active torsions:
REMARK  status: ('A' for Active; 'I' for Inactive)
REMARK    1  A    between atoms: N_9  and  C_1 
REMARK    2  A    between atoms: C_12  and  C_2 
REMARK       I    between atoms: C_13  and  N_9 
REMARK    3  A    between atoms: C_11  and  C_14 
REMARK    4  A    between atoms: O_19  and  C_12 
REMARK    5  A    between atoms: C_14  and  C_13 
ROOT
ATOM      1  C   UNL d   1     -38.536  14.740  17.818  0.00  0.00     0.119 A 
ATOM      2  C   UNL d   1     -38.585  14.086  17.291  0.00  0.00     0.087 A 
ATOM      3  S   UNL d   1     -38.483  15.441  17.386  0.00  0.00    -0.068 SA
ATOM      4  C   UNL d   1     -38.561  14.396  16.539  0.00  0.00     0.013 A 
ATOM      5  C   UNL d   1     -38.498  15.232  16.584  0.00  0.00     0.031 A 
ATOM      6  C   UNL d   1     -38.595  13.943  15.859  0.00  0.00     0.001 C 
ATOM      7  C   UNL d   1     -38.459  15.755  15.948  0.00  0.00     0.007 C 
ENDROOT
BRANCH   1   8
ATOM      8  N   UNL d   1     -38.534  14.768  18.649  0.00  0.00    -0.201 NA
ATOM      9  C   UNL d   1     -38.962  15.348  19.045  0.00  0.00     0.280 C 
ATOM     10  O   UNL d   1     -39.407  15.920  18.619  0.00  0.00    -0.265 OA
BRANCH   9  11
ATOM     11  C   UNL d   1     -38.960  15.377  19.891  0.00  0.00     0.074 C 
BRANCH  11  12
ATOM     12  C   UNL d   1     -39.655  15.231  20.330  0.00  0.00     0.095 A 
ATOM     13  C   UNL d   1     -39.742  14.671  20.901  0.00  0.00     0.287 A 
ATOM     14  N   UNL d   1     -40.515  14.719  21.190  0.00  0.00    -0.181 NA
ATOM     15  O   UNL d   1     -39.164  14.129  21.165  0.00  0.00    -0.265 OA
ATOM     16  C   UNL d   1     -40.889  15.332  20.770  0.00  0.00     0.217 A 
ATOM     17  S   UNL d   1     -40.342  15.647  20.234  0.00  0.00    -0.042 SA
ATOM     18  N   UNL d   1     -41.685  15.576  20.883  0.00  0.00    -0.119 N 
ENDBRANCH  11  12
ENDBRANCH   9  11
ENDBRANCH   1   8
BRANCH   2  19
ATOM     19  C   UNL d   1     -38.644  13.300  17.470  0.00  0.00     0.298 C 
ATOM     20  O   UNL d   1     -39.376  12.956  17.494  0.00  0.00    -0.259 OA
BRANCH  19  21
ATOM     21  O   UNL d   1     -37.972  12.867  17.621  0.00  0.00    -0.296 OA
ATOM     22  C   UNL d   1     -38.025  12.074  17.801  0.00  0.00     0.185 C 
ENDBRANCH  19  21
ENDBRANCH   2  19
TORSDOF 5
ENDMDL
MODEL 6
REMARK VINA RESULT:      -5.5      8.933      9.922
REMARK  5 active torsions:
REMARK  status: ('A' for Active; 'I' for Inactive)
REMARK    1  A    between atoms: N_9  and  C_1 
REMARK    2  A    between atoms: C_12  and  C_2 
REMARK       I    between atoms: C_13  and  N_9 
REMARK    3  A    between atoms: C_11  and  C_14 
REMARK    4  A    between atoms: O_19  and  C_12 
REMARK    5  A    between atoms: C_14  and  C_13 
ROOT
ATOM      1  C   UNL d   1     -39.613  14.255  18.195  0.00  0.00     0.119 A 
ATOM      2  C   UNL d   1     -39.637  14.578  17.419  0.00  0.00     0.087 A 
ATOM      3  S   UNL d   1     -39.118  13.594  18.205  0.00  0.00    -0.068 SA
ATOM      4  C   UNL d   1     -39.155  14.109  16.961  0.00  0.00     0.013 A 
ATOM      5  C   UNL d   1     -38.829  13.498  17.435  0.00  0.00     0.031 A 
ATOM      6  C   UNL d   1     -39.024  14.234  16.163  0.00  0.00     0.001 C 
ATOM      7  C   UNL d   1     -38.312  12.907  17.184  0.00  0.00     0.007 C 
ENDROOT
BRANCH   1   8
ATOM      8  N   UNL d   1     -39.992  14.496  18.894  0.00  0.00    -0.201 NA
ATOM      9  C   UNL d   1     -39.573  14.528  19.602  0.00  0.00     0.280 C 
ATOM     10  O   UNL d   1     -38.760  14.320  19.631  0.00  0.00    -0.265 OA
BRANCH   9  11
ATOM     11  C   UNL d   1     -39.959  14.774  20.314  0.00  0.00     0.074 C 
BRANCH  11  12
ATOM     12  C   UNL d   1     -39.528  14.908  21.016  0.00  0.00     0.095 A 
ATOM     13  C   UNL d   1     -39.595  14.486  21.698  0.00  0.00     0.287 A 
ATOM     14  N   UNL d   1     -39.068  14.805  22.249  0.00  0.00    -0.181 NA
ATOM     15  O   UNL d   1     -40.103  13.838  21.839  0.00  0.00    -0.265 OA
ATOM     16  C   UNL d   1     -38.681  15.436  21.871  0.00  0.00     0.217 A 
ATOM     17  S   UNL d   1     -38.975  15.493  21.099  0.00  0.00    -0.042 SA
ATOM     18  N   UNL d   1     -38.095  15.922  22.225  0.00  0.00    -0.119 N 
ENDBRANCH  11  12
ENDBRANCH   9  11
ENDBRANCH   1   8
BRANCH   2  19
ATOM     19  C   UNL d   1     -40.048  15.222  17.154  0.00  0.00     0.298 C 
ATOM     20  O   UNL d   1     -39.657  15.922  17.049  0.00  0.00    -0.259 OA
BRANCH  19  21
ATOM     21  O   UNL d   1     -40.844  15.159  16.999  0.00  0.00    -0.296 OA
ATOM     22  C   UNL d   1     -41.276  15.817  16.790  0.00  0.00     0.185 C 
ENDBRANCH  19  21
ENDBRANCH   2  19
TORSDOF 5
ENDMDL
MODEL 7
REMARK VINA RESULT:      -5.1      8.926      9.831
REMARK  5 active torsions:
REMARK  status: ('A' for Active; 'I' for Inactive)
REMARK    1  A    between atoms: N_9  and  C_1 
REMARK    2  A    between atoms: C_12  and  C_2 
REMARK       I    between atoms: C_13  and  N_9 
REMARK    3  A    between atoms: C_11  and  C_14 
REMARK    4  A    between atoms: O_19  and  C_12 
REMARK    5  A    between atoms: C_14  and  C_13 
ROOT
ATOM      1  C   UNL d   1     -39.549  15.264  18.756  0.00  0.00     0.119 A 
ATOM      2  C   UNL d   1     -39.528  14.791  18.061  0.00  0.00     0.087 A 
ATOM      3  S   UNL d   1     -40.222  15.742  18.747  0.00  0.00    -0.068 SA
ATOM      4  C   UNL d   1     -40.191  14.987  17.631  0.00  0.00     0.013 A 
ATOM      5  C   UNL d   1     -40.627  15.573  18.044  0.00  0.00     0.031 A 
ATOM      6  C   UNL d   1     -40.382  14.651  16.910  0.00  0.00     0.001 C 
ATOM      7  C   UNL d   1     -41.334  15.921  17.799  0.00  0.00     0.007 C 
ENDROOT
BRANCH   1   8
ATOM      8  N   UNL d   1     -39.023  15.306  19.398  0.00  0.00    -0.201 NA
ATOM      9  C   UNL d   1     -39.312  15.339  20.169  0.00  0.00     0.280 C 
ATOM     10  O   UNL d   1     -40.138  15.329  20.319  0.00  0.00    -0.265 OA
BRANCH   9  11
ATOM     11  C   UNL d   1     -38.776  15.382  20.823  0.00  0.00     0.074 C 
BRANCH  11  12
ATOM     12  C   UNL d   1     -38.863  14.885  21.487  0.00  0.00     0.095 A 
ATOM     13  C   UNL d   1     -38.987  15.127  22.244  0.00  0.00     0.287 A 
ATOM     14  N   UNL d   1     -39.040  14.455  22.722  0.00  0.00    -0.181 NA
ATOM     15  O   UNL d   1     -39.052  15.914  22.514  0.00  0.00    -0.265 OA
ATOM     16  C   UNL d   1     -38.943  13.798  22.222  0.00  0.00     0.217 A 
ATOM     17  S   UNL d   1     -38.833  14.077  21.450  0.00  0.00    -0.042 SA
ATOM     18  N   UNL d   1     -38.957  12.996  22.472  0.00  0.00    -0.119 N 
ENDBRANCH  11  12
ENDBRANCH   9  11
ENDBRANCH   1   8
BRANCH   2  19
ATOM     19  C   UNL d   1     -38.973  14.246  17.839  0.00  0.00     0.298 C 
ATOM     20  O   UNL d   1     -38.281  14.502  17.508  0.00  0.00    -0.259 OA
BRANCH  19  21
ATOM     21  O   UNL d   1     -39.117  13.454  17.951  0.00  0.00    -0.296 OA
ATOM     22  C   UNL d   1     -38.563  12.899  17.731  0.00  0.00     0.185 C 
ENDBRANCH  19  21
ENDBRANCH   2  19
TORSDOF 5
ENDMDL
