MODEL 1
REMARK VINA RESULT:      -8.2      0.000      0.000
REMARK  5 active torsions:
REMARK  status: ('A' for Active; 'I' for Inactive)
REMARK    1  A    between atoms: C_4  and  S_1 
REMARK    2  A    between atoms: N_5  and  S_1 
REMARK    3  A    between atoms: C_2  and  C_8 
REMARK       I    between atoms: N_3  and  C_2 
REMARK    4  A    between atoms: C_16  and  N_5 
REMARK    5  A    between atoms: C_17  and  N_5 
ROOT
ATOM      1  C   UNL d   1      50.712  34.101  52.699  0.00  0.00     0.104 A 
ATOM      2  C   UNL d   1      52.126  33.298  52.991  0.00  0.00     0.057 A 
ATOM      3  C   UNL d   1      50.712  33.417  53.167  0.00  0.00     0.013 A 
ATOM      4  C   UNL d   1      51.415  34.383  52.379  0.00  0.00     0.013 A 
ATOM      5  C   UNL d   1      51.417  33.017  53.312  0.00  0.00     0.005 A 
ATOM      6  C   UNL d   1      52.125  33.983  52.523  0.00  0.00     0.005 A 
ENDROOT
BRANCH   1   7
ATOM      7  S   UNL d   1      49.998  34.502  52.555  0.00  0.00     0.271 S 
ATOM      8  O   UNL d   1      49.894  34.836  53.374  0.00  0.00    -0.200 OA
ATOM      9  O   UNL d   1      50.042  34.183  51.666  0.00  0.00    -0.200 OA
BRANCH   7  10
ATOM     10  N   UNL d   1      49.294  34.898  52.412  0.00  0.00    -0.229 N 
BRANCH  10  11
ATOM     11  C   UNL d   1      48.985  34.920  51.644  0.00  0.00     0.092 C 
ATOM     12  C   UNL d   1      48.168  34.930  51.529  0.00  0.00     0.021 C 
ENDBRANCH  10  11
BRANCH  10  13
ATOM     13  C   UNL d   1      48.890  35.274  53.026  0.00  0.00     0.092 C 
ATOM     14  C   UNL d   1      48.411  35.925  52.857  0.00  0.00     0.021 C 
ENDBRANCH  10  13
ENDBRANCH   7  10
ENDBRANCH   1   7
BRANCH   2  15
ATOM     15  C   UNL d   1      52.831  32.892  53.141  0.00  0.00     0.265 C 
ATOM     16  N   UNL d   1      53.313  33.136  53.762  0.00  0.00    -0.272 N 
ATOM     17  C   UNL d   1      53.093  33.780  54.228  0.00  0.00     0.083 A 
ATOM     18  C   UNL d   1      54.017  32.735  53.916  0.00  0.00     0.083 A 
ATOM     19  C   UNL d   1      53.576  34.024  54.849  0.00  0.00     0.019 A 
ATOM     20  C   UNL d   1      54.279  33.624  55.003  0.00  0.00     0.003 A 
ATOM     21  C   UNL d   1      54.499  32.980  54.537  0.00  0.00     0.019 A 
ATOM     22  O   UNL d   1      53.048  32.248  52.673  0.00  0.00    -0.267 OA
ENDBRANCH   2  15
TORSDOF 5
ENDMDL
MODEL 2
REMARK VINA RESULT:      -8.1      1.129      4.694
REMARK  5 active torsions:
REMARK  status: ('A' for Active; 'I' for Inactive)
REMARK    1  A    between atoms: C_4  and  S_1 
REMARK    2  A    between atoms: N_5  and  S_1 
REMARK    3  A    between atoms: C_2  and  C_8 
REMARK       I    between atoms: N_3  and  C_2 
REMARK    4  A    between atoms: C_16  and  N_5 
REMARK    5  A    between atoms: C_17  and  N_5 
ROOT
ATOM      1  C   UNL d   1      51.838  33.421  53.126  0.00  0.00     0.104 A 
ATOM      2  C   UNL d   1      50.476  34.329  52.908  0.00  0.00     0.057 A 
ATOM      3  C   UNL d   1      51.099  33.122  53.352  0.00  0.00     0.013 A 
ATOM      4  C   UNL d   1      51.896  34.171  52.792  0.00  0.00     0.013 A 
ATOM      5  C   UNL d   1      50.421  33.575  53.243  0.00  0.00     0.005 A 
ATOM      6  C   UNL d   1      51.215  34.628  52.682  0.00  0.00     0.005 A 
ENDROOT
BRANCH   1   7
ATOM      7  S   UNL d   1      52.521  32.960  53.237  0.00  0.00     0.271 S 
ATOM      8  O   UNL d   1      52.495  32.537  52.454  0.00  0.00    -0.200 OA
ATOM      9  O   UNL d   1      52.613  33.369  54.084  0.00  0.00    -0.200 OA
BRANCH   7  10
ATOM     10  N   UNL d   1      53.195  32.506  53.347  0.00  0.00    -0.229 N 
BRANCH  10  11
ATOM     11  C   UNL d   1      53.837  32.820  53.766  0.00  0.00     0.092 C 
ATOM     12  C   UNL d   1      54.606  32.703  53.490  0.00  0.00     0.021 C 
ENDBRANCH  10  11
BRANCH  10  13
ATOM     13  C   UNL d   1      53.241  31.739  53.046  0.00  0.00     0.092 C 
ATOM     14  C   UNL d   1      53.483  31.123  53.539  0.00  0.00     0.021 C 
ENDBRANCH  10  13
ENDBRANCH   7  10
ENDBRANCH   1   7
BRANCH   2  15
ATOM     15  C   UNL d   1      49.789  34.780  52.801  0.00  0.00     0.265 C 
ATOM     16  N   UNL d   1      49.376  34.723  52.091  0.00  0.00    -0.272 N 
ATOM     17  C   UNL d   1      49.646  34.221  51.494  0.00  0.00     0.083 A 
ATOM     18  C   UNL d   1      48.692  35.169  51.979  0.00  0.00     0.083 A 
ATOM     19  C   UNL d   1      49.231  34.165  50.785  0.00  0.00     0.019 A 
ATOM     20  C   UNL d   1      48.549  34.610  50.672  0.00  0.00     0.003 A 
ATOM     21  C   UNL d   1      48.279  35.112  51.269  0.00  0.00     0.019 A 
ATOM     22  O   UNL d   1      49.523  35.280  53.400  0.00  0.00    -0.267 OA
ENDBRANCH   2  15
TORSDOF 5
ENDMDL
MODEL 3
REMARK VINA RESULT:      -7.3      2.480      3.483
REMARK  5 active torsions:
REMARK  status: ('A' for Active; 'I' for Inactive)
REMARK    1  A    between atoms: C_4  and  S_1 
REMARK    2  A    between atoms: N_5  and  S_1 
REMARK    3  A    between atoms: C_2  and  C_8 
REMARK       I    between atoms: N_3  and  C_2 
REMARK    4  A    between atoms: C_16  and  N_5 
REMARK    5  A    between atoms: C_17  and  N_5 
ROOT
ATOM      1  C   UNL d   1      52.694  32.450  53.270  0.00  0.00     0.104 A 
ATOM      2  C   UNL d   1      53.071  30.842  53.241  0.00  0.00     0.057 A 
ATOM      3  C   UNL d   1      52.103  31.887  53.127  0.00  0.00     0.013 A 
ATOM      4  C   UNL d   1      53.471  32.210  53.399  0.00  0.00     0.013 A 
ATOM      5  C   UNL d   1      52.291  31.086  53.112  0.00  0.00     0.005 A 
ATOM      6  C   UNL d   1      53.662  31.405  53.385  0.00  0.00     0.005 A 
ENDROOT
BRANCH   1   7
ATOM      7  S   UNL d   1      52.501  33.258  53.284  0.00  0.00     0.271 S 
ATOM      8  O   UNL d   1      52.443  33.340  54.170  0.00  0.00    -0.200 OA
ATOM      9  O   UNL d   1      52.545  33.246  52.340  0.00  0.00    -0.200 OA
BRANCH   7  10
ATOM     10  N   UNL d   1      52.310  34.056  53.298  0.00  0.00    -0.229 N 
BRANCH  10  11
ATOM     11  C   UNL d   1      52.625  34.542  53.890  0.00  0.00     0.092 C 
ATOM     12  C   UNL d   1      52.904  35.295  53.699  0.00  0.00     0.021 C 
ENDBRANCH  10  11
BRANCH  10  13
ATOM     13  C   UNL d   1      51.807  34.379  52.729  0.00  0.00     0.092 C 
ATOM     14  C   UNL d   1      51.074  34.681  52.959  0.00  0.00     0.021 C 
ENDBRANCH  10  13
ENDBRANCH   7  10
ENDBRANCH   1   7
BRANCH   2  15
ATOM     15  C   UNL d   1      53.253  30.034  53.225  0.00  0.00     0.265 C 
ATOM     16  N   UNL d   1      53.285  29.614  53.932  0.00  0.00    -0.272 N 
ATOM     17  C   UNL d   1      53.136  29.997  54.648  0.00  0.00     0.083 A 
ATOM     18  C   UNL d   1      53.466  28.810  53.923  0.00  0.00     0.083 A 
ATOM     19  C   UNL d   1      53.169  29.575  55.355  0.00  0.00     0.019 A 
ATOM     20  C   UNL d   1      53.349  28.773  55.346  0.00  0.00     0.003 A 
ATOM     21  C   UNL d   1      53.498  28.390  54.631  0.00  0.00     0.019 A 
ATOM     22  O   UNL d   1      53.401  29.655  52.508  0.00  0.00    -0.267 OA
ENDBRANCH   2  15
TORSDOF 5
ENDMDL
