MODEL 1
REMARK VINA RESULT:      -5.4      0.000      0.000
REMARK  4 active torsions:
REMARK  status: ('A' for Active; 'I' for Inactive)
REMARK       I    between atoms: C_2  and  N_1 
REMARK    1  A    between atoms: C_3  and  N_1 
REMARK       I    between atoms: N_6  and  C_2 
REMARK    2  A    between atoms: C_9  and  N_6 
REMARK    3  A    between atoms: C_10  and  C_9 
REMARK    4  A    between atoms: C_11  and  C_10 
ROOT
ATOM      1  N   UNL d   1     -49.246  11.662  22.792  0.00  0.00    -0.172 NA
ATOM      2  C   UNL d   1     -48.504  11.917  23.048  0.00  0.00     0.370 C 
ATOM      3  O   UNL d   1     -48.334  12.720  23.086  0.00  0.00    -0.242 OA
ATOM      4  N   UNL d   1     -47.930  11.360  23.268  0.00  0.00    -0.189 NA
ENDROOT
BRANCH   1   5
ATOM      5  C   UNL d   1     -49.819  12.219  22.573  0.00  0.00     0.167 A 
ATOM      6  N   UNL d   1     -49.765  12.602  21.849  0.00  0.00    -0.225 NA
ATOM      7  C   UNL d   1     -50.335  13.155  21.634  0.00  0.00     0.101 A 
ATOM      8  C   UNL d   1     -50.963  13.327  22.143  0.00  0.00     0.021 A 
ATOM      9  C   UNL d   1     -51.011  12.937  22.870  0.00  0.00     0.005 A 
ATOM     10  C   UNL d   1     -50.444  12.386  23.086  0.00  0.00     0.039 A 
ENDBRANCH   1   5
BRANCH   4  11
ATOM     11  C   UNL d   1     -47.189  11.616  23.524  0.00  0.00     0.104 C 
BRANCH  11  12
ATOM     12  C   UNL d   1     -46.608  11.061  23.696  0.00  0.00     0.021 C 
BRANCH  12  13
ATOM     13  C   UNL d   1     -45.810  11.281  23.666  0.00  0.00     0.002 C 
ATOM     14  C   UNL d   1     -45.230  10.706  23.595  0.00  0.00     0.000 C 
ENDBRANCH  12  13
ENDBRANCH  11  12
ENDBRANCH   4  11
TORSDOF 4
ENDMDL
MODEL 2
REMARK VINA RESULT:      -5.3      2.313      4.631
REMARK  4 active torsions:
REMARK  status: ('A' for Active; 'I' for Inactive)
REMARK       I    between atoms: C_2  and  N_1 
REMARK    1  A    between atoms: C_3  and  N_1 
REMARK       I    between atoms: N_6  and  C_2 
REMARK    2  A    between atoms: C_9  and  N_6 
REMARK    3  A    between atoms: C_10  and  C_9 
REMARK    4  A    between atoms: C_11  and  C_10 
ROOT
ATOM      1  N   UNL d   1     -47.150  14.323  23.114  0.00  0.00    -0.172 NA
ATOM      2  C   UNL d   1     -47.946  14.267  22.906  0.00  0.00     0.370 C 
ATOM      3  O   UNL d   1     -48.236  13.580  22.562  0.00  0.00    -0.242 OA
ATOM      4  N   UNL d   1     -48.454  14.907  23.046  0.00  0.00    -0.189 NA
ENDROOT
BRANCH   1   5
ATOM      5  C   UNL d   1     -46.642  13.683  22.974  0.00  0.00     0.167 A 
ATOM      6  N   UNL d   1     -46.702  13.003  23.431  0.00  0.00    -0.225 NA
ATOM      7  C   UNL d   1     -46.198  12.369  23.290  0.00  0.00     0.101 A 
ATOM      8  C   UNL d   1     -45.629  12.412  22.691  0.00  0.00     0.021 A 
ATOM      9  C   UNL d   1     -45.576  13.100  22.237  0.00  0.00     0.005 A 
ATOM     10  C   UNL d   1     -46.077  13.732  22.375  0.00  0.00     0.039 A 
ENDBRANCH   1   5
BRANCH   4  11
ATOM     11  C   UNL d   1     -49.250  14.851  22.838  0.00  0.00     0.104 C 
BRANCH  11  12
ATOM     12  C   UNL d   1     -49.767  15.452  23.053  0.00  0.00     0.021 C 
BRANCH  12  13
ATOM     13  C   UNL d   1     -50.584  15.311  23.048  0.00  0.00     0.002 C 
ATOM     14  C   UNL d   1     -51.064  15.679  23.600  0.00  0.00     0.000 C 
ENDBRANCH  12  13
ENDBRANCH  11  12
ENDBRANCH   4  11
TORSDOF 4
ENDMDL
MODEL 3
REMARK VINA RESULT:      -5.3      1.603      1.750
REMARK  4 active torsions:
REMARK  status: ('A' for Active; 'I' for Inactive)
REMARK       I    between atoms: C_2  and  N_1 
REMARK    1  A    between atoms: C_3  and  N_1 
REMARK       I    between atoms: N_6  and  C_2 
REMARK    2  A    between atoms: C_9  and  N_6 
REMARK    3  A    between atoms: C_10  and  C_9 
REMARK    4  A    between atoms: C_11  and  C_10 
ROOT
ATOM      1  N   UNL d   1     -48.678  13.025  23.544  0.00  0.00    -0.172 NA
ATOM      2  C   UNL d   1     -48.126  12.987  22.933  0.00  0.00     0.370 C 
ATOM      3  O   UNL d   1     -48.361  12.771  22.176  0.00  0.00    -0.242 OA
ATOM      4  N   UNL d   1     -47.331  13.168  23.084  0.00  0.00    -0.189 NA
ENDROOT
BRANCH   1   5
ATOM      5  C   UNL d   1     -49.473  12.845  23.392  0.00  0.00     0.167 A 
ATOM      6  N   UNL d   1     -49.981  13.427  23.116  0.00  0.00    -0.225 NA
ATOM      7  C   UNL d   1     -50.769  13.246  22.966  0.00  0.00     0.101 A 
ATOM      8  C   UNL d   1     -51.053  12.480  23.091  0.00  0.00     0.021 A 
ATOM      9  C   UNL d   1     -50.535  11.900  23.369  0.00  0.00     0.005 A 
ATOM     10  C   UNL d   1     -49.750  12.078  23.519  0.00  0.00     0.039 A 
ENDBRANCH   1   5
BRANCH   4  11
ATOM     11  C   UNL d   1     -46.778  13.129  22.473  0.00  0.00     0.104 C 
BRANCH  11  12
ATOM     12  C   UNL d   1     -45.976  13.134  22.652  0.00  0.00     0.021 C 
BRANCH  12  13
ATOM     13  C   UNL d   1     -45.436  13.435  22.102  0.00  0.00     0.002 C 
ATOM     14  C   UNL d   1     -44.746  13.024  21.941  0.00  0.00     0.000 C 
ENDBRANCH  12  13
ENDBRANCH  11  12
ENDBRANCH   4  11
TORSDOF 4
ENDMDL
MODEL 4
REMARK VINA RESULT:      -5.2      1.963      2.161
REMARK  4 active torsions:
REMARK  status: ('A' for Active; 'I' for Inactive)
REMARK       I    between atoms: C_2  and  N_1 
REMARK    1  A    between atoms: C_3  and  N_1 
REMARK       I    between atoms: N_6  and  C_2 
REMARK    2  A    between atoms: C_9  and  N_6 
REMARK    3  A    between atoms: C_10  and  C_9 
REMARK    4  A    between atoms: C_11  and  C_10 
ROOT
ATOM      1  N   UNL d   1     -48.730  14.594  22.839  0.00  0.00    -0.172 NA
ATOM      2  C   UNL d   1     -48.534  13.841  23.112  0.00  0.00     0.370 C 
ATOM      3  O   UNL d   1     -49.095  13.381  23.497  0.00  0.00    -0.242 OA
ATOM      4  N   UNL d   1     -47.766  13.549  22.997  0.00  0.00    -0.189 NA
ENDROOT
BRANCH   1   5
ATOM      5  C   UNL d   1     -49.497  14.886  22.955  0.00  0.00     0.167 A 
ATOM      6  N   UNL d   1     -50.105  14.656  22.453  0.00  0.00    -0.225 NA
ATOM      7  C   UNL d   1     -50.865  14.946  22.569  0.00  0.00     0.101 A 
ATOM      8  C   UNL d   1     -51.022  15.470  23.190  0.00  0.00     0.021 A 
ATOM      9  C   UNL d   1     -50.405  15.696  23.690  0.00  0.00     0.005 A 
ATOM     10  C   UNL d   1     -49.647  15.408  23.576  0.00  0.00     0.039 A 
ENDBRANCH   1   5
BRANCH   4  11
ATOM     11  C   UNL d   1     -47.569  12.795  23.270  0.00  0.00     0.104 C 
BRANCH  11  12
ATOM     12  C   UNL d   1     -46.786  12.550  23.249  0.00  0.00     0.021 C 
BRANCH  12  13
ATOM     13  C   UNL d   1     -46.560  11.864  23.656  0.00  0.00     0.002 C 
ATOM     14  C   UNL d   1     -45.920  11.426  23.393  0.00  0.00     0.000 C 
ENDBRANCH  12  13
ENDBRANCH  11  12
ENDBRANCH   4  11
TORSDOF 4
ENDMDL
MODEL 5
REMARK VINA RESULT:      -4.7      1.659      4.135
REMARK  4 active torsions:
REMARK  status: ('A' for Active; 'I' for Inactive)
REMARK       I    between atoms: C_2  and  N_1 
REMARK    1  A    between atoms: C_3  and  N_1 
REMARK       I    between atoms: N_6  and  C_2 
REMARK    2  A    between atoms: C_9  and  N_6 
REMARK    3  A    between atoms: C_10  and  C_9 
REMARK    4  A    between atoms: C_11  and  C_10 
ROOT
ATOM      1  N   UNL d   1     -46.859  12.701  23.452  0.00  0.00    -0.172 NA
ATOM      2  C   UNL d   1     -47.521  12.354  23.103  0.00  0.00     0.370 C 
ATOM      3  O   UNL d   1     -47.479  12.061  22.338  0.00  0.00    -0.242 OA
ATOM      4  N   UNL d   1     -48.231  12.302  23.529  0.00  0.00    -0.189 NA
ENDROOT
BRANCH   1   5
ATOM      5  C   UNL d   1     -46.150  12.753  23.027  0.00  0.00     0.167 A 
ATOM      6  N   UNL d   1     -45.581  12.166  23.104  0.00  0.00    -0.225 NA
ATOM      7  C   UNL d   1     -44.877  12.219  22.681  0.00  0.00     0.101 A 
ATOM      8  C   UNL d   1     -44.740  12.861  22.178  0.00  0.00     0.021 A 
ATOM      9  C   UNL d   1     -45.318  13.446  22.106  0.00  0.00     0.005 A 
ATOM     10  C   UNL d   1     -46.019  13.395  22.527  0.00  0.00     0.039 A 
ENDBRANCH   1   5
BRANCH   4  11
ATOM     11  C   UNL d   1     -48.893  11.955  23.180  0.00  0.00     0.104 C 
BRANCH  11  12
ATOM     12  C   UNL d   1     -49.628  12.315  23.261  0.00  0.00     0.021 C 
BRANCH  12  13
ATOM     13  C   UNL d   1     -50.310  11.847  23.306  0.00  0.00     0.002 C 
ATOM     14  C   UNL d   1     -51.002  12.163  23.610  0.00  0.00     0.000 C 
ENDBRANCH  12  13
ENDBRANCH  11  12
ENDBRANCH   4  11
TORSDOF 4
ENDMDL
MODEL 6
REMARK VINA RESULT:      -4.3      9.484      9.951
REMARK  4 active torsions:
REMARK  status: ('A' for Active; 'I' for Inactive)
REMARK       I    between atoms: C_2  and  N_1 
REMARK    1  A    between atoms: C_3  and  N_1 
REMARK       I    between atoms: N_6  and  C_2 
REMARK    2  A    between atoms: C_9  and  N_6 
REMARK    3  A    between atoms: C_10  and  C_9 
REMARK    4  A    between atoms: C_11  and  C_10 
ROOT
ATOM      1  N   UNL d   1     -40.476  14.169  18.559  0.00  0.00    -0.172 NA
ATOM      2  C   UNL d   1     -40.159  14.508  19.241  0.00  0.00     0.370 C 
ATOM      3  O   UNL d   1     -39.850  15.268  19.219  0.00  0.00    -0.242 OA
ATOM      4  N   UNL d   1     -40.153  14.078  19.950  0.00  0.00    -0.189 NA
ENDROOT
BRANCH   1   5
ATOM      5  C   UNL d   1     -40.482  14.599  17.851  0.00  0.00     0.167 A 
ATOM      6  N   UNL d   1     -41.132  15.062  17.656  0.00  0.00    -0.225 NA
ATOM      7  C   UNL d   1     -41.136  15.487  16.953  0.00  0.00     0.101 A 
ATOM      8  C   UNL d   1     -40.489  15.453  16.439  0.00  0.00     0.021 A 
ATOM      9  C   UNL d   1     -39.839  14.985  16.643  0.00  0.00     0.005 A 
ATOM     10  C   UNL d   1     -39.834  14.560  17.343  0.00  0.00     0.039 A 
ENDBRANCH   1   5
BRANCH   4  11
ATOM     11  C   UNL d   1     -39.835  14.417  20.632  0.00  0.00     0.104 C 
BRANCH  11  12
ATOM     12  C   UNL d   1     -39.803  13.977  21.325  0.00  0.00     0.021 C 
BRANCH  12  13
ATOM     13  C   UNL d   1     -39.318  14.229  21.947  0.00  0.00     0.002 C 
ATOM     14  C   UNL d   1     -39.120  13.706  22.547  0.00  0.00     0.000 C 
ENDBRANCH  12  13
ENDBRANCH  11  12
ENDBRANCH   4  11
TORSDOF 4
ENDMDL
MODEL 7
REMARK VINA RESULT:      -4.2      9.268     10.616
REMARK  4 active torsions:
REMARK  status: ('A' for Active; 'I' for Inactive)
REMARK       I    between atoms: C_2  and  N_1 
REMARK    1  A    between atoms: C_3  and  N_1 
REMARK       I    between atoms: N_6  and  C_2 
REMARK    2  A    between atoms: C_9  and  N_6 
REMARK    3  A    between atoms: C_10  and  C_9 
REMARK    4  A    between atoms: C_11  and  C_10 
ROOT
ATOM      1  N   UNL d   1     -40.480  14.623  18.539  0.00  0.00    -0.172 NA
ATOM      2  C   UNL d   1     -39.736  14.618  18.181  0.00  0.00     0.370 C 
ATOM      3  O   UNL d   1     -39.072  14.846  18.606  0.00  0.00    -0.242 OA
ATOM      4  N   UNL d   1     -39.662  14.381  17.390  0.00  0.00    -0.189 NA
ENDROOT
BRANCH   1   5
ATOM      5  C   UNL d   1     -40.554  14.860  19.330  0.00  0.00     0.167 A 
ATOM      6  N   UNL d   1     -40.665  15.652  19.513  0.00  0.00    -0.225 NA
ATOM      7  C   UNL d   1     -40.739  15.885  20.299  0.00  0.00     0.101 A 
ATOM      8  C   UNL d   1     -40.700  15.324  20.906  0.00  0.00     0.021 A 
ATOM      9  C   UNL d   1     -40.588  14.529  20.712  0.00  0.00     0.005 A 
ATOM     10  C   UNL d   1     -40.515  14.296  19.931  0.00  0.00     0.039 A 
ENDBRANCH   1   5
BRANCH   4  11
ATOM     11  C   UNL d   1     -38.918  14.376  17.032  0.00  0.00     0.104 C 
BRANCH  11  12
ATOM     12  C   UNL d   1     -38.838  14.075  16.272  0.00  0.00     0.021 C 
BRANCH  12  13
ATOM     13  C   UNL d   1     -38.120  14.167  15.869  0.00  0.00     0.002 C 
ATOM     14  C   UNL d   1     -37.940  13.675  15.240  0.00  0.00     0.000 C 
ENDBRANCH  12  13
ENDBRANCH  11  12
ENDBRANCH   4  11
TORSDOF 4
ENDMDL
