MODEL 1
REMARK VINA RESULT:      -8.2      0.000      0.000
REMARK  3 active torsions:
REMARK  status: ('A' for Active; 'I' for Inactive)
REMARK    1  A    between atoms: C_2  and  C_1 
REMARK    2  A    between atoms: N_5  and  C_2 
REMARK    3  A    between atoms: C_9  and  C_4 
ROOT
ATOM      1  C   UNL d   1      52.835  33.467  53.353  0.00  0.00     0.126 A 
ATOM      2  O   UNL d   1      52.575  32.694  53.475  0.00  0.00    -0.305 OA
ATOM      3  C   UNL d   1      53.241  32.204  53.464  0.00  0.00     0.100 A 
ATOM      4  C   UNL d   1      53.659  33.448  53.268  0.00  0.00     0.029 A 
ATOM      5  C   UNL d   1      53.906  32.678  53.336  0.00  0.00     0.027 A 
ENDROOT
BRANCH   1   6
ATOM      6  C   UNL d   1      52.427  34.173  53.310  0.00  0.00     0.143 C 
ATOM      7  S   UNL d   1      52.737  34.850  53.662  0.00  0.00    -0.057 SA
BRANCH   6   8
ATOM      8  N   UNL d   1      51.706  34.212  52.916  0.00  0.00    -0.290 N 
ATOM      9  C   UNL d   1      51.680  34.276  52.094  0.00  0.00     0.108 A 
ATOM     10  C   UNL d   1      50.952  34.316  51.703  0.00  0.00     0.142 A 
ATOM     11  O   UNL d   1      50.257  34.290  52.144  0.00  0.00    -0.300 OA
ATOM     12  C   UNL d   1      50.282  34.226  52.966  0.00  0.00     0.142 A 
ATOM     13  C   UNL d   1      51.007  34.188  53.346  0.00  0.00     0.108 A 
ENDBRANCH   6   8
ENDBRANCH   1   6
BRANCH   3  14
ATOM     14  C   UNL d   1      53.234  31.395  53.564  0.00  0.00     0.023 A 
ATOM     15  C   UNL d   1      53.534  31.068  54.259  0.00  0.00     0.003 A 
ATOM     16  C   UNL d   1      53.531  30.258  54.368  0.00  0.00     0.007 A 
ATOM     17  C   UNL d   1      53.227  29.758  53.782  0.00  0.00     0.035 A 
ATOM     18  C   UNL d   1      52.925  30.084  53.084  0.00  0.00     0.007 A 
ATOM     19 BR   UNL d   1      53.225  28.941  53.893  0.00  0.00    -0.049 Br
ATOM     20  C   UNL d   1      52.929  30.890  52.977  0.00  0.00     0.003 A 
ENDBRANCH   3  14
TORSDOF 3
ENDMDL
MODEL 2
REMARK VINA RESULT:      -8.0      2.343      4.023
REMARK  3 active torsions:
REMARK  status: ('A' for Active; 'I' for Inactive)
REMARK    1  A    between atoms: C_2  and  C_1 
REMARK    2  A    between atoms: N_5  and  C_2 
REMARK    3  A    between atoms: C_9  and  C_4 
ROOT
ATOM      1  C   UNL d   1      53.209  32.340  53.605  0.00  0.00     0.126 A 
ATOM      2  O   UNL d   1      52.682  32.970  53.668  0.00  0.00    -0.305 OA
ATOM      3  C   UNL d   1      52.125  32.888  53.063  0.00  0.00     0.100 A 
ATOM      4  C   UNL d   1      52.974  31.874  52.961  0.00  0.00     0.029 A 
ATOM      5  C   UNL d   1      52.313  32.209  52.631  0.00  0.00     0.027 A 
ENDROOT
BRANCH   1   6
ATOM      6  C   UNL d   1      53.865  32.139  54.049  0.00  0.00     0.143 C 
ATOM      7  S   UNL d   1      54.095  31.349  54.109  0.00  0.00    -0.057 SA
BRANCH   6   8
ATOM      8  N   UNL d   1      54.297  32.719  54.438  0.00  0.00    -0.290 N 
ATOM      9  C   UNL d   1      54.882  33.145  54.040  0.00  0.00     0.108 A 
ATOM     10  C   UNL d   1      55.314  33.728  54.437  0.00  0.00     0.142 A 
ATOM     11  O   UNL d   1      55.153  33.878  55.231  0.00  0.00    -0.300 OA
ATOM     12  C   UNL d   1      54.569  33.454  55.629  0.00  0.00     0.142 A 
ATOM     13  C   UNL d   1      54.145  32.877  55.229  0.00  0.00     0.108 A 
ENDBRANCH   6   8
ENDBRANCH   1   6
BRANCH   3  14
ATOM     14  C   UNL d   1      51.501  33.394  52.923  0.00  0.00     0.023 A 
ATOM     15  C   UNL d   1      50.820  33.339  53.386  0.00  0.00     0.003 A 
ATOM     16  C   UNL d   1      50.191  33.842  53.252  0.00  0.00     0.007 A 
ATOM     17  C   UNL d   1      50.229  34.411  52.653  0.00  0.00     0.035 A 
ATOM     18  C   UNL d   1      50.911  34.468  52.187  0.00  0.00     0.007 A 
ATOM     19 BR   UNL d   1      49.592  34.918  52.519  0.00  0.00    -0.049 Br
ATOM     20  C   UNL d   1      51.537  33.967  52.320  0.00  0.00     0.003 A 
ENDBRANCH   3  14
TORSDOF 3
ENDMDL
MODEL 3
REMARK VINA RESULT:      -7.5      2.122      4.090
REMARK  3 active torsions:
REMARK  status: ('A' for Active; 'I' for Inactive)
REMARK    1  A    between atoms: C_2  and  C_1 
REMARK    2  A    between atoms: N_5  and  C_2 
REMARK    3  A    between atoms: C_9  and  C_4 
ROOT
ATOM      1  C   UNL d   1      53.130  32.488  53.461  0.00  0.00     0.126 A 
ATOM      2  O   UNL d   1      52.448  32.619  53.017  0.00  0.00    -0.305 OA
ATOM      3  C   UNL d   1      52.140  33.350  53.247  0.00  0.00     0.100 A 
ATOM      4  C   UNL d   1      53.237  33.139  53.962  0.00  0.00     0.029 A 
ATOM      5  C   UNL d   1      52.633  33.664  53.832  0.00  0.00     0.027 A 
ENDROOT
BRANCH   1   6
ATOM      6  C   UNL d   1      53.657  31.863  53.469  0.00  0.00     0.143 C 
ATOM      7  S   UNL d   1      54.468  32.009  53.436  0.00  0.00    -0.057 SA
BRANCH   6   8
ATOM      8  N   UNL d   1      53.383  31.090  53.509  0.00  0.00    -0.290 N 
ATOM      9  C   UNL d   1      53.085  30.714  52.837  0.00  0.00     0.108 A 
ATOM     10  C   UNL d   1      52.811  29.935  52.883  0.00  0.00     0.142 A 
ATOM     11  O   UNL d   1      52.839  29.541  53.606  0.00  0.00    -0.300 OA
ATOM     12  C   UNL d   1      53.137  29.915  54.278  0.00  0.00     0.142 A 
ATOM     13  C   UNL d   1      53.407  30.688  54.224  0.00  0.00     0.108 A 
ENDBRANCH   6   8
ENDBRANCH   1   6
BRANCH   3  14
ATOM     14  C   UNL d   1      51.465  33.695  52.946  0.00  0.00     0.023 A 
ATOM     15  C   UNL d   1      51.481  34.028  52.191  0.00  0.00     0.003 A 
ATOM     16  C   UNL d   1      50.810  34.375  51.881  0.00  0.00     0.007 A 
ATOM     17  C   UNL d   1      50.108  34.397  52.320  0.00  0.00     0.035 A 
ATOM     18  C   UNL d   1      50.090  34.063  53.077  0.00  0.00     0.007 A 
ATOM     19 BR   UNL d   1      49.431  34.748  52.005  0.00  0.00    -0.049 Br
ATOM     20  C   UNL d   1      50.758  33.718  53.385  0.00  0.00     0.003 A 
ENDBRANCH   3  14
TORSDOF 3
ENDMDL
MODEL 4
REMARK VINA RESULT:      -7.4      1.920      2.095
REMARK  3 active torsions:
REMARK  status: ('A' for Active; 'I' for Inactive)
REMARK    1  A    between atoms: C_2  and  C_1 
REMARK    2  A    between atoms: N_5  and  C_2 
REMARK    3  A    between atoms: C_9  and  C_4 
ROOT
ATOM      1  C   UNL d   1      54.244  33.107  54.236  0.00  0.00     0.126 A 
ATOM      2  O   UNL d   1      53.702  32.487  54.292  0.00  0.00    -0.305 OA
ATOM      3  C   UNL d   1      53.910  31.926  53.722  0.00  0.00     0.100 A 
ATOM      4  C   UNL d   1      54.780  32.922  53.633  0.00  0.00     0.029 A 
ATOM      5  C   UNL d   1      54.577  32.202  53.320  0.00  0.00     0.027 A 
ENDROOT
BRANCH   1   6
ATOM      6  C   UNL d   1      54.310  33.804  54.656  0.00  0.00     0.143 C 
ATOM      7  S   UNL d   1      54.937  33.911  55.180  0.00  0.00    -0.057 SA
BRANCH   6   8
ATOM      8  N   UNL d   1      53.754  34.401  54.559  0.00  0.00    -0.290 N 
ATOM      9  C   UNL d   1      53.737  34.851  53.867  0.00  0.00     0.108 A 
ATOM     10  C   UNL d   1      53.175  35.451  53.775  0.00  0.00     0.142 A 
ATOM     11  O   UNL d   1      52.634  35.593  54.381  0.00  0.00    -0.300 OA
ATOM     12  C   UNL d   1      52.650  35.144  55.072  0.00  0.00     0.142 A 
ATOM     13  C   UNL d   1      53.211  34.551  55.156  0.00  0.00     0.108 A 
ENDBRANCH   6   8
ENDBRANCH   1   6
BRANCH   3  14
ATOM     14  C   UNL d   1      53.519  31.223  53.587  0.00  0.00     0.023 A 
ATOM     15  C   UNL d   1      52.895  31.201  53.048  0.00  0.00     0.003 A 
ATOM     16  C   UNL d   1      52.498  30.501  52.906  0.00  0.00     0.007 A 
ATOM     17  C   UNL d   1      52.717  29.808  53.302  0.00  0.00     0.035 A 
ATOM     18  C   UNL d   1      53.342  29.828  53.844  0.00  0.00     0.007 A 
ATOM     19 BR   UNL d   1      52.315  29.102  53.158  0.00  0.00    -0.049 Br
ATOM     20  C   UNL d   1      53.737  30.524  53.985  0.00  0.00     0.003 A 
ENDBRANCH   3  14
TORSDOF 3
ENDMDL
MODEL 5
REMARK VINA RESULT:      -6.4      2.921      4.479
REMARK  3 active torsions:
REMARK  status: ('A' for Active; 'I' for Inactive)
REMARK    1  A    between atoms: C_2  and  C_1 
REMARK    2  A    between atoms: N_5  and  C_2 
REMARK    3  A    between atoms: C_9  and  C_4 
ROOT
ATOM      1  C   UNL d   1      53.174  30.795  53.444  0.00  0.00     0.126 A 
ATOM      2  O   UNL d   1      53.715  31.174  53.939  0.00  0.00    -0.305 OA
ATOM      3  C   UNL d   1      53.672  31.983  53.778  0.00  0.00     0.100 A 
ATOM      4  C   UNL d   1      52.803  31.374  52.983  0.00  0.00     0.029 A 
ATOM      5  C   UNL d   1      53.106  32.098  53.186  0.00  0.00     0.027 A 
ENDROOT
BRANCH   1   6
ATOM      6  C   UNL d   1      52.980  30.006  53.362  0.00  0.00     0.143 C 
ATOM      7  S   UNL d   1      52.635  29.738  52.662  0.00  0.00    -0.057 SA
BRANCH   6   8
ATOM      8  N   UNL d   1      53.127  29.476  53.972  0.00  0.00    -0.290 N 
ATOM      9  C   UNL d   1      52.634  29.450  54.634  0.00  0.00     0.108 A 
ATOM     10  C   UNL d   1      52.787  28.915  55.246  0.00  0.00     0.142 A 
ATOM     11  O   UNL d   1      53.435  28.409  55.186  0.00  0.00    -0.300 OA
ATOM     12  C   UNL d   1      53.929  28.435  54.525  0.00  0.00     0.142 A 
ATOM     13  C   UNL d   1      53.770  28.968  53.923  0.00  0.00     0.108 A 
ENDBRANCH   6   8
ENDBRANCH   1   6
BRANCH   3  14
ATOM     14  C   UNL d   1      54.115  32.561  54.144  0.00  0.00     0.023 A 
ATOM     15  C   UNL d   1      53.936  32.783  54.918  0.00  0.00     0.003 A 
ATOM     16  C   UNL d   1      54.374  33.362  55.293  0.00  0.00     0.007 A 
ATOM     17  C   UNL d   1      55.002  33.731  54.901  0.00  0.00     0.035 A 
ATOM     18  C   UNL d   1      55.185  33.510  54.124  0.00  0.00     0.007 A 
ATOM     19 BR   UNL d   1      55.444  34.315  55.280  0.00  0.00    -0.049 Br
ATOM     20  C   UNL d   1      54.748  32.934  53.752  0.00  0.00     0.003 A 
ENDBRANCH   3  14
TORSDOF 3
ENDMDL
MODEL 6
REMARK VINA RESULT:      -6.3      2.920      4.574
REMARK  3 active torsions:
REMARK  status: ('A' for Active; 'I' for Inactive)
REMARK    1  A    between atoms: C_2  and  C_1 
REMARK    2  A    between atoms: N_5  and  C_2 
REMARK    3  A    between atoms: C_9  and  C_4 
ROOT
ATOM      1  C   UNL d   1      51.697  33.854  53.146  0.00  0.00     0.126 A 
ATOM      2  O   UNL d   1      51.201  34.452  52.871  0.00  0.00    -0.305 OA
ATOM      3  C   UNL d   1      50.434  34.145  52.848  0.00  0.00     0.100 A 
ATOM      4  C   UNL d   1      51.233  33.183  53.290  0.00  0.00     0.029 A 
ATOM      5  C   UNL d   1      50.463  33.361  53.108  0.00  0.00     0.027 A 
ENDROOT
BRANCH   1   6
ATOM      6  C   UNL d   1      52.503  33.841  53.279  0.00  0.00     0.143 C 
ATOM      7  S   UNL d   1      52.991  33.371  52.809  0.00  0.00    -0.057 SA
BRANCH   6   8
ATOM      8  N   UNL d   1      52.832  34.295  53.880  0.00  0.00    -0.290 N 
ATOM      9  C   UNL d   1      52.927  35.110  53.787  0.00  0.00     0.108 A 
ATOM     10  C   UNL d   1      53.258  35.562  54.396  0.00  0.00     0.142 A 
ATOM     11  O   UNL d   1      53.491  35.189  55.093  0.00  0.00    -0.300 OA
ATOM     12  C   UNL d   1      53.396  34.376  55.187  0.00  0.00     0.142 A 
ATOM     13  C   UNL d   1      53.067  33.934  54.579  0.00  0.00     0.108 A 
ENDBRANCH   6   8
ENDBRANCH   1   6
BRANCH   3  14
ATOM     14  C   UNL d   1      49.769  34.552  52.608  0.00  0.00     0.023 A 
ATOM     15  C   UNL d   1      49.396  35.068  53.133  0.00  0.00     0.003 A 
ATOM     16  C   UNL d   1      48.730  35.480  52.902  0.00  0.00     0.007 A 
ATOM     17  C   UNL d   1      48.422  35.384  52.140  0.00  0.00     0.035 A 
ATOM     18  C   UNL d   1      48.794  34.867  51.611  0.00  0.00     0.007 A 
ATOM     19 BR   UNL d   1      47.749  35.801  51.907  0.00  0.00    -0.049 Br
ATOM     20  C   UNL d   1      49.457  34.457  51.842  0.00  0.00     0.003 A 
ENDBRANCH   3  14
TORSDOF 3
ENDMDL
