MODEL 1
REMARK VINA RESULT:      71.4      0.000      0.000
REMARK  6 active torsions:
REMARK  status: ('A' for Active; 'I' for Inactive)
REMARK       I    between atoms: C_2  and  N_1 
REMARK    1  A    between atoms: C_3  and  C_2 
REMARK    2  A    between atoms: C_12  and  C_4 
REMARK       I    between atoms: C_5  and  N_8 
REMARK    3  A    between atoms: C_6  and  C_5 
REMARK       I    between atoms: N_9  and  C_6 
REMARK    4  A    between atoms: N_8  and  C_12 
REMARK    5  A    between atoms: C_19  and  N_9 
REMARK    6  A    between atoms: C_20  and  C_19 
ROOT
ATOM      1  C   UNL d   1     -54.910-100.147 -40.989  0.00  0.00     0.337 C 
ATOM      2  N   UNL d   1     -55.030 -99.970 -41.781  0.00  0.00    -0.199 NA
ATOM      3  O   UNL d   1     -54.728 -99.545 -40.459  0.00  0.00    -0.260 OA
ENDROOT
BRANCH   2   4
ATOM      4  C   UNL d   1     -55.212-100.572 -42.311  0.00  0.00     0.146 C 
BRANCH   4   5
ATOM      5  C   UNL d   1     -55.450-100.380 -43.085  0.00  0.00     0.190 A 
ATOM      6  N   UNL d   1     -55.414-100.892 -43.728  0.00  0.00    -0.250 N 
ATOM      7  C   UNL d   1     -55.157-101.677 -43.802  0.00  0.00     0.272 C 
ATOM      8  C   UNL d   1     -55.702-100.476 -44.382  0.00  0.00     0.112 A 
ATOM      9  O   UNL d   1     -54.870-102.080 -43.139  0.00  0.00    -0.266 OA
ATOM     10  C   UNL d   1     -55.912 -99.720 -44.138  0.00  0.00     0.144 A 
ATOM     11  O   UNL d   1     -55.750 -99.669 -43.326  0.00  0.00    -0.285 OA
BRANCH   7  12
ATOM     12  C   UNL d   1     -55.185-102.057 -44.531  0.00  0.00     0.086 A 
ATOM     13  S   UNL d   1     -55.626-102.709 -44.791  0.00  0.00    -0.082 SA
ATOM     14  C   UNL d   1     -55.423-102.846 -45.592  0.00  0.00     0.036 A 
ATOM     15  C   UNL d   1     -54.864-102.279 -45.807  0.00  0.00     0.008 A 
ATOM     16  C   UNL d   1     -54.714-101.793 -45.161  0.00  0.00     0.012 A 
ENDBRANCH   7  12
ENDBRANCH   4   5
ENDBRANCH   2   4
BRANCH   1  17
ATOM     17  C   UNL d   1     -54.971-100.928 -40.715  0.00  0.00     0.337 C 
ATOM     18  N   UNL d   1     -54.902-101.097 -39.916  0.00  0.00    -0.202 NA
ATOM     19  O   UNL d   1     -55.103-101.536 -41.253  0.00  0.00    -0.260 OA
BRANCH  18  20
ATOM     20  C   UNL d   1     -54.959-101.857 -39.628  0.00  0.00     0.102 C 
BRANCH  20  21
ATOM     21  C   UNL d   1     -54.994-102.011 -38.814  0.00  0.00     0.019 A 
ATOM     22  C   UNL d   1     -54.713-101.467 -38.285  0.00  0.00     0.002 A 
ATOM     23  C   UNL d   1     -54.743-101.610 -37.478  0.00  0.00     0.000 A 
ATOM     24  C   UNL d   1     -55.067-102.325 -37.192  0.00  0.00     0.000 A 
ATOM     25  C   UNL d   1     -55.350-102.874 -37.730  0.00  0.00     0.000 A 
ATOM     26  C   UNL d   1     -55.094-102.465 -36.364  0.00  0.00     0.000 C 
ATOM     27  C   UNL d   1     -55.310-102.709 -38.539  0.00  0.00     0.002 A 
ENDBRANCH  20  21
ENDBRANCH  18  20
ENDBRANCH   1  17
TORSDOF 6
ENDMDL
