MODEL 1
REMARK VINA RESULT:      99.1      0.000      0.000
REMARK  3 active torsions:
REMARK  status: ('A' for Active; 'I' for Inactive)
REMARK       I    between atoms: C_4  and  N_1 
REMARK    1  A    between atoms: C_7  and  C_3 
REMARK    2  A    between atoms: C_8  and  C_4 
REMARK    3  A    between atoms: C_13  and  C_5 
ROOT
ATOM      1  N   UNL d   1     -56.765 -99.773 -45.176  0.00  0.00    -0.194 N 
ATOM      2  N   UNL d   1     -57.288 -99.774 -45.802  0.00  0.00    -0.163 NA
ATOM      3  C   UNL d   1     -57.053 -99.253 -44.601  0.00  0.00     0.091 A 
ATOM      4  C   UNL d   1     -56.045-100.222 -45.111  0.00  0.00     0.286 C 
ATOM      5  C   UNL d   1     -57.902 -99.254 -45.616  0.00  0.00     0.103 A 
ATOM      6  C   UNL d   1     -57.754 -98.936 -44.878  0.00  0.00     0.040 A 
ATOM      7  O   UNL d   1     -55.834-100.720 -45.740  0.00  0.00    -0.265 OA
ENDROOT
BRANCH   3   8
ATOM      8  C   UNL d   1     -56.688 -99.087 -43.873  0.00  0.00     0.057 A 
ATOM      9  C   UNL d   1     -57.132 -99.081 -43.191  0.00  0.00     0.197 A 
ATOM     10  O   UNL d   1     -57.929 -99.236 -43.215  0.00  0.00    -0.286 OA
ATOM     11  C   UNL d   1     -56.768 -98.915 -42.463  0.00  0.00     0.042 A 
ATOM     12  C   UNL d   1     -55.961 -98.755 -42.414  0.00  0.00     0.003 A 
ATOM     13  C   UNL d   1     -55.529 -98.766 -43.116  0.00  0.00     0.000 A 
ATOM     14  C   UNL d   1     -55.880 -98.926 -43.824  0.00  0.00     0.005 A 
ENDBRANCH   3   8
BRANCH   4  15
ATOM     15  C   UNL d   1     -55.582-100.164 -44.457  0.00  0.00     0.087 A 
ATOM     16  S   UNL d   1     -55.079 -99.561 -44.299  0.00  0.00    -0.082 SA
ATOM     17  C   UNL d   1     -54.711 -99.724 -43.566  0.00  0.00     0.036 A 
ATOM     18  C   UNL d   1     -55.010-100.449 -43.287  0.00  0.00     0.008 A 
ATOM     19  C   UNL d   1     -55.547-100.719 -43.837  0.00  0.00     0.012 A 
ENDBRANCH   4  15
BRANCH   5  20
ATOM     20  C   UNL d   1     -58.551 -99.088 -46.098  0.00  0.00     0.019 A 
ATOM     21  C   UNL d   1     -59.308 -99.010 -45.758  0.00  0.00     0.002 A 
ATOM     22  C   UNL d   1     -59.961 -98.844 -46.237  0.00  0.00     0.000 A 
ATOM     23  C   UNL d   1     -59.864 -98.755 -47.054  0.00  0.00     0.000 A 
ATOM     24  C   UNL d   1     -59.107 -98.833 -47.394  0.00  0.00     0.000 A 
ATOM     25  C   UNL d   1     -58.458 -98.999 -46.912  0.00  0.00     0.002 A 
ENDBRANCH   5  20
TORSDOF 3
ENDMDL
