MODEL 1
REMARK VINA RESULT:      47.8      0.000      0.000
REMARK  6 active torsions:
REMARK  status: ('A' for Active; 'I' for Inactive)
REMARK    1  A    between atoms: C_12  and  C_3 
REMARK    2  A    between atoms: N_16  and  C_4 
REMARK    3  A    between atoms: N_11  and  C_23 
REMARK    4  A    between atoms: C_26  and  N_16 
REMARK    5  A    between atoms: C_23  and  C_24 
REMARK    6  A    between atoms: C_24  and  C_26 
ROOT
ATOM      1  C   UNL d   1      13.651  14.040  -3.709  0.00  0.00     0.168 A 
ATOM      2  N   UNL d   1      13.730  13.552  -3.016  0.00  0.00    -0.184 N 
ATOM      3  C   UNL d   1      13.854  14.825  -3.679  0.00  0.00     0.057 A 
ATOM      4  C   UNL d   1      13.523  12.773  -3.065  0.00  0.00     0.218 A 
ATOM      5  N   UNL d   1      14.217  14.678  -2.295  0.00  0.00    -0.160 NA
ATOM      6  N   UNL d   1      13.371  13.717  -4.404  0.00  0.00    -0.227 NA
ATOM      7  C   UNL d   1      13.239  12.437  -3.761  0.00  0.00     0.071 A 
ATOM      8  C   UNL d   1      14.140  15.151  -2.966  0.00  0.00     0.124 A 
ATOM      9  C   UNL d   1      13.162  12.917  -4.444  0.00  0.00     0.087 A 
ATOM     10  C   UNL d   1      12.866  12.576  -5.176  0.00  0.00     0.021 C 
ENDROOT
BRANCH   4  11
ATOM     11  N   UNL d   1      13.602  12.277  -2.366  0.00  0.00    -0.380 NA
BRANCH  11  12
ATOM     12  C   UNL d   1      13.606  11.780  -1.666  0.00  0.00     0.164 C 
BRANCH  12  13
ATOM     13  C   UNL d   1      13.300  12.089  -0.936  0.00  0.00     0.054 C 
BRANCH  13  14
ATOM     14  C   UNL d   1      13.743  11.977  -0.214  0.00  0.00     0.084 C 
BRANCH  14  15
ATOM     15  N   UNL d   1      14.537  12.305  -0.141  0.00  0.00    -0.285 N 
ATOM     16  C   UNL d   1      14.741  13.134  -0.075  0.00  0.00     0.183 A 
ATOM     17  N   UNL d   1      15.589  13.195  -0.015  0.00  0.00    -0.222 NA
ATOM     18  C   UNL d   1      15.910  12.401  -0.043  0.00  0.00     0.120 A 
ATOM     19  C   UNL d   1      15.265  11.854  -0.121  0.00  0.00     0.102 A 
ENDBRANCH  14  15
ENDBRANCH  13  14
ENDBRANCH  12  13
ENDBRANCH  11  12
ENDBRANCH   4  11
BRANCH   3  20
ATOM     20  C   UNL d   1      13.778  15.298  -4.351  0.00  0.00     0.005 A 
ATOM     21  C   UNL d   1      14.426  15.698  -4.640  0.00  0.00     0.001 A 
ATOM     22  C   UNL d   1      14.349  16.171  -5.312  0.00  0.00     0.011 A 
ATOM     23  C   UNL d   1      13.626  16.236  -5.683  0.00  0.00     0.058 A 
ATOM     24  C   UNL d   1      12.979  15.828  -5.382  0.00  0.00     0.011 A 
ATOM     25 CL   UNL d   1      13.546  16.732  -6.387  0.00  0.00    -0.082 Cl
ATOM     26  C   UNL d   1      13.055  15.362  -4.721  0.00  0.00     0.001 A 
ENDBRANCH   3  20
TORSDOF 6
ENDMDL
