MODEL 1
REMARK VINA RESULT:      14.3      0.000      0.000
REMARK  2 active torsions:
REMARK  status: ('A' for Active; 'I' for Inactive)
REMARK    1  A    between atoms: N_2  and  S_1 
REMARK    2  A    between atoms: C_3  and  S_1 
ROOT
ATOM      1  S   UNL d   1      44.238 -15.363  36.716  0.00  0.00     0.272 S 
ATOM      2  O   UNL d   1      43.985 -14.663  36.360  0.00  0.00    -0.200 OA
ATOM      3  O   UNL d   1      44.495 -16.060  37.072  0.00  0.00    -0.200 OA
ENDROOT
BRANCH   1   4
ATOM      4  N   UNL d   1      44.991 -15.040  36.814  0.00  0.00    -0.225 N 
ATOM      5  C   UNL d   1      45.701 -15.410  36.392  0.00  0.00     0.118 A 
ATOM      6  C   UNL d   1      46.528 -15.056  36.500  0.00  0.00     0.142 A 
ATOM      7  O   UNL d   1      46.647 -14.331  37.029  0.00  0.00    -0.300 OA
ATOM      8  C   UNL d   1      45.936 -13.961  37.451  0.00  0.00     0.142 A 
ATOM      9  C   UNL d   1      45.108 -14.315  37.344  0.00  0.00     0.118 A 
ENDBRANCH   1   4
BRANCH   1  10
ATOM     10  C   UNL d   1      43.487 -15.688  36.619  0.00  0.00     0.104 A 
ATOM     11  C   UNL d   1      42.819 -15.213  36.697  0.00  0.00     0.015 A 
ATOM     12  C   UNL d   1      42.062 -15.536  36.601  0.00  0.00     0.028 A 
ATOM     13  C   UNL d   1      41.391 -15.062  36.679  0.00  0.00     0.002 C 
ATOM     14  C   UNL d   1      41.984 -16.338  36.427  0.00  0.00     0.140 A 
ATOM     15  C   UNL d   1      42.655 -16.811  36.350  0.00  0.00     0.030 A 
ATOM     16  F   UNL d   1      41.234 -16.668  36.330  0.00  0.00    -0.204 F 
ATOM     17  C   UNL d   1      43.408 -16.490  36.445  0.00  0.00     0.015 A 
ENDBRANCH   1  10
TORSDOF 2
ENDMDL
MODEL 2
REMARK VINA RESULT:      16.6      7.726      8.243
REMARK  2 active torsions:
REMARK  status: ('A' for Active; 'I' for Inactive)
REMARK    1  A    between atoms: N_2  and  S_1 
REMARK    2  A    between atoms: C_3  and  S_1 
ROOT
ATOM      1  S   UNL d   1      45.946 -16.848  44.224  0.00  0.00     0.272 S 
ATOM      2  O   UNL d   1      46.253 -16.618  43.494  0.00  0.00    -0.200 OA
ATOM      3  O   UNL d   1      45.638 -17.074  44.954  0.00  0.00    -0.200 OA
ENDROOT
BRANCH   1   4
ATOM      4  N   UNL d   1      45.769 -16.062  44.398  0.00  0.00    -0.225 N 
ATOM      5  C   UNL d   1      46.374 -15.412  44.224  0.00  0.00     0.118 A 
ATOM      6  C   UNL d   1      46.179 -14.547  44.415  0.00  0.00     0.142 A 
ATOM      7  O   UNL d   1      45.380 -14.332  44.780  0.00  0.00    -0.300 OA
ATOM      8  C   UNL d   1      44.774 -14.982  44.954  0.00  0.00     0.142 A 
ATOM      9  C   UNL d   1      44.968 -15.847  44.763  0.00  0.00     0.118 A 
ENDBRANCH   1   4
BRANCH   1  10
ATOM     10  C   UNL d   1      46.121 -17.635  44.054  0.00  0.00     0.104 A 
ATOM     11  C   UNL d   1      46.174 -17.885  43.271  0.00  0.00     0.015 A 
ATOM     12  C   UNL d   1      46.350 -18.676  43.095  0.00  0.00     0.028 A 
ATOM     13  C   UNL d   1      46.404 -18.929  42.311  0.00  0.00     0.002 C 
ATOM     14  C   UNL d   1      46.471 -19.210  43.712  0.00  0.00     0.140 A 
ATOM     15  C   UNL d   1      46.417 -18.956  44.494  0.00  0.00     0.030 A 
ATOM     16  F   UNL d   1      46.647 -19.999  43.545  0.00  0.00    -0.204 F 
ATOM     17  C   UNL d   1      46.242 -18.170  44.670  0.00  0.00     0.015 A 
ENDBRANCH   1  10
TORSDOF 2
ENDMDL
MODEL 3
REMARK VINA RESULT:      16.6      7.647      8.391
REMARK  2 active torsions:
REMARK  status: ('A' for Active; 'I' for Inactive)
REMARK    1  A    between atoms: N_2  and  S_1 
REMARK    2  A    between atoms: C_3  and  S_1 
ROOT
ATOM      1  S   UNL d   1      45.787 -16.541  44.280  0.00  0.00     0.272 S 
ATOM      2  O   UNL d   1      46.262 -16.547  44.955  0.00  0.00    -0.200 OA
ATOM      3  O   UNL d   1      45.314 -16.541  43.606  0.00  0.00    -0.200 OA
ENDROOT
BRANCH   1   4
ATOM      4  N   UNL d   1      46.021 -17.314  44.110  0.00  0.00    -0.225 N 
ATOM      5  C   UNL d   1      46.276 -17.868  44.778  0.00  0.00     0.118 A 
ATOM      6  C   UNL d   1      46.533 -18.717  44.591  0.00  0.00     0.142 A 
ATOM      7  O   UNL d   1      46.535 -19.013  43.735  0.00  0.00    -0.300 OA
ATOM      8  C   UNL d   1      46.280 -18.457  43.066  0.00  0.00     0.142 A 
ATOM      9  C   UNL d   1      46.023 -17.608  43.254  0.00  0.00     0.118 A 
ENDBRANCH   1   4
BRANCH   1  10
ATOM     10  C   UNL d   1      45.551 -15.770  44.447  0.00  0.00     0.104 A 
ATOM     11  C   UNL d   1      46.051 -15.140  44.273  0.00  0.00     0.015 A 
ATOM     12  C   UNL d   1      45.818 -14.362  44.439  0.00  0.00     0.028 A 
ATOM     13  C   UNL d   1      46.317 -13.728  44.265  0.00  0.00     0.002 C 
ATOM     14  C   UNL d   1      45.080 -14.225  44.781  0.00  0.00     0.140 A 
ATOM     15  C   UNL d   1      44.582 -14.859  44.955  0.00  0.00     0.030 A 
ATOM     16  F   UNL d   1      44.840 -13.454  44.950  0.00  0.00    -0.204 F 
ATOM     17  C   UNL d   1      44.813 -15.632  44.790  0.00  0.00     0.015 A 
ENDBRANCH   1  10
TORSDOF 2
ENDMDL
MODEL 4
REMARK VINA RESULT:      16.6      7.540      8.318
REMARK  2 active torsions:
REMARK  status: ('A' for Active; 'I' for Inactive)
REMARK    1  A    between atoms: N_2  and  S_1 
REMARK    2  A    between atoms: C_3  and  S_1 
ROOT
ATOM      1  S   UNL d   1      45.799 -15.365  44.270  0.00  0.00     0.272 S 
ATOM      2  O   UNL d   1      45.084 -15.434  44.675  0.00  0.00    -0.200 OA
ATOM      3  O   UNL d   1      46.514 -15.302  43.866  0.00  0.00    -0.200 OA
ENDROOT
BRANCH   1   4
ATOM      4  N   UNL d   1      45.843 -16.187  44.208  0.00  0.00    -0.225 N 
ATOM      5  C   UNL d   1      45.905 -16.695  44.954  0.00  0.00     0.118 A 
ATOM      6  C   UNL d   1      45.954 -17.598  44.886  0.00  0.00     0.142 A 
ATOM      7  O   UNL d   1      45.939 -17.993  44.072  0.00  0.00    -0.300 OA
ATOM      8  C   UNL d   1      45.877 -17.484  43.325  0.00  0.00     0.142 A 
ATOM      9  C   UNL d   1      45.829 -16.581  43.393  0.00  0.00     0.118 A 
ENDBRANCH   1   4
BRANCH   1  10
ATOM     10  C   UNL d   1      45.759 -14.544  44.330  0.00  0.00     0.104 A 
ATOM     11  C   UNL d   1      45.269 -14.118  43.825  0.00  0.00     0.015 A 
ATOM     12  C   UNL d   1      45.225 -13.293  43.881  0.00  0.00     0.028 A 
ATOM     13  C   UNL d   1      44.734 -12.863  43.376  0.00  0.00     0.002 C 
ATOM     14  C   UNL d   1      45.678 -12.902  44.450  0.00  0.00     0.140 A 
ATOM     15  C   UNL d   1      46.168 -13.332  44.954  0.00  0.00     0.030 A 
ATOM     16  F   UNL d   1      45.640 -12.080  44.513  0.00  0.00    -0.204 F 
ATOM     17  C   UNL d   1      46.211 -14.153  44.898  0.00  0.00     0.015 A 
ENDBRANCH   1  10
TORSDOF 2
ENDMDL
