MODEL 1
REMARK VINA RESULT:      -2.1      0.000      0.000
REMARK  5 active torsions:
REMARK  status: ('A' for Active; 'I' for Inactive)
REMARK    1  A    between atoms: C_14  and  C_4 
REMARK    2  A    between atoms: S_11  and  C_5 
REMARK    3  A    between atoms: C_10  and  C_12 
REMARK    4  A    between atoms: C_15  and  S_11 
REMARK    5  A    between atoms: C_12  and  C_15 
ROOT
ATOM      1  N   UNL d   1      58.077   0.322  30.902  0.00  0.00    -0.206 N 
ATOM      2  C   UNL d   1      58.789   0.251  30.483  0.00  0.00     0.166 A 
ATOM      3  N   UNL d   1      57.360   0.016  29.725  0.00  0.00    -0.163 NA
ATOM      4  C   UNL d   1      58.789   0.064  29.692  0.00  0.00     0.055 A 
ATOM      5  C   UNL d   1      58.102   0.509  31.690  0.00  0.00     0.116 A 
ATOM      6  C   UNL d   1      58.061  -0.053  29.313  0.00  0.00     0.104 A 
ATOM      7  N   UNL d   1      59.508   0.369  30.863  0.00  0.00    -0.227 NA
ATOM      8  C   UNL d   1      58.809   0.630  32.086  0.00  0.00     0.045 A 
ATOM      9  C   UNL d   1      59.518   0.559  31.670  0.00  0.00     0.085 A 
ATOM     10  C   UNL d   1      58.062  -0.239  28.524  0.00  0.00     0.023 C 
ATOM     11  C   UNL d   1      60.266   0.682  32.066  0.00  0.00     0.021 C 
ENDROOT
BRANCH   5  12
ATOM     12  S   UNL d   1      57.367   0.582  32.122  0.00  0.00    -0.064 SA
BRANCH  12  13
ATOM     13  C   UNL d   1      56.816   0.682  32.759  0.00  0.00     0.079 C 
BRANCH  13  14
ATOM     14  C   UNL d   1      56.126   0.202  32.802  0.00  0.00     0.208 C 
ATOM     15  O   UNL d   1      56.000  -0.411  32.236  0.00  0.00    -0.285 OA
BRANCH  14  16
ATOM     16  C   UNL d   1      55.552   0.333  33.414  0.00  0.00     0.069 A 
ATOM     17  S   UNL d   1      55.731   0.570  34.212  0.00  0.00    -0.083 SA
ATOM     18  C   UNL d   1      54.996   0.634  34.628  0.00  0.00     0.035 A 
ATOM     19  C   UNL d   1      54.370   0.440  34.097  0.00  0.00     0.008 A 
ATOM     20  C   UNL d   1      54.721   0.253  33.342  0.00  0.00     0.010 A 
ENDBRANCH  14  16
ENDBRANCH  13  14
ENDBRANCH  12  13
ENDBRANCH   5  12
BRANCH   4  21
ATOM     21  C   UNL d   1      59.490  -0.005  29.280  0.00  0.00     0.004 A 
ATOM     22  C   UNL d   1      59.785   0.627  28.872  0.00  0.00     0.000 A 
ATOM     23  C   UNL d   1      60.475   0.571  28.462  0.00  0.00     0.000 A 
ATOM     24  C   UNL d   1      60.892  -0.144  28.455  0.00  0.00     0.000 A 
ATOM     25  C   UNL d   1      60.593  -0.777  28.866  0.00  0.00     0.000 A 
ATOM     26  C   UNL d   1      59.892  -0.707  29.278  0.00  0.00     0.000 A 
ENDBRANCH   4  21
TORSDOF 5
ENDMDL
