MODEL 1
REMARK VINA RESULT:      40.5      0.000      0.000
REMARK  7 active torsions:
REMARK  status: ('A' for Active; 'I' for Inactive)
REMARK    1  A    between atoms: N_6  and  C_1 
REMARK    2  A    between atoms: S_9  and  C_3 
REMARK       I    between atoms: C_7  and  N_6 
REMARK    3  A    between atoms: C_14  and  C_7 
REMARK    4  A    between atoms: C_8  and  C_13 
REMARK       I    between atoms: N_10  and  C_8 
REMARK    5  A    between atoms: C_13  and  S_9 
REMARK    6  A    between atoms: C_15  and  N_10 
REMARK    7  A    between atoms: C_22  and  C_14 
ROOT
ATOM      1  C   UNL d   1     -54.935-100.841 -44.291  0.00  0.00     0.219 A 
ATOM      2  S   UNL d   1     -55.297-100.110 -44.239  0.00  0.00    -0.019 SA
ATOM      3  C   UNL d   1     -55.313 -99.790 -44.957  0.00  0.00     0.165 A 
ATOM      4  N   UNL d   1     -54.731-100.943 -45.090  0.00  0.00    -0.120 NA
ATOM      5  N   UNL d   1     -54.958-100.311 -45.491  0.00  0.00    -0.133 NA
ENDROOT
BRANCH   3   6
ATOM      6  S   UNL d   1     -55.658 -99.027 -45.073  0.00  0.00    -0.054 SA
BRANCH   6   7
ATOM      7  C   UNL d   1     -56.464 -98.913 -44.929  0.00  0.00     0.100 C 
BRANCH   7   8
ATOM      8  C   UNL d   1     -56.995 -98.832 -45.556  0.00  0.00     0.286 C 
ATOM      9  N   UNL d   1     -57.783 -98.755 -45.414  0.00  0.00    -0.208 NA
ATOM     10  O   UNL d   1     -56.710 -98.831 -46.354  0.00  0.00    -0.265 OA
BRANCH   9  11
ATOM     11  C   UNL d   1     -58.065 -98.758 -44.608  0.00  0.00     0.085 A 
ATOM     12  C   UNL d   1     -58.874 -98.761 -44.495  0.00  0.00     0.021 A 
ATOM     13  C   UNL d   1     -59.159 -98.763 -43.721  0.00  0.00     0.031 A 
ATOM     14  C   UNL d   1     -58.659 -98.762 -43.084  0.00  0.00     0.140 A 
ATOM     15  C   UNL d   1     -57.827 -98.759 -43.206  0.00  0.00     0.031 A 
ATOM     16  F   UNL d   1     -58.925 -98.764 -42.376  0.00  0.00    -0.204 F 
ATOM     17  C   UNL d   1     -57.530 -98.757 -43.979  0.00  0.00     0.021 A 
ENDBRANCH   9  11
ENDBRANCH   7   8
ENDBRANCH   6   7
ENDBRANCH   3   6
BRANCH   1  18
ATOM     18  N   UNL d   1     -54.781-101.400 -43.691  0.00  0.00    -0.181 NA
ATOM     19  C   UNL d   1     -55.083-101.799 -43.007  0.00  0.00     0.281 C 
ATOM     20  O   UNL d   1     -55.845-101.627 -42.749  0.00  0.00    -0.265 OA
BRANCH  19  21
ATOM     21  C   UNL d   1     -54.713-102.365 -42.534  0.00  0.00     0.063 C 
BRANCH  21  22
ATOM     22  C   UNL d   1     -54.768-102.258 -41.642  0.00  0.00     0.005 C 
ATOM     23  C   UNL d   1     -54.713-101.472 -41.361  0.00  0.00     0.000 C 
ATOM     24  C   UNL d   1     -54.848-102.725 -41.145  0.00  0.00     0.000 C 
ENDBRANCH  21  22
ENDBRANCH  19  21
ENDBRANCH   1  18
TORSDOF 7
ENDMDL
MODEL 2
REMARK VINA RESULT:      40.9      1.246      1.546
REMARK  7 active torsions:
REMARK  status: ('A' for Active; 'I' for Inactive)
REMARK    1  A    between atoms: N_6  and  C_1 
REMARK    2  A    between atoms: S_9  and  C_3 
REMARK       I    between atoms: C_7  and  N_6 
REMARK    3  A    between atoms: C_14  and  C_7 
REMARK    4  A    between atoms: C_8  and  C_13 
REMARK       I    between atoms: N_10  and  C_8 
REMARK    5  A    between atoms: C_13  and  S_9 
REMARK    6  A    between atoms: C_15  and  N_10 
REMARK    7  A    between atoms: C_22  and  C_14 
ROOT
ATOM      1  C   UNL d   1     -55.132-100.640 -44.261  0.00  0.00     0.219 A 
ATOM      2  S   UNL d   1     -55.595 -99.970 -44.190  0.00  0.00    -0.019 SA
ATOM      3  C   UNL d   1     -55.563 -99.573 -44.868  0.00  0.00     0.165 A 
ATOM      4  N   UNL d   1     -54.816-100.623 -45.030  0.00  0.00    -0.120 NA
ATOM      5  N   UNL d   1     -55.075 -99.982 -45.394  0.00  0.00    -0.133 NA
ENDROOT
BRANCH   3   6
ATOM      6  S   UNL d   1     -55.992 -98.850 -44.955  0.00  0.00    -0.054 SA
BRANCH   6   7
ATOM      7  C   UNL d   1     -56.798 -98.824 -44.776  0.00  0.00     0.100 C 
BRANCH   7   8
ATOM      8  C   UNL d   1     -57.052 -98.783 -43.992  0.00  0.00     0.286 C 
ATOM      9  N   UNL d   1     -57.838 -98.757 -43.819  0.00  0.00    -0.208 NA
ATOM     10  O   UNL d   1     -56.484 -98.768 -43.363  0.00  0.00    -0.265 OA
BRANCH   9  11
ATOM     11  C   UNL d   1     -58.406 -98.773 -44.456  0.00  0.00     0.085 A 
ATOM     12  C   UNL d   1     -58.113 -98.757 -45.219  0.00  0.00     0.021 A 
ATOM     13  C   UNL d   1     -58.651 -98.772 -45.843  0.00  0.00     0.031 A 
ATOM     14  C   UNL d   1     -59.450 -98.801 -45.715  0.00  0.00     0.140 A 
ATOM     15  C   UNL d   1     -59.747 -98.818 -44.928  0.00  0.00     0.031 A 
ATOM     16  F   UNL d   1     -59.940 -98.815 -46.291  0.00  0.00    -0.204 F 
ATOM     17  C   UNL d   1     -59.215 -98.804 -44.293  0.00  0.00     0.021 A 
ENDBRANCH   9  11
ENDBRANCH   7   8
ENDBRANCH   6   7
ENDBRANCH   3   6
BRANCH   1  18
ATOM     18  N   UNL d   1     -54.981-101.243 -43.704  0.00  0.00    -0.181 NA
ATOM     19  C   UNL d   1     -54.856-101.429 -42.887  0.00  0.00     0.281 C 
ATOM     20  O   UNL d   1     -54.874-100.822 -42.331  0.00  0.00    -0.265 OA
BRANCH  19  21
ATOM     21  C   UNL d   1     -54.712-102.164 -42.541  0.00  0.00     0.063 C 
BRANCH  21  22
ATOM     22  C   UNL d   1     -55.049-102.309 -41.719  0.00  0.00     0.005 C 
ATOM     23  C   UNL d   1     -54.713-101.860 -41.099  0.00  0.00     0.000 C 
ATOM     24  C   UNL d   1     -55.546-102.736 -41.514  0.00  0.00     0.000 C 
ENDBRANCH  21  22
ENDBRANCH  19  21
ENDBRANCH   1  18
TORSDOF 7
ENDMDL
