MODEL 1
REMARK VINA RESULT:      -4.6      0.000      0.000
REMARK  4 active torsions:
REMARK  status: ('A' for Active; 'I' for Inactive)
REMARK    1  A    between atoms: N_3  and  C_1 
REMARK    2  A    between atoms: C_2  and  S_10 
REMARK    3  A    between atoms: N_5  and  C_9 
REMARK    4  A    between atoms: S_10  and  C_8 
ROOT
ATOM      1  C   UNL d   1      58.525   0.244  29.728  0.00  0.00     0.134 A 
ATOM      2  C   UNL d   1      59.349   0.162  29.672  0.00  0.00     0.048 A 
ATOM      3  C   UNL d   1      58.173   0.507  30.437  0.00  0.00     0.055 A 
ATOM      4  C   UNL d   1      59.843   0.339  30.321  0.00  0.00     0.128 A 
ATOM      5  C   UNL d   1      58.648   0.682  31.074  0.00  0.00     0.010 A 
ATOM      6  C   UNL d   1      59.468   0.602  31.025  0.00  0.00     0.024 A 
ENDROOT
BRANCH   3   7
ATOM      7  S   UNL d   1      57.373   0.591  30.506  0.00  0.00    -0.041 SA
BRANCH   7   8
ATOM      8  C   UNL d   1      56.956   0.242  31.273  0.00  0.00     0.215 A 
ATOM      9  N   UNL d   1      56.678   0.681  31.878  0.00  0.00    -0.214 NA
ATOM     10  C   UNL d   1      56.355   0.151  32.435  0.00  0.00     0.107 A 
ATOM     11  C   UNL d   1      55.984   0.260  33.177  0.00  0.00     0.021 A 
ATOM     12  C   UNL d   1      56.448  -0.611  32.149  0.00  0.00     0.120 A 
ATOM     13  C   UNL d   1      55.724  -0.394  33.595  0.00  0.00     0.002 A 
ATOM     14  C   UNL d   1      55.817  -1.146  33.308  0.00  0.00     0.002 A 
ATOM     15  C   UNL d   1      56.183  -1.263  32.576  0.00  0.00     0.026 A 
ATOM     16  O   UNL d   1      56.837  -0.548  31.396  0.00  0.00    -0.283 OA
ENDBRANCH   7   8
ENDBRANCH   3   7
BRANCH   1  17
ATOM     17  N   UNL d   1      58.069   0.060  29.069  0.00  0.00    -0.113 N 
ATOM     18  O   UNL d   1      57.631   0.594  28.663  0.00  0.00    -0.532 OA
ATOM     19  O   UNL d   1      58.018  -0.708  28.759  0.00  0.00    -0.532 OA
ENDBRANCH   1  17
BRANCH   4  20
ATOM     20  N   UNL d   1      60.659   0.266  30.289  0.00  0.00    -0.114 N 
ATOM     21  O   UNL d   1      61.133   0.503  29.627  0.00  0.00    -0.532 OA
ATOM     22  O   UNL d   1      61.127  -0.037  30.870  0.00  0.00    -0.532 OA
ENDBRANCH   4  20
TORSDOF 4
ENDMDL
MODEL 2
REMARK VINA RESULT:      -4.2      1.548      2.139
REMARK  4 active torsions:
REMARK  status: ('A' for Active; 'I' for Inactive)
REMARK    1  A    between atoms: N_3  and  C_1 
REMARK    2  A    between atoms: C_2  and  S_10 
REMARK    3  A    between atoms: N_5  and  C_9 
REMARK    4  A    between atoms: S_10  and  C_8 
ROOT
ATOM      1  C   UNL d   1      59.087  -0.411  29.370  0.00  0.00     0.134 A 
ATOM      2  C   UNL d   1      59.315  -1.170  29.120  0.00  0.00     0.048 A 
ATOM      3  C   UNL d   1      58.458  -0.313  29.908  0.00  0.00     0.055 A 
ATOM      4  C   UNL d   1      58.921  -1.849  29.402  0.00  0.00     0.128 A 
ATOM      5  C   UNL d   1      58.069  -0.972  30.187  0.00  0.00     0.010 A 
ATOM      6  C   UNL d   1      58.290  -1.729  29.943  0.00  0.00     0.024 A 
ENDROOT
BRANCH   3   7
ATOM      7  S   UNL d   1      58.225   0.418  30.159  0.00  0.00    -0.041 SA
BRANCH   7   8
ATOM      8  C   UNL d   1      57.777   0.480  30.983  0.00  0.00     0.215 A 
ATOM      9  N   UNL d   1      56.984   0.474  31.070  0.00  0.00    -0.214 NA
ATOM     10  C   UNL d   1      56.827   0.541  31.886  0.00  0.00     0.107 A 
ATOM     11  C   UNL d   1      56.119   0.567  32.331  0.00  0.00     0.021 A 
ATOM     12  C   UNL d   1      57.543   0.587  32.282  0.00  0.00     0.120 A 
ATOM     13  C   UNL d   1      56.159   0.637  33.145  0.00  0.00     0.002 A 
ATOM     14  C   UNL d   1      56.869   0.682  33.533  0.00  0.00     0.002 A 
ATOM     15  C   UNL d   1      57.574   0.657  33.102  0.00  0.00     0.026 A 
ATOM     16  O   UNL d   1      58.155   0.547  31.695  0.00  0.00    -0.283 OA
ENDBRANCH   7   8
ENDBRANCH   3   7
BRANCH   1  17
ATOM     17  N   UNL d   1      59.497   0.237  29.072  0.00  0.00    -0.113 N 
ATOM     18  O   UNL d   1      59.246   0.682  28.455  0.00  0.00    -0.532 OA
ATOM     19  O   UNL d   1      60.220   0.494  29.389  0.00  0.00    -0.532 OA
ENDBRANCH   1  17
BRANCH   4  20
ATOM     20  N   UNL d   1      59.128  -2.609  29.170  0.00  0.00    -0.114 N 
ATOM     21  O   UNL d   1      58.572  -3.199  28.921  0.00  0.00    -0.532 OA
ATOM     22  O   UNL d   1      59.876  -2.904  29.144  0.00  0.00    -0.532 OA
ENDBRANCH   4  20
TORSDOF 4
ENDMDL
MODEL 3
REMARK VINA RESULT:      -3.5      1.844      2.271
REMARK  4 active torsions:
REMARK  status: ('A' for Active; 'I' for Inactive)
REMARK    1  A    between atoms: N_3  and  C_1 
REMARK    2  A    between atoms: C_2  and  S_10 
REMARK    3  A    between atoms: N_5  and  C_9 
REMARK    4  A    between atoms: S_10  and  C_8 
ROOT
ATOM      1  C   UNL d   1      59.602  -0.812  29.237  0.00  0.00     0.134 A 
ATOM      2  C   UNL d   1      60.093  -1.456  29.054  0.00  0.00     0.048 A 
ATOM      3  C   UNL d   1      58.801  -0.933  29.436  0.00  0.00     0.055 A 
ATOM      4  C   UNL d   1      59.798  -2.237  29.065  0.00  0.00     0.128 A 
ATOM      5  C   UNL d   1      58.506  -1.692  29.449  0.00  0.00     0.010 A 
ATOM      6  C   UNL d   1      58.989  -2.337  29.268  0.00  0.00     0.024 A 
ENDROOT
BRANCH   3   7
ATOM      7  S   UNL d   1      58.311  -0.317  29.617  0.00  0.00    -0.041 SA
BRANCH   7   8
ATOM      8  C   UNL d   1      57.845  -0.347  30.432  0.00  0.00     0.215 A 
ATOM      9  N   UNL d   1      57.829   0.243  30.967  0.00  0.00    -0.214 NA
ATOM     10  C   UNL d   1      57.354  -0.015  31.602  0.00  0.00     0.107 A 
ATOM     11  C   UNL d   1      57.123   0.340  32.323  0.00  0.00     0.021 A 
ATOM     12  C   UNL d   1      57.088  -0.771  31.433  0.00  0.00     0.120 A 
ATOM     13  C   UNL d   1      56.640  -0.074  32.838  0.00  0.00     0.002 A 
ATOM     14  C   UNL d   1      56.379  -0.822  32.666  0.00  0.00     0.002 A 
ATOM     15  C   UNL d   1      56.602  -1.181  31.956  0.00  0.00     0.026 A 
ATOM     16  O   UNL d   1      57.407  -0.983  30.674  0.00  0.00    -0.283 OA
ENDBRANCH   7   8
ENDBRANCH   3   7
BRANCH   1  17
ATOM     17  N   UNL d   1      59.925  -0.056  29.217  0.00  0.00    -0.113 N 
ATOM     18  O   UNL d   1      59.737   0.498  28.670  0.00  0.00    -0.532 OA
ATOM     19  O   UNL d   1      60.485   0.207  29.770  0.00  0.00    -0.532 OA
ENDBRANCH   1  17
BRANCH   4  20
ATOM     20  N   UNL d   1      60.264  -2.888  28.888  0.00  0.00    -0.114 N 
ATOM     21  O   UNL d   1      59.986  -3.689  28.897  0.00  0.00    -0.532 OA
ATOM     22  O   UNL d   1      61.042  -2.867  28.683  0.00  0.00    -0.532 OA
ENDBRANCH   4  20
TORSDOF 4
ENDMDL
MODEL 4
REMARK VINA RESULT:      -2.8      1.797      4.103
REMARK  4 active torsions:
REMARK  status: ('A' for Active; 'I' for Inactive)
REMARK    1  A    between atoms: N_3  and  C_1 
REMARK    2  A    between atoms: C_2  and  S_10 
REMARK    3  A    between atoms: N_5  and  C_9 
REMARK    4  A    between atoms: S_10  and  C_8 
ROOT
ATOM      1  C   UNL d   1      56.467  -0.470  32.856  0.00  0.00     0.134 A 
ATOM      2  C   UNL d   1      56.656  -0.261  33.637  0.00  0.00     0.048 A 
ATOM      3  C   UNL d   1      56.850  -0.100  32.214  0.00  0.00     0.055 A 
ATOM      4  C   UNL d   1      57.232   0.322  33.797  0.00  0.00     0.128 A 
ATOM      5  C   UNL d   1      57.412   0.469  32.363  0.00  0.00     0.010 A 
ATOM      6  C   UNL d   1      57.605   0.682  33.137  0.00  0.00     0.024 A 
ENDROOT
BRANCH   3   7
ATOM      7  S   UNL d   1      56.676  -0.293  31.449  0.00  0.00    -0.041 SA
BRANCH   7   8
ATOM      8  C   UNL d   1      57.382  -0.327  30.831  0.00  0.00     0.215 A 
ATOM      9  N   UNL d   1      57.679   0.303  30.444  0.00  0.00    -0.214 NA
ATOM     10  C   UNL d   1      58.294   0.024  29.955  0.00  0.00     0.107 A 
ATOM     11  C   UNL d   1      58.814   0.402  29.421  0.00  0.00     0.021 A 
ATOM     12  C   UNL d   1      58.357  -0.786  30.059  0.00  0.00     0.120 A 
ATOM     13  C   UNL d   1      59.369  -0.044  29.017  0.00  0.00     0.002 A 
ATOM     14  C   UNL d   1      59.428  -0.846  29.124  0.00  0.00     0.002 A 
ATOM     15  C   UNL d   1      58.918  -1.227  29.650  0.00  0.00     0.026 A 
ATOM     16  O   UNL d   1      57.765  -1.010  30.627  0.00  0.00    -0.283 OA
ENDBRANCH   7   8
ENDBRANCH   3   7
BRANCH   1  17
ATOM     17  N   UNL d   1      55.895  -1.048  32.735  0.00  0.00    -0.113 N 
ATOM     18  O   UNL d   1      56.060  -1.817  32.580  0.00  0.00    -0.532 OA
ATOM     19  O   UNL d   1      55.082  -0.887  32.761  0.00  0.00    -0.532 OA
ENDBRANCH   1  17
BRANCH   4  20
ATOM     20  N   UNL d   1      57.436   0.544  34.560  0.00  0.00    -0.114 N 
ATOM     21  O   UNL d   1      58.233   0.663  34.825  0.00  0.00    -0.532 OA
ATOM     22  O   UNL d   1      56.920   0.682  35.163  0.00  0.00    -0.532 OA
ENDBRANCH   4  20
TORSDOF 4
ENDMDL
MODEL 5
REMARK VINA RESULT:      -1.9      1.772      4.467
REMARK  4 active torsions:
REMARK  status: ('A' for Active; 'I' for Inactive)
REMARK    1  A    between atoms: N_3  and  C_1 
REMARK    2  A    between atoms: C_2  and  S_10 
REMARK    3  A    between atoms: N_5  and  C_9 
REMARK    4  A    between atoms: S_10  and  C_8 
ROOT
ATOM      1  C   UNL d   1      57.223   0.393  33.127  0.00  0.00     0.134 A 
ATOM      2  C   UNL d   1      56.493   0.217  33.481  0.00  0.00     0.048 A 
ATOM      3  C   UNL d   1      57.305   0.380  32.297  0.00  0.00     0.055 A 
ATOM      4  C   UNL d   1      55.827   0.023  33.017  0.00  0.00     0.128 A 
ATOM      5  C   UNL d   1      56.659   0.192  31.838  0.00  0.00     0.010 A 
ATOM      6  C   UNL d   1      55.931   0.016  32.184  0.00  0.00     0.024 A 
ENDROOT
BRANCH   3   7
ATOM      7  S   UNL d   1      58.008   0.549  31.938  0.00  0.00    -0.041 SA
BRANCH   7   8
ATOM      8  C   UNL d   1      58.153   0.215  31.072  0.00  0.00     0.215 A 
ATOM      9  N   UNL d   1      58.132   0.654  30.407  0.00  0.00    -0.214 NA
ATOM     10  C   UNL d   1      58.290   0.141  29.769  0.00  0.00     0.107 A 
ATOM     11  C   UNL d   1      58.346   0.257  28.943  0.00  0.00     0.021 A 
ATOM     12  C   UNL d   1      58.406  -0.613  30.069  0.00  0.00     0.120 A 
ATOM     13  C   UNL d   1      58.514  -0.381  28.458  0.00  0.00     0.002 A 
ATOM     14  C   UNL d   1      58.628  -1.125  28.759  0.00  0.00     0.002 A 
ATOM     15  C   UNL d   1      58.575  -1.249  29.574  0.00  0.00     0.026 A 
ATOM     16  O   UNL d   1      58.317  -0.561  30.913  0.00  0.00    -0.283 OA
ENDBRANCH   7   8
ENDBRANCH   3   7
BRANCH   1  17
ATOM     17  N   UNL d   1      57.858   0.579  33.614  0.00  0.00    -0.113 N 
ATOM     18  O   UNL d   1      58.609   0.682  33.353  0.00  0.00    -0.532 OA
ATOM     19  O   UNL d   1      57.781   0.681  34.434  0.00  0.00    -0.532 OA
ENDBRANCH   1  17
BRANCH   4  20
ATOM     20  N   UNL d   1      55.096  -0.154  33.345  0.00  0.00    -0.114 N 
ATOM     21  O   UNL d   1      54.598   0.412  33.735  0.00  0.00    -0.532 OA
ATOM     22  O   UNL d   1      54.745  -0.879  33.347  0.00  0.00    -0.532 OA
ENDBRANCH   4  20
TORSDOF 4
ENDMDL
