MODEL 1
REMARK VINA RESULT:      29.1      0.000      0.000
REMARK  3 active torsions:
REMARK  status: ('A' for Active; 'I' for Inactive)
REMARK    1  A    between atoms: N_4  and  C_1 
REMARK       I    between atoms: C_8  and  N_4 
REMARK    2  A    between atoms: C_16  and  C_8 
REMARK       I    between atoms: C_9  and  N_10 
REMARK    3  A    between atoms: N_10  and  C_11 
ROOT
ATOM      1  C   UNL d   1     -54.713-102.179 -41.678  0.00  0.00     0.197 A 
ATOM      2  N   UNL d   1     -54.715-102.481 -42.417  0.00  0.00    -0.221 NA
ATOM      3  S   UNL d   1     -54.711-101.386 -41.695  0.00  0.00    -0.047 SA
ATOM      4  C   UNL d   1     -54.713-101.153 -42.458  0.00  0.00     0.051 A 
ATOM      5  C   UNL d   1     -54.715-101.842 -42.912  0.00  0.00     0.090 A 
ATOM      6  C   UNL d   1     -54.712-100.424 -42.831  0.00  0.00     0.027 A 
ATOM      7  C   UNL d   1     -54.714-100.369 -43.648  0.00  0.00     0.085 A 
ATOM      8  C   UNL d   1     -54.717-101.806 -43.742  0.00  0.00     0.021 A 
ATOM      9  C   UNL d   1     -54.717-101.057 -44.102  0.00  0.00     0.021 A 
ENDROOT
BRANCH   1  10
ATOM     10  N   UNL d   1     -54.712-102.656 -40.997  0.00  0.00    -0.183 NA
ATOM     11  C   UNL d   1     -54.767-102.342 -40.230  0.00  0.00     0.281 C 
ATOM     12  O   UNL d   1     -54.825-101.517 -40.148  0.00  0.00    -0.265 OA
BRANCH  11  13
ATOM     13  C   UNL d   1     -54.765-102.822 -39.587  0.00  0.00     0.063 C 
ATOM     14  C   UNL d   1     -54.935-102.522 -38.831  0.00  0.00     0.005 C 
ENDBRANCH  11  13
ENDBRANCH   1  10
BRANCH   7  15
ATOM     15  N   UNL d   1     -54.714 -99.624 -44.045  0.00  0.00    -0.208 NA
ATOM     16  C   UNL d   1     -55.271 -99.493 -44.631  0.00  0.00     0.279 C 
ATOM     17  O   UNL d   1     -55.826-100.079 -44.832  0.00  0.00    -0.265 OA
ATOM     18  C   UNL d   1     -55.298 -98.772 -45.042  0.00  0.00     0.068 C 
ENDBRANCH   7  15
TORSDOF 3
ENDMDL
MODEL 2
REMARK VINA RESULT:      30.2      2.010      5.437
REMARK  3 active torsions:
REMARK  status: ('A' for Active; 'I' for Inactive)
REMARK    1  A    between atoms: N_4  and  C_1 
REMARK       I    between atoms: C_8  and  N_4 
REMARK    2  A    between atoms: C_16  and  C_8 
REMARK       I    between atoms: C_9  and  N_10 
REMARK    3  A    between atoms: N_10  and  C_11 
ROOT
ATOM      1  C   UNL d   1     -55.226-102.521 -40.277  0.00  0.00     0.197 A 
ATOM      2  N   UNL d   1     -55.936-102.333 -39.962  0.00  0.00    -0.221 NA
ATOM      3  S   UNL d   1     -54.711-102.729 -39.711  0.00  0.00    -0.047 SA
ATOM      4  C   UNL d   1     -55.081-102.680 -39.006  0.00  0.00     0.051 A 
ATOM      5  C   UNL d   1     -55.851-102.431 -39.164  0.00  0.00     0.090 A 
ATOM      6  C   UNL d   1     -54.853-102.819 -38.232  0.00  0.00     0.027 A 
ATOM      7  C   UNL d   1     -55.377-102.715 -37.613  0.00  0.00     0.085 A 
ATOM      8  C   UNL d   1     -56.398-102.319 -38.548  0.00  0.00     0.021 A 
ATOM      9  C   UNL d   1     -56.148-102.466 -37.771  0.00  0.00     0.021 A 
ENDROOT
BRANCH   1  10
ATOM     10  N   UNL d   1     -55.076-102.493 -41.094  0.00  0.00    -0.183 NA
ATOM     11  C   UNL d   1     -55.026-101.779 -41.516  0.00  0.00     0.281 C 
ATOM     12  O   UNL d   1     -55.133-101.069 -41.098  0.00  0.00    -0.265 OA
BRANCH  11  13
ATOM     13  C   UNL d   1     -54.880-101.776 -42.304  0.00  0.00     0.063 C 
ATOM     14  C   UNL d   1     -55.486-101.615 -42.850  0.00  0.00     0.005 C 
ENDBRANCH  11  13
ENDBRANCH   1  10
BRANCH   7  15
ATOM     15  N   UNL d   1     -55.155-102.855 -36.810  0.00  0.00    -0.208 NA
ATOM     16  C   UNL d   1     -55.086-102.213 -36.306  0.00  0.00     0.279 C 
ATOM     17  O   UNL d   1     -55.230-101.440 -36.576  0.00  0.00    -0.265 OA
ATOM     18  C   UNL d   1     -54.869-102.315 -35.511  0.00  0.00     0.068 C 
ENDBRANCH   7  15
TORSDOF 3
ENDMDL
