MODEL 1
REMARK VINA RESULT:      -7.4      0.000      0.000
REMARK  2 active torsions:
REMARK  status: ('A' for Active; 'I' for Inactive)
REMARK    1  A    between atoms: C_8  and  N_2 
REMARK    2  A    between atoms: N_7  and  C_4 
ROOT
ATOM      1  C   UNL d   1     -48.506  12.837  23.123  0.00  0.00     0.358 A 
ATOM      2  N   UNL d   1     -48.416  13.650  23.002  0.00  0.00    -0.226 N 
ATOM      3  N   UNL d   1     -47.846  12.357  23.189  0.00  0.00    -0.174 NA
ATOM      4  C   UNL d   1     -47.092  12.681  23.134  0.00  0.00     0.158 A 
ATOM      5  C   UNL d   1     -47.665  13.982  22.946  0.00  0.00     0.271 A 
ATOM      6  C   UNL d   1     -47.001  13.494  23.013  0.00  0.00     0.099 A 
ATOM      7  O   UNL d   1     -49.266  12.510  23.179  0.00  0.00    -0.244 OA
ATOM      8  O   UNL d   1     -47.575  14.795  22.825  0.00  0.00    -0.266 OA
ENDROOT
BRANCH   2   9
ATOM      9  C   UNL d   1     -49.080  14.134  22.936  0.00  0.00     0.071 A 
ATOM     10  C   UNL d   1     -49.388  14.505  23.607  0.00  0.00     0.019 A 
ATOM     11  C   UNL d   1     -50.049  14.987  23.548  0.00  0.00     0.013 A 
ATOM     12  C   UNL d   1     -50.406  15.102  22.811  0.00  0.00     0.058 A 
ATOM     13  C   UNL d   1     -50.096  14.731  22.148  0.00  0.00     0.013 A 
ATOM     14 CL   UNL d   1     -51.064  15.583  22.750  0.00  0.00    -0.082 Cl
ATOM     15  C   UNL d   1     -49.434  14.248  22.206  0.00  0.00     0.019 A 
ENDBRANCH   2   9
BRANCH   4  16
ATOM     16  N   UNL d   1     -46.427  12.201  23.199  0.00  0.00    -0.285 N 
ATOM     17  C   UNL d   1     -45.727  12.425  22.820  0.00  0.00     0.108 A 
ATOM     18  C   UNL d   1     -45.059  11.946  22.883  0.00  0.00     0.142 A 
ATOM     19  O   UNL d   1     -45.088  11.239  23.327  0.00  0.00    -0.300 OA
ATOM     20  C   UNL d   1     -45.793  11.032  23.698  0.00  0.00     0.142 A 
ATOM     21  C   UNL d   1     -46.461  11.512  23.635  0.00  0.00     0.108 A 
ENDBRANCH   4  16
TORSDOF 2
ENDMDL
MODEL 2
REMARK VINA RESULT:      -7.2      1.947      4.331
REMARK  2 active torsions:
REMARK  status: ('A' for Active; 'I' for Inactive)
REMARK    1  A    between atoms: C_8  and  N_2 
REMARK    2  A    between atoms: N_7  and  C_4 
ROOT
ATOM      1  C   UNL d   1     -48.207  13.178  22.754  0.00  0.00     0.358 A 
ATOM      2  N   UNL d   1     -47.492  13.591  22.792  0.00  0.00    -0.226 N 
ATOM      3  N   UNL d   1     -48.917  13.584  22.790  0.00  0.00    -0.174 NA
ATOM      4  C   UNL d   1     -48.922  14.404  22.865  0.00  0.00     0.158 A 
ATOM      5  C   UNL d   1     -47.487  14.410  22.867  0.00  0.00     0.271 A 
ATOM      6  C   UNL d   1     -48.206  14.817  22.903  0.00  0.00     0.099 A 
ATOM      7  O   UNL d   1     -48.204  12.352  22.678  0.00  0.00    -0.244 OA
ATOM      8  O   UNL d   1     -46.772  14.824  22.905  0.00  0.00    -0.266 OA
ENDROOT
BRANCH   2   9
ATOM      9  C   UNL d   1     -46.776  13.183  22.756  0.00  0.00     0.071 A 
ATOM     10  C   UNL d   1     -46.565  12.667  23.365  0.00  0.00     0.019 A 
ATOM     11  C   UNL d   1     -45.855  12.258  23.334  0.00  0.00     0.013 A 
ATOM     12  C   UNL d   1     -45.350  12.364  22.688  0.00  0.00     0.058 A 
ATOM     13  C   UNL d   1     -45.565  12.878  22.086  0.00  0.00     0.013 A 
ATOM     14 CL   UNL d   1     -44.641  11.957  22.657  0.00  0.00    -0.082 Cl
ATOM     15  C   UNL d   1     -46.276  13.288  22.116  0.00  0.00     0.019 A 
ENDBRANCH   2   9
BRANCH   4  16
ATOM     16  N   UNL d   1     -49.634  14.814  22.901  0.00  0.00    -0.285 N 
ATOM     17  C   UNL d   1     -49.794  15.288  23.560  0.00  0.00     0.108 A 
ATOM     18  C   UNL d   1     -50.506  15.701  23.600  0.00  0.00     0.142 A 
ATOM     19  O   UNL d   1     -51.063  15.641  22.980  0.00  0.00    -0.300 OA
ATOM     20  C   UNL d   1     -50.887  15.165  22.333  0.00  0.00     0.142 A 
ATOM     21  C   UNL d   1     -50.174  14.752  22.293  0.00  0.00     0.108 A 
ENDBRANCH   4  16
TORSDOF 2
ENDMDL
MODEL 3
REMARK VINA RESULT:      -6.5      8.573     10.498
REMARK  2 active torsions:
REMARK  status: ('A' for Active; 'I' for Inactive)
REMARK    1  A    between atoms: C_8  and  N_2 
REMARK    2  A    between atoms: N_7  and  C_4 
ROOT
ATOM      1  C   UNL d   1     -38.953  15.187  18.304  0.00  0.00     0.358 A 
ATOM      2  N   UNL d   1     -39.279  14.544  17.899  0.00  0.00    -0.226 N 
ATOM      3  N   UNL d   1     -39.284  15.437  19.010  0.00  0.00    -0.174 NA
ATOM      4  C   UNL d   1     -39.942  15.050  19.318  0.00  0.00     0.158 A 
ATOM      5  C   UNL d   1     -39.937  14.152  18.200  0.00  0.00     0.271 A 
ATOM      6  C   UNL d   1     -40.268  14.408  18.913  0.00  0.00     0.099 A 
ATOM      7  O   UNL d   1     -38.290  15.577  17.994  0.00  0.00    -0.244 OA
ATOM      8  O   UNL d   1     -40.263  13.509  17.794  0.00  0.00    -0.266 OA
ENDROOT
BRANCH   2   9
ATOM      9  C   UNL d   1     -38.946  14.292  17.188  0.00  0.00     0.071 A 
ATOM     10  C   UNL d   1     -38.429  13.648  17.180  0.00  0.00     0.019 A 
ATOM     11  C   UNL d   1     -38.095  13.393  16.477  0.00  0.00     0.013 A 
ATOM     12  C   UNL d   1     -38.278  13.784  15.772  0.00  0.00     0.058 A 
ATOM     13  C   UNL d   1     -38.792  14.423  15.785  0.00  0.00     0.013 A 
ATOM     14 CL   UNL d   1     -37.945  13.531  15.069  0.00  0.00    -0.082 Cl
ATOM     15  C   UNL d   1     -39.128  14.680  16.490  0.00  0.00     0.019 A 
ENDBRANCH   2   9
BRANCH   4  16
ATOM     16  N   UNL d   1     -40.277  15.299  20.027  0.00  0.00    -0.285 N 
ATOM     17  C   UNL d   1     -39.869  15.169  20.735  0.00  0.00     0.108 A 
ATOM     18  C   UNL d   1     -40.202  15.417  21.447  0.00  0.00     0.142 A 
ATOM     19  O   UNL d   1     -40.945  15.798  21.455  0.00  0.00    -0.300 OA
ATOM     20  C   UNL d   1     -41.336  15.919  20.741  0.00  0.00     0.142 A 
ATOM     21  C   UNL d   1     -41.003  15.671  20.029  0.00  0.00     0.108 A 
ENDBRANCH   4  16
TORSDOF 2
ENDMDL
MODEL 4
REMARK VINA RESULT:      -6.5      8.429      9.140
REMARK  2 active torsions:
REMARK  status: ('A' for Active; 'I' for Inactive)
REMARK    1  A    between atoms: C_8  and  N_2 
REMARK    2  A    between atoms: N_7  and  C_4 
ROOT
ATOM      1  C   UNL d   1     -39.173  15.002  19.889  0.00  0.00     0.358 A 
ATOM      2  N   UNL d   1     -39.974  14.879  19.727  0.00  0.00    -0.226 N 
ATOM      3  N   UNL d   1     -38.881  14.859  20.641  0.00  0.00    -0.174 NA
ATOM      4  C   UNL d   1     -39.383  14.593  21.236  0.00  0.00     0.158 A 
ATOM      5  C   UNL d   1     -40.483  14.613  20.315  0.00  0.00     0.271 A 
ATOM      6  C   UNL d   1     -40.184  14.469  21.073  0.00  0.00     0.099 A 
ATOM      7  O   UNL d   1     -38.666  15.270  19.290  0.00  0.00    -0.244 OA
ATOM      8  O   UNL d   1     -41.284  14.489  20.153  0.00  0.00    -0.266 OA
ENDROOT
BRANCH   2   9
ATOM      9  C   UNL d   1     -40.269  15.022  18.970  0.00  0.00     0.071 A 
ATOM     10  C   UNL d   1     -40.564  15.769  18.777  0.00  0.00     0.019 A 
ATOM     11  C   UNL d   1     -40.858  15.918  18.026  0.00  0.00     0.013 A 
ATOM     12  C   UNL d   1     -40.858  15.315  17.461  0.00  0.00     0.058 A 
ATOM     13  C   UNL d   1     -40.564  14.575  17.657  0.00  0.00     0.013 A 
ATOM     14 CL   UNL d   1     -41.151  15.462  16.712  0.00  0.00    -0.082 Cl
ATOM     15  C   UNL d   1     -40.269  14.425  18.409  0.00  0.00     0.019 A 
ENDBRANCH   2   9
BRANCH   4  16
ATOM     16  N   UNL d   1     -39.092  14.449  21.992  0.00  0.00    -0.285 N 
ATOM     17  C   UNL d   1     -38.914  13.672  22.215  0.00  0.00     0.108 A 
ATOM     18  C   UNL d   1     -38.623  13.524  22.972  0.00  0.00     0.142 A 
ATOM     19  O   UNL d   1     -38.507  14.153  23.510  0.00  0.00    -0.300 OA
ATOM     20  C   UNL d   1     -38.690  14.919  23.270  0.00  0.00     0.142 A 
ATOM     21  C   UNL d   1     -38.982  15.067  22.513  0.00  0.00     0.108 A 
ENDBRANCH   4  16
TORSDOF 2
ENDMDL
MODEL 5
REMARK VINA RESULT:      -6.3      8.565     10.205
REMARK  2 active torsions:
REMARK  status: ('A' for Active; 'I' for Inactive)
REMARK    1  A    between atoms: C_8  and  N_2 
REMARK    2  A    between atoms: N_7  and  C_4 
ROOT
ATOM      1  C   UNL d   1     -38.969  15.107  18.477  0.00  0.00     0.358 A 
ATOM      2  N   UNL d   1     -39.732  14.838  18.648  0.00  0.00    -0.226 N 
ATOM      3  N   UNL d   1     -38.613  14.904  17.769  0.00  0.00    -0.174 NA
ATOM      4  C   UNL d   1     -39.011  14.432  17.225  0.00  0.00     0.158 A 
ATOM      5  C   UNL d   1     -40.138  14.366  18.110  0.00  0.00     0.271 A 
ATOM      6  C   UNL d   1     -39.774  14.163  17.396  0.00  0.00     0.099 A 
ATOM      7  O   UNL d   1     -38.567  15.583  19.024  0.00  0.00    -0.244 OA
ATOM      8  O   UNL d   1     -40.901  14.096  18.281  0.00  0.00    -0.266 OA
ENDROOT
BRANCH   2   9
ATOM      9  C   UNL d   1     -40.092  15.042  19.361  0.00  0.00     0.071 A 
ATOM     10  C   UNL d   1     -40.571  15.713  19.404  0.00  0.00     0.019 A 
ATOM     11  C   UNL d   1     -40.932  15.921  20.110  0.00  0.00     0.013 A 
ATOM     12  C   UNL d   1     -40.813  15.454  20.783  0.00  0.00     0.058 A 
ATOM     13  C   UNL d   1     -40.337  14.788  20.734  0.00  0.00     0.013 A 
ATOM     14 CL   UNL d   1     -41.172  15.660  21.487  0.00  0.00    -0.082 Cl
ATOM     15  C   UNL d   1     -39.975  14.579  20.027  0.00  0.00     0.019 A 
ENDBRANCH   2   9
BRANCH   4  16
ATOM     16  N   UNL d   1     -38.655  14.227  16.512  0.00  0.00    -0.285 N 
ATOM     17  C   UNL d   1     -38.616  14.786  15.904  0.00  0.00     0.108 A 
ATOM     18  C   UNL d   1     -38.260  14.583  15.188  0.00  0.00     0.142 A 
ATOM     19  O   UNL d   1     -37.940  13.820  15.078  0.00  0.00    -0.300 OA
ATOM     20  C   UNL d   1     -37.987  13.277  15.695  0.00  0.00     0.142 A 
ATOM     21  C   UNL d   1     -38.344  13.480  16.410  0.00  0.00     0.108 A 
ENDBRANCH   4  16
TORSDOF 2
ENDMDL
MODEL 6
REMARK VINA RESULT:      -6.3      8.574      9.618
REMARK  2 active torsions:
REMARK  status: ('A' for Active; 'I' for Inactive)
REMARK    1  A    between atoms: C_8  and  N_2 
REMARK    2  A    between atoms: N_7  and  C_4 
ROOT
ATOM      1  C   UNL d   1     -39.226  15.615  19.923  0.00  0.00     0.358 A 
ATOM      2  N   UNL d   1     -39.711  15.293  20.511  0.00  0.00    -0.226 N 
ATOM      3  N   UNL d   1     -39.481  15.630  19.145  0.00  0.00    -0.174 NA
ATOM      4  C   UNL d   1     -40.219  15.326  18.946  0.00  0.00     0.158 A 
ATOM      5  C   UNL d   1     -40.450  14.987  20.320  0.00  0.00     0.271 A 
ATOM      6  C   UNL d   1     -40.704  15.004  19.533  0.00  0.00     0.099 A 
ATOM      7  O   UNL d   1     -38.482  15.922  20.123  0.00  0.00    -0.244 OA
ATOM      8  O   UNL d   1     -40.935  14.666  20.908  0.00  0.00    -0.266 OA
ENDROOT
BRANCH   2   9
ATOM      9  C   UNL d   1     -39.455  15.278  21.295  0.00  0.00     0.071 A 
ATOM     10  C   UNL d   1     -39.059  14.614  21.586  0.00  0.00     0.019 A 
ATOM     11  C   UNL d   1     -38.802  14.593  22.364  0.00  0.00     0.013 A 
ATOM     12  C   UNL d   1     -38.941  15.242  22.858  0.00  0.00     0.058 A 
ATOM     13  C   UNL d   1     -39.335  15.898  22.564  0.00  0.00     0.013 A 
ATOM     14 CL   UNL d   1     -38.686  15.222  23.635  0.00  0.00    -0.082 Cl
ATOM     15  C   UNL d   1     -39.593  15.920  21.784  0.00  0.00     0.019 A 
ENDBRANCH   2   9
BRANCH   4  16
ATOM     16  N   UNL d   1     -40.477  15.340  18.165  0.00  0.00    -0.285 N 
ATOM     17  C   UNL d   1     -40.195  14.771  17.635  0.00  0.00     0.108 A 
ATOM     18  C   UNL d   1     -40.452  14.782  16.852  0.00  0.00     0.142 A 
ATOM     19  O   UNL d   1     -40.993  15.363  16.594  0.00  0.00    -0.300 OA
ATOM     20  C   UNL d   1     -41.264  15.921  17.135  0.00  0.00     0.142 A 
ATOM     21  C   UNL d   1     -41.006  15.910  17.919  0.00  0.00     0.108 A 
ENDBRANCH   4  16
TORSDOF 2
ENDMDL
