MODEL 1
REMARK VINA RESULT:       6.0      0.000      0.000
REMARK  2 active torsions:
REMARK  status: ('A' for Active; 'I' for Inactive)
REMARK    1  A    between atoms: C_6  and  N_2 
REMARK    2  A    between atoms: C_4  and  C_6 
ROOT
ATOM      1  C   UNL d   1     -55.929-102.839 -38.029  0.00  0.00     0.206 A 
ATOM      2  N   UNL d   1     -55.122-102.849 -37.874  0.00  0.00    -0.277 N 
ATOM      3  N   UNL d   1     -56.027-102.806 -38.852  0.00  0.00    -0.215 NA
ATOM      4  C   UNL d   1     -55.273-102.796 -39.197  0.00  0.00     0.120 A 
ATOM      5  C   UNL d   1     -54.713-102.822 -38.592  0.00  0.00     0.103 A 
ATOM      6  S   UNL d   1     -56.535-102.858 -37.470  0.00  0.00    -0.038 SA
ENDROOT
BRANCH   2   7
ATOM      7  C   UNL d   1     -54.774-102.880 -37.123  0.00  0.00     0.107 C 
BRANCH   7   8
ATOM      8  C   UNL d   1     -54.768-102.208 -36.643  0.00  0.00     0.118 A 
ATOM      9  O   UNL d   1     -54.735-101.421 -36.903  0.00  0.00    -0.304 OA
ATOM     10  C   UNL d   1     -54.741-100.936 -36.241  0.00  0.00     0.123 A 
ATOM     11  C   UNL d   1     -54.777-101.415 -35.570  0.00  0.00     0.029 A 
ATOM     12  C   UNL d   1     -54.793-102.199 -35.821  0.00  0.00     0.028 A 
ENDBRANCH   7   8
ENDBRANCH   2   7
TORSDOF 2
ENDMDL
MODEL 2
REMARK VINA RESULT:       7.5      7.895      8.493
REMARK  2 active torsions:
REMARK  status: ('A' for Active; 'I' for Inactive)
REMARK    1  A    between atoms: C_6  and  N_2 
REMARK    2  A    between atoms: C_4  and  C_6 
ROOT
ATOM      1  C   UNL d   1     -59.203 -98.793 -44.616  0.00  0.00     0.206 A 
ATOM      2  N   UNL d   1     -58.408 -98.768 -44.407  0.00  0.00    -0.277 N 
ATOM      3  N   UNL d   1     -59.647 -98.797 -43.917  0.00  0.00    -0.215 NA
ATOM      4  C   UNL d   1     -59.118 -98.774 -43.279  0.00  0.00     0.120 A 
ATOM      5  C   UNL d   1     -58.351 -98.756 -43.583  0.00  0.00     0.103 A 
ATOM      6  S   UNL d   1     -59.506 -98.811 -45.383  0.00  0.00    -0.038 SA
ENDROOT
BRANCH   2   7
ATOM      7  C   UNL d   1     -57.769 -98.756 -44.933  0.00  0.00     0.107 C 
BRANCH   7   8
ATOM      8  C   UNL d   1     -56.996 -98.758 -44.643  0.00  0.00     0.118 A 
ATOM      9  O   UNL d   1     -56.773 -98.764 -43.844  0.00  0.00    -0.304 OA
ATOM     10  C   UNL d   1     -55.954 -98.764 -43.811  0.00  0.00     0.123 A 
ATOM     11  C   UNL d   1     -55.664 -98.759 -44.584  0.00  0.00     0.029 A 
ATOM     12  C   UNL d   1     -56.309 -98.755 -45.095  0.00  0.00     0.028 A 
ENDBRANCH   7   8
ENDBRANCH   2   7
TORSDOF 2
ENDMDL
