MODEL 1
REMARK VINA RESULT:      -5.3      0.000      0.000
REMARK  4 active torsions:
REMARK  status: ('A' for Active; 'I' for Inactive)
REMARK    1  A    between atoms: C_2  and  C_1 
REMARK    2  A    between atoms: N_13  and  C_6 
REMARK    3  A    between atoms: N_12  and  N_13 
REMARK    4  A    between atoms: C_15  and  N_12 
ROOT
ATOM      1  C   UNL d   1      57.632   0.076  31.192  0.00  0.00     0.095 A 
ATOM      2  N   UNL d   1      57.846  -0.643  30.819  0.00  0.00    -0.219 NA
ATOM      3  C   UNL d   1      58.152  -0.446  30.088  0.00  0.00     0.215 A 
ATOM      4  S   UNL d   1      58.142   0.368  29.980  0.00  0.00    -0.045 SA
ATOM      5  C   UNL d   1      57.820   0.680  30.665  0.00  0.00     0.058 A 
ENDROOT
BRANCH   1   6
ATOM      6  C   UNL d   1      57.293   0.216  31.944  0.00  0.00     0.082 A 
ATOM      7  C   UNL d   1      57.759   0.519  32.541  0.00  0.00     0.302 A 
ATOM      8  O   UNL d   1      57.436   0.670  33.315  0.00  0.00    -0.273 OA
ATOM      9  O   UNL d   1      58.588   0.682  32.368  0.00  0.00    -0.259 OA
ATOM     10  C   UNL d   1      56.614   0.496  33.447  0.00  0.00     0.103 A 
ATOM     11  C   UNL d   1      56.147   0.194  32.850  0.00  0.00     0.023 A 
ATOM     12  C   UNL d   1      56.315   0.648  34.202  0.00  0.00     0.025 A 
ATOM     13  C   UNL d   1      56.486   0.053  32.099  0.00  0.00     0.009 A 
ATOM     14  C   UNL d   1      55.365   0.032  32.986  0.00  0.00     0.002 A 
ATOM     15  C   UNL d   1      55.025   0.172  33.738  0.00  0.00     0.000 A 
ATOM     16  C   UNL d   1      55.491   0.475  34.335  0.00  0.00     0.002 A 
ENDBRANCH   1   6
BRANCH   3  17
ATOM     17  N   UNL d   1      58.436  -1.031  29.534  0.00  0.00    -0.122 NA
BRANCH  17  18
ATOM     18  N   UNL d   1      58.659  -1.771  29.841  0.00  0.00    -0.146 NA
BRANCH  18  19
ATOM     19  C   UNL d   1      59.028  -2.340  29.376  0.00  0.00     0.103 A 
ATOM     20  C   UNL d   1      59.862  -2.342  29.320  0.00  0.00     0.021 A 
ATOM     21  C   UNL d   1      60.239  -2.923  28.846  0.00  0.00     0.002 A 
ATOM     22  C   UNL d   1      59.760  -3.470  28.455  0.00  0.00     0.000 A 
ATOM     23  C   UNL d   1      58.952  -3.456  28.519  0.00  0.00     0.002 A 
ATOM     24  C   UNL d   1      58.586  -2.891  28.980  0.00  0.00     0.021 A 
ENDBRANCH  18  19
ENDBRANCH  17  18
ENDBRANCH   3  17
TORSDOF 4
ENDMDL
MODEL 2
REMARK VINA RESULT:      -5.3      1.392      5.234
REMARK  4 active torsions:
REMARK  status: ('A' for Active; 'I' for Inactive)
REMARK    1  A    between atoms: C_2  and  C_1 
REMARK    2  A    between atoms: N_13  and  C_6 
REMARK    3  A    between atoms: N_12  and  N_13 
REMARK    4  A    between atoms: C_15  and  N_12 
ROOT
ATOM      1  C   UNL d   1      58.595  -0.587  29.770  0.00  0.00     0.095 A 
ATOM      2  N   UNL d   1      58.022  -0.666  30.376  0.00  0.00    -0.219 NA
ATOM      3  C   UNL d   1      57.622   0.045  30.415  0.00  0.00     0.215 A 
ATOM      4  S   UNL d   1      57.916   0.573  29.860  0.00  0.00    -0.045 SA
ATOM      5  C   UNL d   1      58.514   0.175  29.468  0.00  0.00     0.058 A 
ENDROOT
BRANCH   1   6
ATOM      6  C   UNL d   1      59.161  -1.133  29.485  0.00  0.00     0.082 A 
ATOM      7  C   UNL d   1      59.933  -0.888  29.381  0.00  0.00     0.302 A 
ATOM      8  O   UNL d   1      60.527  -1.426  29.092  0.00  0.00    -0.273 OA
ATOM      9  O   UNL d   1      60.131  -0.071  29.573  0.00  0.00    -0.259 OA
ATOM     10  C   UNL d   1      60.293  -2.225  28.914  0.00  0.00     0.103 A 
ATOM     11  C   UNL d   1      59.521  -2.469  29.017  0.00  0.00     0.023 A 
ATOM     12  C   UNL d   1      60.880  -2.734  28.634  0.00  0.00     0.025 A 
ATOM     13  C   UNL d   1      58.955  -1.923  29.302  0.00  0.00     0.009 A 
ATOM     14  C   UNL d   1      59.308  -3.231  28.844  0.00  0.00     0.002 A 
ATOM     15  C   UNL d   1      59.874  -3.778  28.559  0.00  0.00     0.000 A 
ATOM     16  C   UNL d   1      60.646  -3.534  28.455  0.00  0.00     0.002 A 
ENDBRANCH   1   6
BRANCH   3  17
ATOM     17  N   UNL d   1      56.988   0.186  30.970  0.00  0.00    -0.122 NA
BRANCH  17  18
ATOM     18  N   UNL d   1      57.127  -0.006  31.767  0.00  0.00    -0.146 NA
BRANCH  18  19
ATOM     19  C   UNL d   1      56.516  -0.057  32.315  0.00  0.00     0.103 A 
ATOM     20  C   UNL d   1      56.198   0.646  32.636  0.00  0.00     0.021 A 
ATOM     21  C   UNL d   1      55.574   0.595  33.195  0.00  0.00     0.002 A 
ATOM     22  C   UNL d   1      55.304  -0.157  33.401  0.00  0.00     0.000 A 
ATOM     23  C   UNL d   1      55.621  -0.830  33.081  0.00  0.00     0.002 A 
ATOM     24  C   UNL d   1      56.228  -0.780  32.537  0.00  0.00     0.021 A 
ENDBRANCH  18  19
ENDBRANCH  17  18
ENDBRANCH   3  17
TORSDOF 4
ENDMDL
MODEL 3
REMARK VINA RESULT:      -4.1      1.761      2.171
REMARK  4 active torsions:
REMARK  status: ('A' for Active; 'I' for Inactive)
REMARK    1  A    between atoms: C_2  and  C_1 
REMARK    2  A    between atoms: N_13  and  C_6 
REMARK    3  A    between atoms: N_12  and  N_13 
REMARK    4  A    between atoms: C_15  and  N_12 
ROOT
ATOM      1  C   UNL d   1      56.745  -0.046  32.214  0.00  0.00     0.095 A 
ATOM      2  N   UNL d   1      57.181   0.442  31.691  0.00  0.00    -0.219 NA
ATOM      3  C   UNL d   1      57.410  -0.031  31.066  0.00  0.00     0.215 A 
ATOM      4  S   UNL d   1      57.139  -0.798  31.169  0.00  0.00    -0.045 SA
ATOM      5  C   UNL d   1      56.731  -0.798  31.878  0.00  0.00     0.058 A 
ENDROOT
BRANCH   1   6
ATOM      6  C   UNL d   1      56.376   0.135  32.943  0.00  0.00     0.082 A 
ATOM      7  C   UNL d   1      56.839   0.312  33.591  0.00  0.00     0.302 A 
ATOM      8  O   UNL d   1      56.486   0.499  34.343  0.00  0.00    -0.273 OA
ATOM      9  O   UNL d   1      57.696   0.303  33.494  0.00  0.00    -0.259 OA
ATOM     10  C   UNL d   1      55.637   0.497  34.400  0.00  0.00     0.103 A 
ATOM     11  C   UNL d   1      55.174   0.321  33.752  0.00  0.00     0.023 A 
ATOM     12  C   UNL d   1      55.309   0.681  35.135  0.00  0.00     0.025 A 
ATOM     13  C   UNL d   1      55.543   0.140  33.023  0.00  0.00     0.009 A 
ATOM     14  C   UNL d   1      54.366   0.321  33.815  0.00  0.00     0.002 A 
ATOM     15  C   UNL d   1      53.996   0.502  34.544  0.00  0.00     0.000 A 
ATOM     16  C   UNL d   1      54.459   0.679  35.192  0.00  0.00     0.002 A 
ENDBRANCH   1   6
BRANCH   3  17
ATOM     17  N   UNL d   1      57.870   0.265  30.408  0.00  0.00    -0.122 NA
BRANCH  17  18
ATOM     18  N   UNL d   1      58.433  -0.247  30.075  0.00  0.00    -0.146 NA
BRANCH  18  19
ATOM     19  C   UNL d   1      59.089   0.035  29.667  0.00  0.00     0.103 A 
ATOM     20  C   UNL d   1      58.987   0.348  28.898  0.00  0.00     0.021 A 
ATOM     21  C   UNL d   1      59.656   0.636  28.482  0.00  0.00     0.002 A 
ATOM     22  C   UNL d   1      60.389   0.596  28.858  0.00  0.00     0.000 A 
ATOM     23  C   UNL d   1      60.473   0.290  29.604  0.00  0.00     0.002 A 
ATOM     24  C   UNL d   1      59.822   0.010  30.008  0.00  0.00     0.021 A 
ENDBRANCH  18  19
ENDBRANCH  17  18
ENDBRANCH   3  17
TORSDOF 4
ENDMDL
