MODEL 1
REMARK VINA RESULT:      -4.8      0.000      0.000
REMARK  6 active torsions:
REMARK  status: ('A' for Active; 'I' for Inactive)
REMARK    1  A    between atoms: C_2  and  S_1 
REMARK    2  A    between atoms: N_4  and  S_1 
REMARK    3  A    between atoms: C_18  and  N_4 
REMARK    4  A    between atoms: O_20  and  C_6 
REMARK    5  A    between atoms: C_19  and  C_18 
REMARK    6  A    between atoms: C_24  and  O_20 
ROOT
ATOM      1  S   UNL d   1      58.330  -0.116  30.120  0.00  0.00     0.327 S 
ATOM      2  O   UNL d   1      57.818  -0.223  29.472  0.00  0.00    -0.186 OA
ATOM      3  O   UNL d   1      58.837  -0.009  30.764  0.00  0.00    -0.186 OA
ENDROOT
BRANCH   1   4
ATOM      4  C   UNL d   1      58.936  -0.484  29.706  0.00  0.00     0.118 A 
ATOM      5  C   UNL d   1      58.839  -1.255  29.416  0.00  0.00     0.039 A 
ATOM      6  C   UNL d   1      59.446  -1.627  29.000  0.00  0.00     0.101 A 
ATOM      7  C   UNL d   1      60.164  -1.225  28.869  0.00  0.00     0.023 A 
ATOM      8  C   UNL d   1      60.262  -0.458  29.157  0.00  0.00     0.003 A 
ATOM      9  C   UNL d   1      60.772  -1.588  28.456  0.00  0.00     0.002 C 
ATOM     10  C   UNL d   1      59.653  -0.083  29.576  0.00  0.00     0.013 A 
ATOM     11  C   UNL d   1      59.757   0.682  29.861  0.00  0.00     0.001 C 
BRANCH   6  12
ATOM     12  O   UNL d   1      59.346  -2.387  28.716  0.00  0.00    -0.305 OA
BRANCH  12  13
ATOM     13  C   UNL d   1      58.638  -2.777  28.853  0.00  0.00     0.123 C 
ATOM     14  C   UNL d   1      58.549  -3.554  28.590  0.00  0.00     0.029 C 
ENDBRANCH  12  13
ENDBRANCH   6  12
ENDBRANCH   1   4
BRANCH   1  15
ATOM     15  N   UNL d   1      57.728   0.251  30.534  0.00  0.00    -0.314 NA
BRANCH  15  16
ATOM     16  C   UNL d   1      57.118   0.618  30.952  0.00  0.00     0.176 C 
BRANCH  16  17
ATOM     17  C   UNL d   1      56.764   0.241  31.600  0.00  0.00     0.035 A 
ATOM     18  C   UNL d   1      56.515   0.678  32.249  0.00  0.00     0.029 A 
ATOM     19  C   UNL d   1      56.163   0.301  32.894  0.00  0.00     0.119 A 
ATOM     20  O   UNL d   1      55.864   0.593  33.609  0.00  0.00    -0.300 OA
ATOM     21  C   UNL d   1      56.061  -0.525  32.885  0.00  0.00     0.119 A 
ATOM     22  C   UNL d   1      55.578  -0.053  34.040  0.00  0.00     0.304 A 
ATOM     23  O   UNL d   1      55.699  -0.738  33.594  0.00  0.00    -0.300 OA
ATOM     24  C   UNL d   1      56.312  -0.962  32.230  0.00  0.00     0.026 A 
ATOM     25  C   UNL d   1      56.662  -0.584  31.591  0.00  0.00     0.005 A 
ENDBRANCH  16  17
ENDBRANCH  15  16
ENDBRANCH   1  15
TORSDOF 6
ENDMDL
MODEL 2
REMARK VINA RESULT:      -4.2      1.105      4.813
REMARK  6 active torsions:
REMARK  status: ('A' for Active; 'I' for Inactive)
REMARK    1  A    between atoms: C_2  and  S_1 
REMARK    2  A    between atoms: N_4  and  S_1 
REMARK    3  A    between atoms: C_18  and  N_4 
REMARK    4  A    between atoms: O_20  and  C_6 
REMARK    5  A    between atoms: C_19  and  C_18 
REMARK    6  A    between atoms: C_24  and  O_20 
ROOT
ATOM      1  S   UNL d   1      57.848  -0.517  30.397  0.00  0.00     0.327 S 
ATOM      2  O   UNL d   1      57.886  -1.284  30.717  0.00  0.00    -0.186 OA
ATOM      3  O   UNL d   1      57.812   0.245  30.077  0.00  0.00    -0.186 OA
ENDROOT
BRANCH   1   4
ATOM      4  C   UNL d   1      57.601  -0.223  31.121  0.00  0.00     0.118 A 
ATOM      5  C   UNL d   1      56.918  -0.519  31.485  0.00  0.00     0.039 A 
ATOM      6  C   UNL d   1      56.668  -0.225  32.214  0.00  0.00     0.101 A 
ATOM      7  C   UNL d   1      57.104   0.375  32.589  0.00  0.00     0.023 A 
ATOM      8  C   UNL d   1      57.785   0.673  32.229  0.00  0.00     0.003 A 
ATOM      9  C   UNL d   1      56.862   0.673  33.314  0.00  0.00     0.002 C 
ATOM     10  C   UNL d   1      58.038   0.378  31.496  0.00  0.00     0.013 A 
ATOM     11  C   UNL d   1      58.717   0.678  31.142  0.00  0.00     0.001 C 
BRANCH   6  12
ATOM     12  O   UNL d   1      55.993  -0.522  32.568  0.00  0.00    -0.305 OA
BRANCH  12  13
ATOM     13  C   UNL d   1      55.934  -1.328  32.710  0.00  0.00     0.123 C 
ATOM     14  C   UNL d   1      55.406  -1.597  33.284  0.00  0.00     0.029 C 
ENDBRANCH  12  13
ENDBRANCH   6  12
ENDBRANCH   1   4
BRANCH   1  15
ATOM     15  N   UNL d   1      58.095  -0.808  29.673  0.00  0.00    -0.314 NA
BRANCH  15  16
ATOM     16  C   UNL d   1      58.342  -1.105  28.944  0.00  0.00     0.176 C 
BRANCH  16  17
ATOM     17  C   UNL d   1      59.040  -1.550  28.885  0.00  0.00     0.035 A 
ATOM     18  C   UNL d   1      59.024  -2.363  28.994  0.00  0.00     0.029 A 
ATOM     19  C   UNL d   1      59.720  -2.805  28.934  0.00  0.00     0.119 A 
ATOM     20  O   UNL d   1      59.869  -3.615  29.015  0.00  0.00    -0.300 OA
ATOM     21  C   UNL d   1      60.439  -2.422  28.763  0.00  0.00     0.119 A 
ATOM     22  C   UNL d   1      60.679  -3.732  28.894  0.00  0.00     0.304 A 
ATOM     23  O   UNL d   1      61.027  -2.998  28.740  0.00  0.00    -0.300 OA
ATOM     24  C   UNL d   1      60.451  -1.603  28.654  0.00  0.00     0.026 A 
ATOM     25  C   UNL d   1      59.759  -1.167  28.714  0.00  0.00     0.005 A 
ENDBRANCH  16  17
ENDBRANCH  15  16
ENDBRANCH   1  15
TORSDOF 6
ENDMDL
MODEL 3
REMARK VINA RESULT:      -3.2      1.284      4.976
REMARK  6 active torsions:
REMARK  status: ('A' for Active; 'I' for Inactive)
REMARK    1  A    between atoms: C_2  and  S_1 
REMARK    2  A    between atoms: N_4  and  S_1 
REMARK    3  A    between atoms: C_18  and  N_4 
REMARK    4  A    between atoms: O_20  and  C_6 
REMARK    5  A    between atoms: C_19  and  C_18 
REMARK    6  A    between atoms: C_24  and  O_20 
ROOT
ATOM      1  S   UNL d   1      57.313  -0.112  31.456  0.00  0.00     0.327 S 
ATOM      2  O   UNL d   1      57.193   0.681  31.233  0.00  0.00    -0.186 OA
ATOM      3  O   UNL d   1      57.431  -0.900  31.674  0.00  0.00    -0.186 OA
ENDROOT
BRANCH   1   4
ATOM      4  C   UNL d   1      57.176   0.084  32.240  0.00  0.00     0.118 A 
ATOM      5  C   UNL d   1      56.454  -0.104  32.602  0.00  0.00     0.039 A 
ATOM      6  C   UNL d   1      56.314   0.092  33.390  0.00  0.00     0.101 A 
ATOM      7  C   UNL d   1      56.903   0.483  33.829  0.00  0.00     0.023 A 
ATOM      8  C   UNL d   1      57.623   0.671  33.472  0.00  0.00     0.003 A 
ATOM      9  C   UNL d   1      56.772   0.681  34.614  0.00  0.00     0.002 C 
ATOM     10  C   UNL d   1      57.765   0.475  32.679  0.00  0.00     0.013 A 
ATOM     11  C   UNL d   1      58.485   0.665  32.329  0.00  0.00     0.001 C 
BRANCH   6  12
ATOM     12  O   UNL d   1      55.600  -0.095  33.741  0.00  0.00    -0.305 OA
BRANCH  12  13
ATOM     13  C   UNL d   1      54.901   0.149  33.388  0.00  0.00     0.123 C 
ATOM     14  C   UNL d   1      54.251   0.327  33.863  0.00  0.00     0.029 C 
ENDBRANCH  12  13
ENDBRANCH   6  12
ENDBRANCH   1   4
BRANCH   1  15
ATOM     15  N   UNL d   1      57.449  -0.310  30.674  0.00  0.00    -0.314 NA
BRANCH  15  16
ATOM     16  C   UNL d   1      57.591  -0.512  29.886  0.00  0.00     0.176 C 
BRANCH  16  17
ATOM     17  C   UNL d   1      58.366  -0.611  29.609  0.00  0.00     0.035 A 
ATOM     18  C   UNL d   1      58.792   0.030  29.326  0.00  0.00     0.029 A 
ATOM     19  C   UNL d   1      59.564  -0.071  29.050  0.00  0.00     0.119 A 
ATOM     20  O   UNL d   1      60.114   0.464  28.739  0.00  0.00    -0.300 OA
ATOM     21  C   UNL d   1      59.910  -0.828  29.059  0.00  0.00     0.119 A 
ATOM     22  C   UNL d   1      60.799   0.037  28.557  0.00  0.00     0.304 A 
ATOM     23  O   UNL d   1      60.672  -0.756  28.755  0.00  0.00    -0.300 OA
ATOM     24  C   UNL d   1      59.479  -1.472  29.345  0.00  0.00     0.026 A 
ATOM     25  C   UNL d   1      58.712  -1.368  29.619  0.00  0.00     0.005 A 
ENDBRANCH  16  17
ENDBRANCH  15  16
ENDBRANCH   1  15
TORSDOF 6
ENDMDL
MODEL 4
REMARK VINA RESULT:      -2.2      8.424      9.151
REMARK  6 active torsions:
REMARK  status: ('A' for Active; 'I' for Inactive)
REMARK    1  A    between atoms: C_2  and  S_1 
REMARK    2  A    between atoms: N_4  and  S_1 
REMARK    3  A    between atoms: C_18  and  N_4 
REMARK    4  A    between atoms: O_20  and  C_6 
REMARK    5  A    between atoms: C_19  and  C_18 
REMARK    6  A    between atoms: C_24  and  O_20 
ROOT
ATOM      1  S   UNL d   1      59.698  -9.506  33.396  0.00  0.00     0.327 S 
ATOM      2  O   UNL d   1      60.514  -9.671  33.408  0.00  0.00    -0.186 OA
ATOM      3  O   UNL d   1      58.888  -9.342  33.385  0.00  0.00    -0.186 OA
ENDROOT
BRANCH   1   4
ATOM      4  C   UNL d   1      59.691  -9.583  32.579  0.00  0.00     0.118 A 
ATOM      5  C   UNL d   1      58.975  -9.662  32.169  0.00  0.00     0.039 A 
ATOM      6  C   UNL d   1      58.966  -9.740  31.348  0.00  0.00     0.101 A 
ATOM      7  C   UNL d   1      59.683  -9.740  30.926  0.00  0.00     0.023 A 
ATOM      8  C   UNL d   1      60.397  -9.662  31.331  0.00  0.00     0.003 A 
ATOM      9  C   UNL d   1      59.682  -9.818  30.109  0.00  0.00     0.002 C 
ATOM     10  C   UNL d   1      60.408  -9.583  32.156  0.00  0.00     0.013 A 
ATOM     11  C   UNL d   1      61.124  -9.505  32.555  0.00  0.00     0.001 C 
BRANCH   6  12
ATOM     12  O   UNL d   1      58.256  -9.818  30.950  0.00  0.00    -0.305 OA
BRANCH  12  13
ATOM     13  C   UNL d   1      57.557  -9.618  31.330  0.00  0.00     0.123 C 
ATOM     14  C   UNL d   1      56.838  -9.773  30.956  0.00  0.00     0.029 C 
ENDBRANCH  12  13
ENDBRANCH   6  12
ENDBRANCH   1   4
BRANCH   1  15
ATOM     15  N   UNL d   1      59.702  -9.428  34.210  0.00  0.00    -0.314 NA
BRANCH  15  16
ATOM     16  C   UNL d   1      59.707  -9.345  35.031  0.00  0.00     0.176 C 
BRANCH  16  17
ATOM     17  C   UNL d   1      59.701  -8.593  35.379  0.00  0.00     0.035 A 
ATOM     18  C   UNL d   1      60.269  -8.036  35.177  0.00  0.00     0.029 A 
ATOM     19  C   UNL d   1      60.261  -7.287  35.525  0.00  0.00     0.119 A 
ATOM     20  O   UNL d   1      60.754  -6.629  35.429  0.00  0.00    -0.300 OA
ATOM     21  C   UNL d   1      59.675  -7.098  36.083  0.00  0.00     0.119 A 
ATOM     22  C   UNL d   1      60.471  -6.033  35.929  0.00  0.00     0.304 A 
ATOM     23  O   UNL d   1      59.808  -6.322  36.329  0.00  0.00    -0.300 OA
ATOM     24  C   UNL d   1      59.104  -7.659  36.285  0.00  0.00     0.026 A 
ATOM     25  C   UNL d   1      59.114  -8.403  35.938  0.00  0.00     0.005 A 
ENDBRANCH  16  17
ENDBRANCH  15  16
ENDBRANCH   1  15
TORSDOF 6
ENDMDL
MODEL 5
REMARK VINA RESULT:      -2.1      1.136      1.570
REMARK  6 active torsions:
REMARK  status: ('A' for Active; 'I' for Inactive)
REMARK    1  A    between atoms: C_2  and  S_1 
REMARK    2  A    between atoms: N_4  and  S_1 
REMARK    3  A    between atoms: C_18  and  N_4 
REMARK    4  A    between atoms: O_20  and  C_6 
REMARK    5  A    between atoms: C_19  and  C_18 
REMARK    6  A    between atoms: C_24  and  O_20 
ROOT
ATOM      1  S   UNL d   1      57.630  -0.913  30.974  0.00  0.00     0.327 S 
ATOM      2  O   UNL d   1      57.978  -0.409  31.538  0.00  0.00    -0.186 OA
ATOM      3  O   UNL d   1      57.282  -1.414  30.416  0.00  0.00    -0.186 OA
ENDROOT
BRANCH   1   4
ATOM      4  C   UNL d   1      58.200  -0.698  30.425  0.00  0.00     0.118 A 
ATOM      5  C   UNL d   1      58.582  -1.274  29.967  0.00  0.00     0.039 A 
ATOM      6  C   UNL d   1      59.155  -1.061  29.415  0.00  0.00     0.101 A 
ATOM      7  C   UNL d   1      59.354  -0.259  29.315  0.00  0.00     0.023 A 
ATOM      8  C   UNL d   1      58.976   0.317  29.770  0.00  0.00     0.003 A 
ATOM      9  C   UNL d   1      59.924  -0.039  28.768  0.00  0.00     0.002 C 
ATOM     10  C   UNL d   1      58.399   0.103  30.326  0.00  0.00     0.013 A 
ATOM     11  C   UNL d   1      58.025   0.682  30.776  0.00  0.00     0.001 C 
BRANCH   6  12
ATOM     12  O   UNL d   1      59.528  -1.634  28.966  0.00  0.00    -0.305 OA
BRANCH  12  13
ATOM     13  C   UNL d   1      59.855  -2.287  29.338  0.00  0.00     0.123 C 
ATOM     14  C   UNL d   1      60.160  -2.901  28.879  0.00  0.00     0.029 C 
ENDBRANCH  12  13
ENDBRANCH   6  12
ENDBRANCH   1   4
BRANCH   1  15
ATOM     15  N   UNL d   1      57.060  -1.129  31.520  0.00  0.00    -0.314 NA
BRANCH  15  16
ATOM     16  C   UNL d   1      56.488  -1.346  32.074  0.00  0.00     0.176 C 
BRANCH  16  17
ATOM     17  C   UNL d   1      56.280  -0.832  32.690  0.00  0.00     0.035 A 
ATOM     18  C   UNL d   1      55.495  -0.625  32.812  0.00  0.00     0.029 A 
ATOM     19  C   UNL d   1      55.290  -0.113  33.427  0.00  0.00     0.119 A 
ATOM     20  O   UNL d   1      54.559   0.186  33.676  0.00  0.00    -0.300 OA
ATOM     21  C   UNL d   1      55.883   0.194  33.923  0.00  0.00     0.119 A 
ATOM     22  C   UNL d   1      54.702   0.678  34.326  0.00  0.00     0.304 A 
ATOM     23  O   UNL d   1      55.514   0.682  34.477  0.00  0.00    -0.300 OA
ATOM     24  C   UNL d   1      56.672  -0.015  33.798  0.00  0.00     0.026 A 
ATOM     25  C   UNL d   1      56.873  -0.524  33.187  0.00  0.00     0.005 A 
ENDBRANCH  16  17
ENDBRANCH  15  16
ENDBRANCH   1  15
TORSDOF 6
ENDMDL
