MODEL 1
REMARK VINA RESULT:      12.2      0.000      0.000
REMARK  4 active torsions:
REMARK  status: ('A' for Active; 'I' for Inactive)
REMARK    1  A    between atoms: C_6  and  N_1 
REMARK    2  A    between atoms: C_9  and  C_2 
REMARK    3  A    between atoms: O_14  and  C_10 
REMARK    4  A    between atoms: C_15  and  O_14 
ROOT
ATOM      1  C   UNL d   1     -57.727 -98.766 -44.064  0.00  0.00     0.086 A 
ATOM      2  C   UNL d   1     -57.469 -98.758 -44.845  0.00  0.00     0.021 A 
ATOM      3  C   UNL d   1     -57.180 -98.774 -43.450  0.00  0.00     0.021 A 
ATOM      4  C   UNL d   1     -56.112 -98.765 -44.404  0.00  0.00     0.100 A 
ATOM      5  C   UNL d   1     -56.372 -98.774 -43.621  0.00  0.00     0.026 A 
ATOM      6  C   UNL d   1     -56.662 -98.757 -45.016  0.00  0.00     0.026 A 
ENDROOT
BRANCH   1   7
ATOM      7  N   UNL d   1     -58.534 -98.767 -43.893  0.00  0.00    -0.191 N 
ATOM      8  C   UNL d   1     -59.147 -98.762 -44.442  0.00  0.00     0.200 A 
ATOM      9  N   UNL d   1     -59.866 -98.764 -44.029  0.00  0.00    -0.107 NA
ATOM     10  N   UNL d   1     -59.698 -98.770 -43.235  0.00  0.00    -0.022 NA
ATOM     11  N   UNL d   1     -58.874 -98.772 -43.145  0.00  0.00    -0.039 NA
BRANCH   8  12
ATOM     12  C   UNL d   1     -59.067 -98.756 -45.271  0.00  0.00     0.109 C 
ATOM     13 CL   UNL d   1     -59.623 -98.842 -45.881  0.00  0.00    -0.078 Cl
ENDBRANCH   8  12
ENDBRANCH   1   7
BRANCH   4  14
ATOM     14  O   UNL d   1     -55.309 -98.765 -44.573  0.00  0.00    -0.305 OA
BRANCH  14  15
ATOM     15  C   UNL d   1     -54.814 -99.328 -44.231  0.00  0.00     0.123 C 
ATOM     16  C   UNL d   1     -54.821-100.111 -44.508  0.00  0.00     0.029 C 
ENDBRANCH  14  15
ENDBRANCH   4  14
TORSDOF 4
ENDMDL
MODEL 2
REMARK VINA RESULT:      13.6      7.368      8.065
REMARK  4 active torsions:
REMARK  status: ('A' for Active; 'I' for Inactive)
REMARK    1  A    between atoms: C_6  and  N_1 
REMARK    2  A    between atoms: C_9  and  C_2 
REMARK    3  A    between atoms: O_14  and  C_10 
REMARK    4  A    between atoms: C_15  and  O_14 
ROOT
ATOM      1  C   UNL d   1     -54.923-101.961 -37.514  0.00  0.00     0.086 A 
ATOM      2  C   UNL d   1     -54.789-102.686 -37.881  0.00  0.00     0.021 A 
ATOM      3  C   UNL d   1     -54.989-101.277 -37.965  0.00  0.00     0.021 A 
ATOM      4  C   UNL d   1     -54.786-102.045 -39.157  0.00  0.00     0.100 A 
ATOM      5  C   UNL d   1     -54.921-101.320 -38.787  0.00  0.00     0.026 A 
ATOM      6  C   UNL d   1     -54.720-102.728 -38.702  0.00  0.00     0.026 A 
ENDROOT
BRANCH   1   7
ATOM      7  N   UNL d   1     -54.991-101.919 -36.693  0.00  0.00    -0.191 N 
ATOM      8  C   UNL d   1     -54.895-101.245 -36.231  0.00  0.00     0.200 A 
ATOM      9  N   UNL d   1     -55.013-101.455 -35.438  0.00  0.00    -0.107 NA
ATOM     10  N   UNL d   1     -55.179-102.249 -35.411  0.00  0.00    -0.022 NA
ATOM     11  N   UNL d   1     -55.167-102.541 -36.187  0.00  0.00    -0.039 NA
BRANCH   8  12
ATOM     12  C   UNL d   1     -54.712-100.480 -36.506  0.00  0.00     0.109 C 
ATOM     13 CL   UNL d   1     -54.785 -99.733 -36.152  0.00  0.00    -0.078 Cl
ENDBRANCH   8  12
ENDBRANCH   1   7
BRANCH   4  14
ATOM     14  O   UNL d   1     -54.719-102.087 -39.974  0.00  0.00    -0.305 OA
BRANCH  14  15
ATOM     15  C   UNL d   1     -54.986-102.755 -40.377  0.00  0.00     0.123 C 
ATOM     16  C   UNL d   1     -55.416-102.670 -41.081  0.00  0.00     0.029 C 
ENDBRANCH  14  15
ENDBRANCH   4  14
TORSDOF 4
ENDMDL
