MODEL 1
REMARK VINA RESULT:      83.4      0.000      0.000
REMARK  6 active torsions:
REMARK  status: ('A' for Active; 'I' for Inactive)
REMARK    1  A    between atoms: N_6  and  C_1 
REMARK    2  A    between atoms: C_18  and  N_4 
REMARK       I    between atoms: C_8  and  N_6 
REMARK    3  A    between atoms: C_7  and  C_8 
REMARK    4  A    between atoms: C_11  and  C_7 
REMARK    5  A    between atoms: C_19  and  C_9 
REMARK    6  A    between atoms: C_12  and  C_11 
ROOT
ATOM      1  C   UNL d   1     -49.025  27.777  35.269  0.00  0.00     0.128 C 
ATOM      2  C   UNL d   1     -49.495  27.797  35.925  0.00  0.00     0.106 C 
ATOM      3  N   UNL d   1     -50.006  27.764  36.608  0.00  0.00    -0.191 NA
ENDROOT
BRANCH   1   4
ATOM      4  C   UNL d   1     -48.584  28.461  35.061  0.00  0.00     0.289 C 
ATOM      5  N   UNL d   1     -48.525  29.063  35.618  0.00  0.00    -0.201 NA
ATOM      6  O   UNL d   1     -48.237  28.521  34.351  0.00  0.00    -0.264 OA
BRANCH   5   7
ATOM      7  C   UNL d   1     -48.082  29.753  35.413  0.00  0.00     0.160 A 
ATOM      8  C   UNL d   1     -48.323  30.430  35.007  0.00  0.00     0.298 A 
ATOM      9  N   UNL d   1     -47.658  30.928  34.964  0.00  0.00    -0.209 N 
ATOM     10  O   UNL d   1     -49.040  30.596  34.706  0.00  0.00    -0.263 OA
ATOM     11  N   UNL d   1     -47.053  30.528  35.346  0.00  0.00    -0.238 N 
ATOM     12  C   UNL d   1     -47.277  29.803  35.634  0.00  0.00     0.104 A 
ATOM     13  C   UNL d   1     -46.255  30.850  35.431  0.00  0.00     0.120 C 
ATOM     14  C   UNL d   1     -46.802  29.267  36.044  0.00  0.00     0.022 C 
BRANCH   9  15
ATOM     15  C   UNL d   1     -47.569  31.674  34.624  0.00  0.00     0.085 A 
ATOM     16  C   UNL d   1     -48.024  32.298  34.914  0.00  0.00     0.019 A 
ATOM     17  C   UNL d   1     -47.939  33.059  34.574  0.00  0.00     0.002 A 
ATOM     18  C   UNL d   1     -47.408  33.178  33.959  0.00  0.00     0.000 A 
ATOM     19  C   UNL d   1     -46.949  32.541  33.669  0.00  0.00     0.002 A 
ATOM     20  C   UNL d   1     -47.038  31.794  34.010  0.00  0.00     0.019 A 
ENDBRANCH   9  15
ENDBRANCH   5   7
ENDBRANCH   1   4
BRANCH   1  21
ATOM     21  C   UNL d   1     -48.951  27.116  34.784  0.00  0.00     0.040 C 
BRANCH  21  22
ATOM     22  C   UNL d   1     -49.615  26.864  34.283  0.00  0.00     0.101 A 
ATOM     23  O   UNL d   1     -50.104  26.164  34.382  0.00  0.00    -0.307 OA
ATOM     24  C   UNL d   1     -50.657  26.169  33.771  0.00  0.00     0.100 A 
ATOM     25  C   UNL d   1     -50.519  26.835  33.319  0.00  0.00     0.027 A 
ATOM     26  C   UNL d   1     -49.874  27.243  33.657  0.00  0.00     0.027 A 
BRANCH  24  27
ATOM     27  C   UNL d   1     -51.248  25.580  33.658  0.00  0.00     0.023 A 
ATOM     28  C   UNL d   1     -51.022  24.804  33.555  0.00  0.00     0.003 A 
ATOM     29  C   UNL d   1     -51.612  24.214  33.442  0.00  0.00     0.011 A 
ATOM     30  C   UNL d   1     -52.397  24.431  33.438  0.00  0.00     0.058 A 
ATOM     31  C   UNL d   1     -52.622  25.206  33.541  0.00  0.00     0.011 A 
ATOM     32 CL   UNL d   1     -52.989  23.841  33.325  0.00  0.00    -0.082 Cl
ATOM     33  C   UNL d   1     -52.032  25.796  33.654  0.00  0.00     0.003 A 
ENDBRANCH  24  27
ENDBRANCH  21  22
ENDBRANCH   1  21
TORSDOF 6
ENDMDL
