MODEL 1
REMARK VINA RESULT:      10.9      0.000      0.000
REMARK  4 active torsions:
REMARK  status: ('A' for Active; 'I' for Inactive)
REMARK    1  A    between atoms: C_2  and  S_1 
REMARK    2  A    between atoms: N_4  and  S_1 
REMARK    3  A    between atoms: C_11  and  N_4 
REMARK    4  A    between atoms: C_9  and  C_11 
ROOT
ATOM      1  S   UNL d   1      46.170 -17.476  43.991  0.00  0.00     0.285 S 
ATOM      2  O   UNL d   1      46.647 -17.746  44.608  0.00  0.00    -0.198 OA
ATOM      3  O   UNL d   1      45.694 -17.206  43.374  0.00  0.00    -0.198 OA
ENDROOT
BRANCH   1   4
ATOM      4  C   UNL d   1      46.289 -18.186  43.588  0.00  0.00     0.105 A 
ATOM      5  C   UNL d   1      46.268 -18.905  44.002  0.00  0.00     0.012 A 
ATOM      6  C   UNL d   1      46.387 -19.614  43.600  0.00  0.00     0.001 A 
ATOM      7  C   UNL d   1      46.128 -18.910  44.816  0.00  0.00     0.001 C 
ATOM      8  C   UNL d   1      46.366 -20.330  44.010  0.00  0.00     0.000 C 
ATOM      9  C   UNL d   1      46.527 -19.607  42.783  0.00  0.00     0.000 A 
ATOM     10  C   UNL d   1      46.548 -18.891  42.373  0.00  0.00     0.001 A 
ATOM     11  C   UNL d   1      46.646 -20.317  42.380  0.00  0.00     0.000 C 
ATOM     12  C   UNL d   1      46.429 -18.182  42.776  0.00  0.00     0.013 A 
ENDBRANCH   1   4
BRANCH   1  13
ATOM     13  N   UNL d   1      46.051 -16.766  44.394  0.00  0.00    -0.155 NA
BRANCH  13  14
ATOM     14  C   UNL d   1      45.596 -16.167  44.047  0.00  0.00     0.137 C 
BRANCH  14  15
ATOM     15  C   UNL d   1      45.596 -15.410  44.375  0.00  0.00     0.120 A 
ATOM     16  O   UNL d   1      46.248 -15.022  44.693  0.00  0.00    -0.304 OA
ATOM     17  C   UNL d   1      45.999 -14.285  44.955  0.00  0.00     0.123 A 
ATOM     18  C   UNL d   1      45.192 -14.217  44.798  0.00  0.00     0.029 A 
ATOM     19  C   UNL d   1      44.944 -14.913  44.440  0.00  0.00     0.028 A 
ENDBRANCH  14  15
ENDBRANCH  13  14
ENDBRANCH   1  13
TORSDOF 4
ENDMDL
MODEL 2
REMARK VINA RESULT:      13.1      0.942      4.500
REMARK  4 active torsions:
REMARK  status: ('A' for Active; 'I' for Inactive)
REMARK    1  A    between atoms: C_2  and  S_1 
REMARK    2  A    between atoms: N_4  and  S_1 
REMARK    3  A    between atoms: C_11  and  N_4 
REMARK    4  A    between atoms: C_9  and  C_11 
ROOT
ATOM      1  S   UNL d   1      45.795 -15.870  44.376  0.00  0.00     0.285 S 
ATOM      2  O   UNL d   1      46.383 -15.886  44.955  0.00  0.00    -0.198 OA
ATOM      3  O   UNL d   1      45.207 -15.853  43.798  0.00  0.00    -0.198 OA
ENDROOT
BRANCH   1   4
ATOM      4  C   UNL d   1      45.785 -15.046  44.410  0.00  0.00     0.105 A 
ATOM      5  C   UNL d   1      45.100 -14.651  44.660  0.00  0.00     0.012 A 
ATOM      6  C   UNL d   1      45.089 -13.828  44.693  0.00  0.00     0.001 A 
ATOM      7  C   UNL d   1      44.429 -15.081  44.874  0.00  0.00     0.001 C 
ATOM      8  C   UNL d   1      44.408 -13.433  44.942  0.00  0.00     0.000 C 
ATOM      9  C   UNL d   1      45.764 -13.397  44.477  0.00  0.00     0.000 A 
ATOM     10  C   UNL d   1      46.445 -13.792  44.229  0.00  0.00     0.001 A 
ATOM     11  C   UNL d   1      45.754 -12.573  44.511  0.00  0.00     0.000 C 
ATOM     12  C   UNL d   1      46.455 -14.615  44.196  0.00  0.00     0.013 A 
ENDBRANCH   1   4
BRANCH   1  13
ATOM     13  N   UNL d   1      45.805 -16.694  44.342  0.00  0.00    -0.155 NA
BRANCH  13  14
ATOM     14  C   UNL d   1      46.305 -17.078  43.805  0.00  0.00     0.137 C 
BRANCH  14  15
ATOM     15  C   UNL d   1      46.309 -17.902  43.764  0.00  0.00     0.120 A 
ATOM     16  O   UNL d   1      46.500 -18.414  44.380  0.00  0.00    -0.304 OA
ATOM     17  C   UNL d   1      46.431 -19.183  44.097  0.00  0.00     0.123 A 
ATOM     18  C   UNL d   1      46.197 -19.145  43.307  0.00  0.00     0.029 A 
ATOM     19  C   UNL d   1      46.122 -18.353  43.103  0.00  0.00     0.028 A 
ENDBRANCH  14  15
ENDBRANCH  13  14
ENDBRANCH   1  13
TORSDOF 4
ENDMDL
