MODEL 1
REMARK VINA RESULT:      43.2      0.000      0.000
REMARK  10 active torsions:
REMARK  status: ('A' for Active; 'I' for Inactive)
REMARK    1  A    between atoms: P_2  and  C_1 
REMARK    2  A    between atoms: N_3  and  C_1 
REMARK    3  A    between atoms: C_4  and  C_1 
REMARK    4  A    between atoms: O_9  and  P_2 
REMARK    5  A    between atoms: O_10  and  P_2 
REMARK       I    between atoms: C_5  and  N_3 
REMARK    6  A    between atoms: C_8  and  C_5 
REMARK    7  A    between atoms: C_16  and  O_9 
REMARK    8  A    between atoms: C_15  and  O_10 
REMARK    9  A    between atoms: C_18  and  C_15 
REMARK   10  A    between atoms: C_17  and  C_16 
ROOT
ATOM      1  C   UNL d   1      60.185  49.094  50.630  0.00  0.00     0.186 C 
ENDROOT
BRANCH   1   2
ATOM      2  P   UNL d   1      60.643  48.665  51.183  0.00  0.00     0.393 P 
ATOM      3  O   UNL d   1      61.099  48.258  51.737  0.00  0.00    -0.251 OA
BRANCH   2   4
ATOM      4  O   UNL d   1      60.859  49.381  51.530  0.00  0.00    -0.263 OA
BRANCH   4   5
ATOM      5  C   UNL d   1      61.370  49.381  52.183  0.00  0.00     0.126 C 
BRANCH   5   6
ATOM      6  C   UNL d   1      61.133  49.708  52.916  0.00  0.00     0.027 C 
ATOM      7  C   UNL d   1      60.386  49.611  53.397  0.00  0.00     0.002 C 
ENDBRANCH   5   6
ENDBRANCH   4   5
ENDBRANCH   2   4
BRANCH   2   8
ATOM      8  O   UNL d   1      60.441  47.949  50.855  0.00  0.00    -0.263 OA
BRANCH   8   9
ATOM      9  C   UNL d   1      61.032  47.446  50.593  0.00  0.00     0.126 C 
BRANCH   9  10
ATOM     10  C   UNL d   1      60.858  46.651  50.424  0.00  0.00     0.027 C 
ATOM     11  C   UNL d   1      60.175  46.470  50.752  0.00  0.00     0.002 C 
ENDBRANCH   9  10
ENDBRANCH   8   9
ENDBRANCH   2   8
ENDBRANCH   1   2
BRANCH   1  12
ATOM     12  N   UNL d   1      59.363  49.159  50.764  0.00  0.00    -0.199 NA
ATOM     13  C   UNL d   1      58.868  49.322  50.110  0.00  0.00     0.279 C 
ATOM     14  O   UNL d   1      59.176  49.413  49.370  0.00  0.00    -0.265 OA
BRANCH  13  15
ATOM     15  C   UNL d   1      58.066  49.393  50.195  0.00  0.00     0.058 A 
ATOM     16  C   UNL d   1      57.611  49.635  49.551  0.00  0.00     0.005 A 
ATOM     17  C   UNL d   1      56.798  49.706  49.642  0.00  0.00     0.000 A 
ATOM     18  C   UNL d   1      56.442  49.535  50.378  0.00  0.00     0.000 A 
ATOM     19  C   UNL d   1      56.890  49.297  51.012  0.00  0.00     0.000 A 
ATOM     20  C   UNL d   1      57.714  49.223  50.927  0.00  0.00     0.005 A 
ENDBRANCH  13  15
ENDBRANCH   1  12
BRANCH   1  21
ATOM     21  C   UNL d   1      60.531  49.438  49.979  0.00  0.00     0.140 C 
ATOM     22 CL   UNL d   1      61.294  49.499  50.022  0.00  0.00    -0.068 Cl
ATOM     23 CL   UNL d   1      60.044  49.706  49.302  0.00  0.00    -0.068 Cl
ENDBRANCH   1  21
TORSDOF 10
ENDMDL
