MODEL 1
REMARK VINA RESULT:      42.3      0.000      0.000
REMARK  5 active torsions:
REMARK  status: ('A' for Active; 'I' for Inactive)
REMARK    1  A    between atoms: N_6  and  C_1 
REMARK    2  A    between atoms: S_10  and  C_4 
REMARK       I    between atoms: C_7  and  N_6 
REMARK       I    between atoms: N_8  and  C_7 
REMARK    3  A    between atoms: C_11  and  N_8 
REMARK    4  A    between atoms: C_18  and  S_10 
REMARK    5  A    between atoms: C_19  and  C_18 
ROOT
ATOM      1  N   UNL d   1     -49.106  27.491  34.337  0.00  0.00    -0.321 NA
ATOM      2  C   UNL d   1     -49.310  26.989  33.882  0.00  0.00     0.422 C 
ATOM      3  N   UNL d   1     -49.540  26.368  33.310  0.00  0.00    -0.180 NA
ATOM      4  O   UNL d   1     -49.961  26.993  34.141  0.00  0.00    -0.228 OA
ENDROOT
BRANCH   1   5
ATOM      5  C   UNL d   1     -48.698  28.091  34.817  0.00  0.00     0.271 A 
ATOM      6  S   UNL d   1     -48.173  28.554  34.725  0.00  0.00    -0.006 SA
ATOM      7  C   UNL d   1     -47.984  28.973  35.269  0.00  0.00     0.166 A 
ATOM      8  N   UNL d   1     -48.318  28.925  35.890  0.00  0.00    -0.132 NA
ATOM      9  N   UNL d   1     -49.032  28.044  35.439  0.00  0.00    -0.107 NA
BRANCH   7  10
ATOM     10  S   UNL d   1     -47.470  29.481  35.308  0.00  0.00    -0.059 SA
BRANCH  10  11
ATOM     11  C   UNL d   1     -47.581  30.140  35.784  0.00  0.00     0.037 C 
BRANCH  11  12
ATOM     12  C   UNL d   1     -47.099  30.798  35.691  0.00  0.00     0.007 C 
ATOM     13  C   UNL d   1     -47.413  31.509  35.431  0.00  0.00     0.001 C 
ENDBRANCH  11  12
ENDBRANCH  10  11
ENDBRANCH   7  10
ENDBRANCH   1   5
BRANCH   3  14
ATOM     14  C   UNL d   1     -50.320  26.081  33.309  0.00  0.00     0.087 A 
ATOM     15  C   UNL d   1     -50.952  26.613  33.307  0.00  0.00     0.022 A 
ATOM     16  C   UNL d   1     -51.722  26.317  33.306  0.00  0.00     0.031 A 
ATOM     17  C   UNL d   1     -51.865  25.505  33.307  0.00  0.00     0.140 A 
ATOM     18  C   UNL d   1     -51.229  24.979  33.310  0.00  0.00     0.031 A 
ATOM     19  F   UNL d   1     -52.645  25.218  33.306  0.00  0.00    -0.204 F 
ATOM     20  C   UNL d   1     -50.456  25.267  33.311  0.00  0.00     0.022 A 
ENDBRANCH   3  14
TORSDOF 5
ENDMDL
MODEL 2
REMARK VINA RESULT:      43.7      0.906      1.218
REMARK  5 active torsions:
REMARK  status: ('A' for Active; 'I' for Inactive)
REMARK    1  A    between atoms: N_6  and  C_1 
REMARK    2  A    between atoms: S_10  and  C_4 
REMARK       I    between atoms: C_7  and  N_6 
REMARK       I    between atoms: N_8  and  C_7 
REMARK    3  A    between atoms: C_11  and  N_8 
REMARK    4  A    between atoms: C_18  and  S_10 
REMARK    5  A    between atoms: C_19  and  C_18 
ROOT
ATOM      1  N   UNL d   1     -49.978  27.174  34.367  0.00  0.00    -0.321 NA
ATOM      2  C   UNL d   1     -50.451  26.938  33.897  0.00  0.00     0.422 C 
ATOM      3  N   UNL d   1     -51.037  26.669  33.306  0.00  0.00    -0.180 NA
ATOM      4  O   UNL d   1     -50.428  26.294  34.170  0.00  0.00    -0.228 OA
ENDROOT
BRANCH   1   5
ATOM      5  C   UNL d   1     -49.416  27.619  34.862  0.00  0.00     0.271 A 
ATOM      6  S   UNL d   1     -48.858  28.037  34.757  0.00  0.00    -0.006 SA
ATOM      7  C   UNL d   1     -48.524  28.313  35.322  0.00  0.00     0.166 A 
ATOM      8  N   UNL d   1     -48.748  28.168  35.977  0.00  0.00    -0.132 NA
ATOM      9  N   UNL d   1     -49.641  27.474  35.517  0.00  0.00    -0.107 NA
BRANCH   7  10
ATOM     10  S   UNL d   1     -47.948  28.750  35.354  0.00  0.00    -0.059 SA
BRANCH  10  11
ATOM     11  C   UNL d   1     -48.052  29.564  35.386  0.00  0.00     0.037 C 
BRANCH  11  12
ATOM     12  C   UNL d   1     -47.418  30.050  35.578  0.00  0.00     0.007 C 
ATOM     13  C   UNL d   1     -47.100  30.039  36.333  0.00  0.00     0.001 C 
ENDBRANCH  11  12
ENDBRANCH  10  11
ENDBRANCH   7  10
ENDBRANCH   1   5
BRANCH   3  14
ATOM     14  C   UNL d   1     -51.288  25.877  33.310  0.00  0.00     0.087 A 
ATOM     15  C   UNL d   1     -50.728  25.269  33.306  0.00  0.00     0.022 A 
ATOM     16  C   UNL d   1     -50.989  24.487  33.311  0.00  0.00     0.031 A 
ATOM     17  C   UNL d   1     -51.794  24.307  33.320  0.00  0.00     0.140 A 
ATOM     18  C   UNL d   1     -52.348  24.919  33.324  0.00  0.00     0.031 A 
ATOM     19  F   UNL d   1     -52.046  23.515  33.324  0.00  0.00    -0.204 F 
ATOM     20  C   UNL d   1     -52.095  25.704  33.319  0.00  0.00     0.022 A 
ENDBRANCH   3  14
TORSDOF 5
ENDMDL
