MODEL 1
REMARK VINA RESULT:      76.8      0.000      0.000
REMARK  6 active torsions:
REMARK  status: ('A' for Active; 'I' for Inactive)
REMARK    1  A    between atoms: C_7  and  S_1 
REMARK    2  A    between atoms: N_9  and  S_1 
REMARK    3  A    between atoms: C_20  and  N_2 
REMARK    4  A    between atoms: C_10  and  N_9 
REMARK    5  A    between atoms: O_24  and  C_13 
REMARK    6  A    between atoms: O_25  and  C_19 
ROOT
ATOM      1  N   UNL d   1     -54.979-100.125 -36.956  0.00  0.00    -0.273 N 
ATOM      2  C   UNL d   1     -55.302-100.890 -36.272  0.00  0.00     0.265 A 
ATOM      3  C   UNL d   1     -54.938-100.521 -37.662  0.00  0.00     0.067 A 
ATOM      4  C   UNL d   1     -55.157-101.300 -37.527  0.00  0.00     0.021 A 
ATOM      5  C   UNL d   1     -55.368-101.549 -36.766  0.00  0.00     0.058 A 
ATOM      6  C   UNL d   1     -54.957-101.598 -38.926  0.00  0.00     0.105 A 
ATOM      7  C   UNL d   1     -55.170-101.843 -38.148  0.00  0.00     0.014 A 
ATOM      8  C   UNL d   1     -54.728-100.270 -38.419  0.00  0.00     0.018 A 
ATOM      9  C   UNL d   1     -54.738-100.819 -39.061  0.00  0.00     0.014 A 
ATOM     10  O   UNL d   1     -55.478-100.963 -35.462  0.00  0.00    -0.267 OA
ATOM     11  C   UNL d   1     -55.586-102.324 -36.632  0.00  0.00     0.005 A 
ATOM     12  C   UNL d   1     -55.388-102.618 -38.014  0.00  0.00     0.001 A 
ATOM     13  C   UNL d   1     -55.600-102.877 -37.255  0.00  0.00     0.000 A 
ENDROOT
BRANCH   6  14
ATOM     14  S   UNL d   1     -54.969-102.142 -39.550  0.00  0.00     0.285 S 
ATOM     15  O   UNL d   1     -54.892-102.765 -39.009  0.00  0.00    -0.198 OA
ATOM     16  O   UNL d   1     -55.046-101.518 -40.096  0.00  0.00    -0.198 OA
BRANCH  14  17
ATOM     17  N   UNL d   1     -54.982-102.679 -40.172  0.00  0.00    -0.156 NA
BRANCH  17  18
ATOM     18  C   UNL d   1     -55.260-102.447 -40.904  0.00  0.00     0.116 A 
ATOM     19  C   UNL d   1     -56.046-102.534 -41.077  0.00  0.00     0.114 A 
ATOM     20  C   UNL d   1     -56.330-102.304 -41.808  0.00  0.00     0.050 A 
ATOM     21  C   UNL d   1     -55.843-101.986 -42.375  0.00  0.00     0.096 A 
ATOM     22  C   UNL d   1     -55.027-101.903 -42.177  0.00  0.00     0.026 A 
ATOM     23  C   UNL d   1     -54.741-102.132 -41.449  0.00  0.00     0.024 A 
BRANCH  19  24
ATOM     24  O   UNL d   1     -56.565-102.860 -40.506  0.00  0.00    -0.327 OA
ATOM     25  C   UNL d   1     -56.362-102.837 -39.697  0.00  0.00     0.181 C 
ENDBRANCH  19  24
BRANCH  21  26
ATOM     26  O   UNL d   1     -56.126-101.746 -43.133  0.00  0.00    -0.328 OA
ATOM     27  C   UNL d   1     -55.921-102.202 -43.810  0.00  0.00     0.181 C 
ENDBRANCH  21  26
ENDBRANCH  17  18
ENDBRANCH  14  17
ENDBRANCH   6  14
BRANCH   1  28
ATOM     28  C   UNL d   1     -54.785 -99.316 -36.925  0.00  0.00     0.083 C 
ATOM     29  C   UNL d   1     -55.207 -98.812 -36.444  0.00  0.00     0.021 C 
ENDBRANCH   1  28
TORSDOF 6
ENDMDL
MODEL 2
REMARK VINA RESULT:      79.3      2.986      6.242
REMARK  6 active torsions:
REMARK  status: ('A' for Active; 'I' for Inactive)
REMARK    1  A    between atoms: C_7  and  S_1 
REMARK    2  A    between atoms: N_9  and  S_1 
REMARK    3  A    between atoms: C_20  and  N_2 
REMARK    4  A    between atoms: C_10  and  N_9 
REMARK    5  A    between atoms: O_24  and  C_13 
REMARK    6  A    between atoms: O_25  and  C_19 
ROOT
ATOM      1  N   UNL d   1     -58.225 -99.164 -44.661  0.00  0.00    -0.273 N 
ATOM      2  C   UNL d   1     -57.768 -99.016 -45.624  0.00  0.00     0.265 A 
ATOM      3  C   UNL d   1     -57.610 -99.440 -44.211  0.00  0.00     0.067 A 
ATOM      4  C   UNL d   1     -56.945 -99.476 -44.688  0.00  0.00     0.021 A 
ATOM      5  C   UNL d   1     -56.988 -99.250 -45.484  0.00  0.00     0.058 A 
ATOM      6  C   UNL d   1     -56.172 -99.972 -43.573  0.00  0.00     0.105 A 
ATOM      7  C   UNL d   1     -56.225 -99.739 -44.383  0.00  0.00     0.014 A 
ATOM      8  C   UNL d   1     -57.570 -99.665 -43.418  0.00  0.00     0.018 A 
ATOM      9  C   UNL d   1     -56.838 -99.935 -43.096  0.00  0.00     0.014 A 
ATOM     10  O   UNL d   1     -57.991 -98.755 -46.382  0.00  0.00    -0.267 OA
ATOM     11  C   UNL d   1     -56.326 -99.286 -45.959  0.00  0.00     0.005 A 
ATOM     12  C   UNL d   1     -55.563 -99.776 -44.858  0.00  0.00     0.001 A 
ATOM     13  C   UNL d   1     -55.596 -99.551 -45.656  0.00  0.00     0.000 A 
ENDROOT
BRANCH   6  14
ATOM     14  S   UNL d   1     -55.450-100.236 -43.265  0.00  0.00     0.285 S 
ATOM     15  O   UNL d   1     -55.052 -99.905 -43.912  0.00  0.00    -0.198 OA
ATOM     16  O   UNL d   1     -55.848-100.570 -42.614  0.00  0.00    -0.198 OA
BRANCH  14  17
ATOM     17  N   UNL d   1     -54.736-100.500 -42.955  0.00  0.00    -0.156 NA
BRANCH  17  18
ATOM     18  C   UNL d   1     -54.731-101.083 -42.384  0.00  0.00     0.116 A 
ATOM     19  C   UNL d   1     -54.736-101.861 -42.609  0.00  0.00     0.114 A 
ATOM     20  C   UNL d   1     -54.731-102.449 -42.041  0.00  0.00     0.050 A 
ATOM     21  C   UNL d   1     -54.721-102.277 -41.248  0.00  0.00     0.096 A 
ATOM     22  C   UNL d   1     -54.716-101.462 -41.032  0.00  0.00     0.026 A 
ATOM     23  C   UNL d   1     -54.721-100.872 -41.596  0.00  0.00     0.024 A 
BRANCH  19  24
ATOM     24  O   UNL d   1     -54.746-102.060 -43.422  0.00  0.00    -0.327 OA
ATOM     25  C   UNL d   1     -55.261-102.656 -43.699  0.00  0.00     0.181 C 
ENDBRANCH  19  24
BRANCH  21  26
ATOM     26  O   UNL d   1     -54.716-102.877 -40.653  0.00  0.00    -0.328 OA
ATOM     27  C   UNL d   1     -55.080-102.720 -39.911  0.00  0.00     0.181 C 
ENDBRANCH  21  26
ENDBRANCH  17  18
ENDBRANCH  14  17
ENDBRANCH   6  14
BRANCH   1  28
ATOM     28  C   UNL d   1     -58.977 -99.069 -44.317  0.00  0.00     0.083 C 
ATOM     29  C   UNL d   1     -59.074 -99.152 -43.512  0.00  0.00     0.021 C 
ENDBRANCH   1  28
TORSDOF 6
ENDMDL
