MODEL 1
REMARK VINA RESULT:      44.7      0.000      0.000
REMARK  4 active torsions:
REMARK  status: ('A' for Active; 'I' for Inactive)
REMARK    1  A    between atoms: C_2  and  C_1 
REMARK    2  A    between atoms: N_12  and  C_6 
REMARK    3  A    between atoms: C_16  and  N_12 
REMARK    4  A    between atoms: O_25  and  C_17 
ROOT
ATOM      1  C   UNL d   1      13.837  14.415  -3.874  0.00  0.00     0.082 A 
ATOM      2  C   UNL d   1      13.874  14.788  -4.611  0.00  0.00     0.302 A 
ATOM      3  C   UNL d   1      14.107  14.812  -3.189  0.00  0.00     0.009 A 
ATOM      4  O   UNL d   1      14.177  15.557  -4.678  0.00  0.00    -0.273 OA
ATOM      5  C   UNL d   1      14.408  15.579  -3.261  0.00  0.00     0.025 A 
ATOM      6  C   UNL d   1      14.445  15.956  -4.006  0.00  0.00     0.103 A 
ATOM      7  O   UNL d   1      13.606  14.391  -5.287  0.00  0.00    -0.259 OA
ATOM      8  C   UNL d   1      14.674  15.973  -2.587  0.00  0.00     0.026 A 
ATOM      9  C   UNL d   1      14.748  16.719  -4.062  0.00  0.00     0.027 A 
ATOM     10  C   UNL d   1      14.976  16.738  -2.655  0.00  0.00     0.094 A 
ATOM     11  C   UNL d   1      15.012  17.110  -3.389  0.00  0.00     0.026 A 
ENDROOT
BRANCH   1  12
ATOM     12  C   UNL d   1      13.536  13.653  -3.813  0.00  0.00     0.095 A 
ATOM     13  N   UNL d   1      13.637  13.143  -3.182  0.00  0.00    -0.221 NA
ATOM     14  C   UNL d   1      13.244  12.443  -3.352  0.00  0.00     0.194 A 
ATOM     15  S   UNL d   1      12.898  12.520  -4.093  0.00  0.00    -0.046 SA
ATOM     16  C   UNL d   1      13.079  13.276  -4.383  0.00  0.00     0.058 A 
BRANCH  14  17
ATOM     17  N   UNL d   1      13.206  11.781  -2.864  0.00  0.00    -0.221 NA
BRANCH  17  18
ATOM     18  C   UNL d   1      13.625  11.781  -2.151  0.00  0.00     0.084 A 
ATOM     19  C   UNL d   1      13.207  11.780  -1.436  0.00  0.00     0.022 A 
ATOM     20  C   UNL d   1      13.613  11.779  -0.726  0.00  0.00     0.044 A 
ATOM     21  C   UNL d   1      14.441  11.780  -0.732  0.00  0.00     0.196 A 
ATOM     22  C   UNL d   1      14.854  11.781  -1.449  0.00  0.00     0.044 A 
ATOM     23  O   UNL d   1      14.852  11.779  -0.015  0.00  0.00    -0.287 OA
ATOM     24  C   UNL d   1      14.438  11.782  -2.156  0.00  0.00     0.022 A 
ENDBRANCH  17  18
ENDBRANCH  14  17
ENDBRANCH   1  12
BRANCH  10  25
ATOM     25  O   UNL d   1      15.241  17.129  -1.983  0.00  0.00    -0.328 OA
ATOM     26  C   UNL d   1      15.344  16.715  -1.280  0.00  0.00     0.181 C 
ENDBRANCH  10  25
TORSDOF 4
ENDMDL
