MODEL 1
REMARK VINA RESULT:      -6.8      0.000      0.000
REMARK  5 active torsions:
REMARK  status: ('A' for Active; 'I' for Inactive)
REMARK    1  A    between atoms: C_6  and  C_1 
REMARK    2  A    between atoms: C_7  and  C_4 
REMARK    3  A    between atoms: O_14  and  C_6 
REMARK    4  A    between atoms: O_15  and  C_9 
REMARK    5  A    between atoms: O_16  and  C_10 
ROOT
ATOM      1  C   UNL d   1     -48.307  13.318  22.538  0.00  0.00     0.027 A 
ATOM      2  C   UNL d   1     -48.765  12.707  22.859  0.00  0.00     0.028 A 
ATOM      3  C   UNL d   1     -49.557  12.635  22.656  0.00  0.00     0.116 A 
ATOM      4  C   UNL d   1     -49.901  13.174  22.129  0.00  0.00     0.116 A 
ATOM      5  C   UNL d   1     -48.650  13.857  22.012  0.00  0.00     0.004 A 
ATOM      6  C   UNL d   1     -49.450  13.781  21.810  0.00  0.00     0.026 A 
ENDROOT
BRANCH   1   7
ATOM      7  C   UNL d   1     -47.511  13.392  22.741  0.00  0.00     0.127 A 
ATOM      8  C   UNL d   1     -46.890  12.969  22.407  0.00  0.00     0.054 A 
ATOM      9  C   UNL d   1     -46.190  13.216  22.771  0.00  0.00     0.173 A 
ATOM     10  N   UNL d   1     -46.386  13.791  23.329  0.00  0.00    -0.121 NA
ATOM     11  O   UNL d   1     -47.204  13.895  23.305  0.00  0.00    -0.211 OA
BRANCH   9  12
ATOM     12  C   UNL d   1     -45.436  12.940  22.608  0.00  0.00     0.316 C 
ATOM     13  O   UNL d   1     -45.157  12.252  22.976  0.00  0.00    -0.257 OA
BRANCH  12  14
ATOM     14  O   UNL d   1     -44.953  13.346  22.078  0.00  0.00    -0.294 OA
ATOM     15  C   UNL d   1     -44.284  12.980  21.777  0.00  0.00     0.185 C 
ENDBRANCH  12  14
ENDBRANCH   9  12
ENDBRANCH   1   7
BRANCH   3  16
ATOM     16  O   UNL d   1     -50.009  12.028  22.975  0.00  0.00    -0.326 OA
ATOM     17  C   UNL d   1     -49.800  11.698  23.698  0.00  0.00     0.181 C 
ENDBRANCH   3  16
BRANCH   4  18
ATOM     18  O   UNL d   1     -50.692  13.099  21.929  0.00  0.00    -0.326 OA
ATOM     19  C   UNL d   1     -51.043  13.656  21.435  0.00  0.00     0.181 C 
ENDBRANCH   4  18
TORSDOF 5
ENDMDL
MODEL 2
REMARK VINA RESULT:      -6.7      0.519      1.399
REMARK  5 active torsions:
REMARK  status: ('A' for Active; 'I' for Inactive)
REMARK    1  A    between atoms: C_6  and  C_1 
REMARK    2  A    between atoms: C_7  and  C_4 
REMARK    3  A    between atoms: O_14  and  C_6 
REMARK    4  A    between atoms: O_15  and  C_9 
REMARK    5  A    between atoms: O_16  and  C_10 
ROOT
ATOM      1  C   UNL d   1     -48.268  12.877  23.035  0.00  0.00     0.027 A 
ATOM      2  C   UNL d   1     -48.817  13.252  22.541  0.00  0.00     0.028 A 
ATOM      3  C   UNL d   1     -49.606  13.026  22.553  0.00  0.00     0.116 A 
ATOM      4  C   UNL d   1     -49.857  12.422  23.061  0.00  0.00     0.116 A 
ATOM      5  C   UNL d   1     -48.519  12.272  23.543  0.00  0.00     0.004 A 
ATOM      6  C   UNL d   1     -49.316  12.048  23.553  0.00  0.00     0.026 A 
ENDROOT
BRANCH   1   7
ATOM      7  C   UNL d   1     -47.475  13.101  23.024  0.00  0.00     0.127 A 
ATOM      8  C   UNL d   1     -46.855  12.654  22.722  0.00  0.00     0.054 A 
ATOM      9  C   UNL d   1     -46.158  13.087  22.822  0.00  0.00     0.173 A 
ATOM     10  N   UNL d   1     -46.355  13.800  23.187  0.00  0.00    -0.121 NA
ATOM     11  O   UNL d   1     -47.171  13.803  23.309  0.00  0.00    -0.211 OA
BRANCH   9  12
ATOM     12  C   UNL d   1     -45.405  12.851  22.600  0.00  0.00     0.316 C 
ATOM     13  O   UNL d   1     -45.036  12.218  22.988  0.00  0.00    -0.257 OA
BRANCH  12  14
ATOM     14  O   UNL d   1     -45.012  13.243  21.992  0.00  0.00    -0.294 OA
ATOM     15  C   UNL d   1     -44.297  12.952  21.716  0.00  0.00     0.185 C 
ENDBRANCH  12  14
ENDBRANCH   9  12
ENDBRANCH   1   7
BRANCH   3  16
ATOM     16  O   UNL d   1     -50.147  13.401  22.062  0.00  0.00    -0.326 OA
ATOM     17  C   UNL d   1     -49.884  13.816  21.404  0.00  0.00     0.181 C 
ENDBRANCH   3  16
BRANCH   4  18
ATOM     18  O   UNL d   1     -50.645  12.200  23.071  0.00  0.00    -0.326 OA
ATOM     19  C   UNL d   1     -50.936  11.752  23.698  0.00  0.00     0.181 C 
ENDBRANCH   4  18
TORSDOF 5
ENDMDL
MODEL 3
REMARK VINA RESULT:      -6.6      1.321      4.045
REMARK  5 active torsions:
REMARK  status: ('A' for Active; 'I' for Inactive)
REMARK    1  A    between atoms: C_6  and  C_1 
REMARK    2  A    between atoms: C_7  and  C_4 
REMARK    3  A    between atoms: O_14  and  C_6 
REMARK    4  A    between atoms: O_15  and  C_9 
REMARK    5  A    between atoms: O_16  and  C_10 
ROOT
ATOM      1  C   UNL d   1     -47.231  13.663  22.757  0.00  0.00     0.027 A 
ATOM      2  C   UNL d   1     -47.047  12.974  23.178  0.00  0.00     0.028 A 
ATOM      3  C   UNL d   1     -46.302  12.635  23.109  0.00  0.00     0.116 A 
ATOM      4  C   UNL d   1     -45.732  12.980  22.618  0.00  0.00     0.116 A 
ATOM      5  C   UNL d   1     -46.661  14.009  22.265  0.00  0.00     0.004 A 
ATOM      6  C   UNL d   1     -45.912  13.663  22.198  0.00  0.00     0.026 A 
ENDROOT
BRANCH   1   7
ATOM      7  C   UNL d   1     -47.978  14.006  22.824  0.00  0.00     0.127 A 
ATOM      8  C   UNL d   1     -48.585  13.942  22.274  0.00  0.00     0.054 A 
ATOM      9  C   UNL d   1     -49.233  14.368  22.561  0.00  0.00     0.173 A 
ATOM     10  N   UNL d   1     -49.018  14.693  23.288  0.00  0.00    -0.121 NA
ATOM     11  O   UNL d   1     -48.240  14.465  23.445  0.00  0.00    -0.211 OA
BRANCH   9  12
ATOM     12  C   UNL d   1     -49.959  14.454  22.191  0.00  0.00     0.316 C 
ATOM     13  O   UNL d   1     -50.341  15.190  22.190  0.00  0.00    -0.257 OA
BRANCH  12  14
ATOM     14  O   UNL d   1     -50.312  13.809  21.819  0.00  0.00    -0.294 OA
ATOM     15  C   UNL d   1     -51.064  13.885  21.502  0.00  0.00     0.185 C 
ENDBRANCH  12  14
ENDBRANCH   9  12
ENDBRANCH   1   7
BRANCH   3  16
ATOM     16  O   UNL d   1     -46.123  11.952  23.529  0.00  0.00    -0.326 OA
ATOM     17  C   UNL d   1     -46.714  11.407  23.697  0.00  0.00     0.181 C 
ENDBRANCH   3  16
BRANCH   4  18
ATOM     18  O   UNL d   1     -44.991  12.639  22.551  0.00  0.00    -0.326 OA
ATOM     19  C   UNL d   1     -44.470  12.901  21.970  0.00  0.00     0.181 C 
ENDBRANCH   4  18
TORSDOF 5
ENDMDL
MODEL 4
REMARK VINA RESULT:      -6.6      1.521      4.320
REMARK  5 active torsions:
REMARK  status: ('A' for Active; 'I' for Inactive)
REMARK    1  A    between atoms: C_6  and  C_1 
REMARK    2  A    between atoms: C_7  and  C_4 
REMARK    3  A    between atoms: O_14  and  C_6 
REMARK    4  A    between atoms: O_15  and  C_9 
REMARK    5  A    between atoms: O_16  and  C_10 
ROOT
ATOM      1  C   UNL d   1     -48.047  12.080  23.349  0.00  0.00     0.027 A 
ATOM      2  C   UNL d   1     -47.475  12.666  23.229  0.00  0.00     0.028 A 
ATOM      3  C   UNL d   1     -46.679  12.495  23.337  0.00  0.00     0.116 A 
ATOM      4  C   UNL d   1     -46.446  11.734  23.566  0.00  0.00     0.116 A 
ATOM      5  C   UNL d   1     -47.815  11.319  23.578  0.00  0.00     0.004 A 
ATOM      6  C   UNL d   1     -47.012  11.150  23.686  0.00  0.00     0.026 A 
ENDROOT
BRANCH   1   7
ATOM      7  C   UNL d   1     -48.847  12.251  23.241  0.00  0.00     0.127 A 
ATOM      8  C   UNL d   1     -49.158  12.737  22.656  0.00  0.00     0.054 A 
ATOM      9  C   UNL d   1     -49.979  12.754  22.750  0.00  0.00     0.173 A 
ATOM     10  N   UNL d   1     -50.168  12.276  23.396  0.00  0.00    -0.121 NA
ATOM     11  O   UNL d   1     -49.463  11.968  23.695  0.00  0.00    -0.211 OA
BRANCH   9  12
ATOM     12  C   UNL d   1     -50.512  13.170  22.287  0.00  0.00     0.316 C 
ATOM     13  O   UNL d   1     -51.007  12.766  21.759  0.00  0.00    -0.257 OA
BRANCH  12  14
ATOM     14  O   UNL d   1     -50.557  13.990  22.345  0.00  0.00    -0.294 OA
ATOM     15  C   UNL d   1     -51.055  14.406  21.844  0.00  0.00     0.185 C 
ENDBRANCH  12  14
ENDBRANCH   9  12
ENDBRANCH   1   7
BRANCH   3  16
ATOM     16  O   UNL d   1     -46.114  13.078  23.217  0.00  0.00    -0.326 OA
ATOM     17  C   UNL d   1     -46.345  13.862  23.137  0.00  0.00     0.181 C 
ENDBRANCH   3  16
BRANCH   4  18
ATOM     18  O   UNL d   1     -45.652  11.566  23.673  0.00  0.00    -0.326 OA
ATOM     19  C   UNL d   1     -45.399  10.783  23.697  0.00  0.00     0.181 C 
ENDBRANCH   4  18
TORSDOF 5
ENDMDL
MODEL 5
REMARK VINA RESULT:      -6.3      1.460      2.107
REMARK  5 active torsions:
REMARK  status: ('A' for Active; 'I' for Inactive)
REMARK    1  A    between atoms: C_6  and  C_1 
REMARK    2  A    between atoms: C_7  and  C_4 
REMARK    3  A    between atoms: O_14  and  C_6 
REMARK    4  A    between atoms: O_15  and  C_9 
REMARK    5  A    between atoms: O_16  and  C_10 
ROOT
ATOM      1  C   UNL d   1     -46.715  13.387  22.517  0.00  0.00     0.027 A 
ATOM      2  C   UNL d   1     -47.380  12.991  22.221  0.00  0.00     0.028 A 
ATOM      3  C   UNL d   1     -48.117  13.353  22.235  0.00  0.00     0.116 A 
ATOM      4  C   UNL d   1     -48.198  14.116  22.545  0.00  0.00     0.116 A 
ATOM      5  C   UNL d   1     -46.797  14.150  22.828  0.00  0.00     0.004 A 
ATOM      6  C   UNL d   1     -47.541  14.512  22.840  0.00  0.00     0.026 A 
ENDROOT
BRANCH   1   7
ATOM      7  C   UNL d   1     -45.974  13.025  22.504  0.00  0.00     0.127 A 
ATOM      8  C   UNL d   1     -45.778  12.322  22.882  0.00  0.00     0.054 A 
ATOM      9  C   UNL d   1     -44.983  12.163  22.725  0.00  0.00     0.173 A 
ATOM     10  N   UNL d   1     -44.694  12.771  22.248  0.00  0.00    -0.121 NA
ATOM     11  O   UNL d   1     -45.313  13.302  22.116  0.00  0.00    -0.211 OA
BRANCH   9  12
ATOM     12  C   UNL d   1     -44.555  11.517  22.992  0.00  0.00     0.316 C 
ATOM     13  O   UNL d   1     -43.785  11.385  22.716  0.00  0.00    -0.257 OA
BRANCH  12  14
ATOM     14  O   UNL d   1     -44.890  10.997  23.536  0.00  0.00    -0.294 OA
ATOM     15  C   UNL d   1     -44.519  10.284  23.698  0.00  0.00     0.185 C 
ENDBRANCH  12  14
ENDBRANCH   9  12
ENDBRANCH   1   7
BRANCH   3  16
ATOM     16  O   UNL d   1     -48.773  12.957  21.940  0.00  0.00    -0.326 OA
ATOM     17  C   UNL d   1     -48.808  12.138  21.977  0.00  0.00     0.181 C 
ENDBRANCH   3  16
BRANCH   4  18
ATOM     18  O   UNL d   1     -48.935  14.475  22.558  0.00  0.00    -0.326 OA
ATOM     19  C   UNL d   1     -48.999  15.270  22.760  0.00  0.00     0.181 C 
ENDBRANCH   4  18
TORSDOF 5
ENDMDL
MODEL 6
REMARK VINA RESULT:      -5.6      8.471      9.494
REMARK  5 active torsions:
REMARK  status: ('A' for Active; 'I' for Inactive)
REMARK    1  A    between atoms: C_6  and  C_1 
REMARK    2  A    between atoms: C_7  and  C_4 
REMARK    3  A    between atoms: O_14  and  C_6 
REMARK    4  A    between atoms: O_15  and  C_9 
REMARK    5  A    between atoms: O_16  and  C_10 
ROOT
ATOM      1  C   UNL d   1     -39.968  14.580  19.637  0.00  0.00     0.027 A 
ATOM      2  C   UNL d   1     -39.223  14.236  19.755  0.00  0.00     0.028 A 
ATOM      3  C   UNL d   1     -38.866  14.267  20.493  0.00  0.00     0.116 A 
ATOM      4  C   UNL d   1     -39.250  14.642  21.124  0.00  0.00     0.116 A 
ATOM      5  C   UNL d   1     -40.351  14.955  20.268  0.00  0.00     0.004 A 
ATOM      6  C   UNL d   1     -39.988  14.984  21.011  0.00  0.00     0.026 A 
ENDROOT
BRANCH   1   7
ATOM      7  C   UNL d   1     -40.328  14.551  18.896  0.00  0.00     0.127 A 
ATOM      8  C   UNL d   1     -40.351  15.166  18.351  0.00  0.00     0.054 A 
ATOM      9  C   UNL d   1     -40.765  14.899  17.686  0.00  0.00     0.173 A 
ATOM     10  N   UNL d   1     -40.994  14.120  17.828  0.00  0.00    -0.121 NA
ATOM     11  O   UNL d   1     -40.721  13.910  18.578  0.00  0.00    -0.211 OA
BRANCH   9  12
ATOM     12  C   UNL d   1     -40.921  15.331  17.007  0.00  0.00     0.316 C 
ATOM     13  O   UNL d   1     -40.316  15.764  16.642  0.00  0.00    -0.257 OA
BRANCH  12  14
ATOM     14  O   UNL d   1     -41.680  15.336  16.686  0.00  0.00    -0.294 OA
ATOM     15  C   UNL d   1     -41.891  15.920  16.151  0.00  0.00     0.185 C 
ENDBRANCH  12  14
ENDBRANCH   9  12
ENDBRANCH   1   7
BRANCH   3  16
ATOM     16  O   UNL d   1     -38.128  13.925  20.606  0.00  0.00    -0.326 OA
ATOM     17  C   UNL d   1     -37.940  13.222  20.226  0.00  0.00     0.181 C 
ENDBRANCH   3  16
BRANCH   4  18
ATOM     18  O   UNL d   1     -38.891  14.670  21.860  0.00  0.00    -0.326 OA
ATOM     19  C   UNL d   1     -39.215  15.136  22.456  0.00  0.00     0.181 C 
ENDBRANCH   4  18
TORSDOF 5
ENDMDL
MODEL 7
REMARK VINA RESULT:      -5.0      8.261      9.391
REMARK  5 active torsions:
REMARK  status: ('A' for Active; 'I' for Inactive)
REMARK    1  A    between atoms: C_6  and  C_1 
REMARK    2  A    between atoms: C_7  and  C_4 
REMARK    3  A    between atoms: O_14  and  C_6 
REMARK    4  A    between atoms: O_15  and  C_9 
REMARK    5  A    between atoms: O_16  and  C_10 
ROOT
ATOM      1  C   UNL d   1     -40.000  14.534  18.645  0.00  0.00     0.027 A 
ATOM      2  C   UNL d   1     -40.473  14.887  18.063  0.00  0.00     0.028 A 
ATOM      3  C   UNL d   1     -40.258  14.840  17.272  0.00  0.00     0.116 A 
ATOM      4  C   UNL d   1     -39.567  14.439  17.053  0.00  0.00     0.116 A 
ATOM      5  C   UNL d   1     -39.310  14.133  18.426  0.00  0.00     0.004 A 
ATOM      6  C   UNL d   1     -39.096  14.088  17.627  0.00  0.00     0.026 A 
ENDROOT
BRANCH   1   7
ATOM      7  C   UNL d   1     -40.214  14.579  19.440  0.00  0.00     0.127 A 
ATOM      8  C   UNL d   1     -39.817  15.008  20.018  0.00  0.00     0.054 A 
ATOM      9  C   UNL d   1     -40.218  14.900  20.733  0.00  0.00     0.173 A 
ATOM     10  N   UNL d   1     -40.861  14.404  20.589  0.00  0.00    -0.121 NA
ATOM     11  O   UNL d   1     -40.853  14.210  19.787  0.00  0.00    -0.211 OA
BRANCH   9  12
ATOM     12  C   UNL d   1     -40.015  15.226  21.457  0.00  0.00     0.316 C 
ATOM     13  O   UNL d   1     -40.382  15.922  21.717  0.00  0.00    -0.257 OA
BRANCH  12  14
ATOM     14  O   UNL d   1     -39.445  14.862  21.928  0.00  0.00    -0.294 OA
ATOM     15  C   UNL d   1     -39.189  15.232  22.613  0.00  0.00     0.185 C 
ENDBRANCH  12  14
ENDBRANCH   9  12
ENDBRANCH   1   7
BRANCH   3  16
ATOM     16  O   UNL d   1     -40.729  15.191  16.698  0.00  0.00    -0.326 OA
ATOM     17  C   UNL d   1     -41.262  15.780  16.909  0.00  0.00     0.181 C 
ENDBRANCH   3  16
BRANCH   4  18
ATOM     18  O   UNL d   1     -39.356  14.395  16.263  0.00  0.00    -0.326 OA
ATOM     19  C   UNL d   1     -38.630  14.070  16.051  0.00  0.00     0.181 C 
ENDBRANCH   4  18
TORSDOF 5
ENDMDL
MODEL 8
REMARK VINA RESULT:      -5.0      7.700      9.399
REMARK  5 active torsions:
REMARK  status: ('A' for Active; 'I' for Inactive)
REMARK    1  A    between atoms: C_6  and  C_1 
REMARK    2  A    between atoms: C_7  and  C_4 
REMARK    3  A    between atoms: O_14  and  C_6 
REMARK    4  A    between atoms: O_15  and  C_9 
REMARK    5  A    between atoms: O_16  and  C_10 
ROOT
ATOM      1  C   UNL d   1     -39.873  14.543  19.663  0.00  0.00     0.027 A 
ATOM      2  C   UNL d   1     -40.404  15.082  20.001  0.00  0.00     0.028 A 
ATOM      3  C   UNL d   1     -40.345  15.277  20.796  0.00  0.00     0.116 A 
ATOM      4  C   UNL d   1     -39.753  14.934  21.264  0.00  0.00     0.116 A 
ATOM      5  C   UNL d   1     -39.282  14.201  20.131  0.00  0.00     0.004 A 
ATOM      6  C   UNL d   1     -39.225  14.400  20.933  0.00  0.00     0.026 A 
ENDROOT
BRANCH   1   7
ATOM      7  C   UNL d   1     -39.930  14.347  18.864  0.00  0.00     0.127 A 
ATOM      8  C   UNL d   1     -39.485  14.676  18.257  0.00  0.00     0.054 A 
ATOM      9  C   UNL d   1     -39.721  14.321  17.549  0.00  0.00     0.173 A 
ATOM     10  N   UNL d   1     -40.311  13.774  17.726  0.00  0.00    -0.121 NA
ATOM     11  O   UNL d   1     -40.437  13.794  18.542  0.00  0.00    -0.211 OA
BRANCH   9  12
ATOM     12  C   UNL d   1     -39.422  14.483  16.803  0.00  0.00     0.316 C 
ATOM     13  O   UNL d   1     -39.543  15.227  16.459  0.00  0.00    -0.257 OA
BRANCH  12  14
ATOM     14  O   UNL d   1     -39.000  13.905  16.393  0.00  0.00    -0.294 OA
ATOM     15  C   UNL d   1     -38.564  14.115  15.731  0.00  0.00     0.185 C 
ENDBRANCH  12  14
ENDBRANCH   9  12
ENDBRANCH   1   7
BRANCH   3  16
ATOM     16  O   UNL d   1     -40.873  15.811  21.128  0.00  0.00    -0.326 OA
ATOM     17  C   UNL d   1     -41.612  15.921  20.788  0.00  0.00     0.181 C 
ENDBRANCH   3  16
BRANCH   4  18
ATOM     18  O   UNL d   1     -39.697  15.131  22.058  0.00  0.00    -0.326 OA
ATOM     19  C   UNL d   1     -39.074  14.838  22.508  0.00  0.00     0.181 C 
ENDBRANCH   4  18
TORSDOF 5
ENDMDL
