MODEL 1
REMARK VINA RESULT:      -8.0      0.000      0.000
REMARK  2 active torsions:
REMARK  status: ('A' for Active; 'I' for Inactive)
REMARK    1  A    between atoms: C_2  and  N_1 
REMARK    2  A    between atoms: C_5  and  C_7 
ROOT
ATOM      1  C   UNL d   1     -47.965  13.286  22.548  0.00  0.00     0.070 A 
ATOM      2  C   UNL d   1     -47.270  12.847  22.648  0.00  0.00     0.024 A 
ATOM      3  C   UNL d   1     -46.572  13.224  22.846  0.00  0.00     0.066 A 
ATOM      4  C   UNL d   1     -47.963  14.102  22.647  0.00  0.00     0.018 A 
ATOM      5  C   UNL d   1     -46.566  14.048  22.947  0.00  0.00     0.006 A 
ATOM      6  C   UNL d   1     -47.261  14.487  22.848  0.00  0.00     0.002 A 
ENDROOT
BRANCH   1   7
ATOM      7  N   UNL d   1     -48.670  12.910  22.347  0.00  0.00    -0.242 N 
ATOM      8  C   UNL d   1     -49.252  12.622  22.862  0.00  0.00     0.267 A 
ATOM      9  C   UNL d   1     -49.856  12.290  22.418  0.00  0.00     0.066 A 
ATOM     10  O   UNL d   1     -49.266  12.642  23.698  0.00  0.00    -0.267 OA
ATOM     11  C   UNL d   1     -49.661  12.366  21.617  0.00  0.00     0.066 A 
ATOM     12  C   UNL d   1     -48.930  12.747  21.575  0.00  0.00     0.267 A 
ATOM     13  O   UNL d   1     -48.554  12.921  20.856  0.00  0.00    -0.267 OA
ENDBRANCH   1   7
BRANCH   3  14
ATOM     14  C   UNL d   1     -45.876  12.801  22.948  0.00  0.00     0.211 C 
ATOM     15  O   UNL d   1     -45.814  12.231  23.534  0.00  0.00    -0.644 OA
ATOM     16  O   UNL d   1     -45.232  12.956  22.448  0.00  0.00    -0.644 OA
ENDBRANCH   3  14
TORSDOF 2
ENDMDL
MODEL 2
REMARK VINA RESULT:      -7.8      1.041      1.493
REMARK  2 active torsions:
REMARK  status: ('A' for Active; 'I' for Inactive)
REMARK    1  A    between atoms: C_2  and  N_1 
REMARK    2  A    between atoms: C_5  and  C_7 
ROOT
ATOM      1  C   UNL d   1     -48.425  12.585  22.871  0.00  0.00     0.070 A 
ATOM      2  C   UNL d   1     -47.653  12.873  22.954  0.00  0.00     0.024 A 
ATOM      3  C   UNL d   1     -47.095  12.440  23.365  0.00  0.00     0.066 A 
ATOM      4  C   UNL d   1     -48.639  11.862  23.199  0.00  0.00     0.018 A 
ATOM      5  C   UNL d   1     -47.307  11.710  23.698  0.00  0.00     0.006 A 
ATOM      6  C   UNL d   1     -48.079  11.421  23.615  0.00  0.00     0.002 A 
ENDROOT
BRANCH   1   7
ATOM      7  N   UNL d   1     -48.990  13.019  22.457  0.00  0.00    -0.242 N 
ATOM      8  C   UNL d   1     -49.546  13.549  22.768  0.00  0.00     0.267 A 
ATOM      9  C   UNL d   1     -49.994  13.852  22.153  0.00  0.00     0.066 A 
ATOM     10  O   UNL d   1     -49.668  13.769  23.566  0.00  0.00    -0.267 OA
ATOM     11  C   UNL d   1     -49.724  13.516  21.445  0.00  0.00     0.066 A 
ATOM     12  C   UNL d   1     -49.106  13.004  21.635  0.00  0.00     0.267 A 
ATOM     13  O   UNL d   1     -48.695  12.564  21.063  0.00  0.00    -0.267 OA
ENDBRANCH   1   7
BRANCH   3  14
ATOM     14  C   UNL d   1     -46.327  12.714  23.455  0.00  0.00     0.211 C 
ATOM     15  O   UNL d   1     -46.182  13.486  23.691  0.00  0.00    -0.644 OA
ATOM     16  O   UNL d   1     -45.694  12.200  23.302  0.00  0.00    -0.644 OA
ENDBRANCH   3  14
TORSDOF 2
ENDMDL
MODEL 3
REMARK VINA RESULT:      -7.6      1.492      2.172
REMARK  2 active torsions:
REMARK  status: ('A' for Active; 'I' for Inactive)
REMARK    1  A    between atoms: C_2  and  N_1 
REMARK    2  A    between atoms: C_5  and  C_7 
ROOT
ATOM      1  C   UNL d   1     -48.433  13.931  22.611  0.00  0.00     0.070 A 
ATOM      2  C   UNL d   1     -47.704  13.901  23.004  0.00  0.00     0.024 A 
ATOM      3  C   UNL d   1     -47.115  13.400  22.737  0.00  0.00     0.066 A 
ATOM      4  C   UNL d   1     -48.573  13.460  21.953  0.00  0.00     0.018 A 
ATOM      5  C   UNL d   1     -47.254  12.923  22.072  0.00  0.00     0.006 A 
ATOM      6  C   UNL d   1     -47.983  12.953  21.680  0.00  0.00     0.002 A 
ENDROOT
BRANCH   1   7
ATOM      7  N   UNL d   1     -49.028  14.436  22.877  0.00  0.00    -0.242 N 
ATOM      8  C   UNL d   1     -49.117  15.242  22.711  0.00  0.00     0.267 A 
ATOM      9  C   UNL d   1     -49.788  15.518  23.093  0.00  0.00     0.066 A 
ATOM     10  O   UNL d   1     -48.633  15.735  22.240  0.00  0.00    -0.267 OA
ATOM     11  C   UNL d   1     -50.130  14.885  23.505  0.00  0.00     0.066 A 
ATOM     12  C   UNL d   1     -49.661  14.220  23.371  0.00  0.00     0.267 A 
ATOM     13  O   UNL d   1     -49.831  13.476  23.698  0.00  0.00    -0.267 OA
ENDBRANCH   1   7
BRANCH   3  14
ATOM     14  C   UNL d   1     -46.389  13.361  23.117  0.00  0.00     0.211 C 
ATOM     15  O   UNL d   1     -45.788  13.885  22.928  0.00  0.00    -0.644 OA
ATOM     16  O   UNL d   1     -46.268  12.781  23.698  0.00  0.00    -0.644 OA
ENDBRANCH   3  14
TORSDOF 2
ENDMDL
MODEL 4
REMARK VINA RESULT:      -7.3      1.458      2.973
REMARK  2 active torsions:
REMARK  status: ('A' for Active; 'I' for Inactive)
REMARK    1  A    between atoms: C_2  and  N_1 
REMARK    2  A    between atoms: C_5  and  C_7 
ROOT
ATOM      1  C   UNL d   1     -48.139  13.019  22.654  0.00  0.00     0.070 A 
ATOM      2  C   UNL d   1     -48.544  13.617  23.059  0.00  0.00     0.024 A 
ATOM      3  C   UNL d   1     -49.043  14.121  22.653  0.00  0.00     0.066 A 
ATOM      4  C   UNL d   1     -48.232  12.925  21.843  0.00  0.00     0.018 A 
ATOM      5  C   UNL d   1     -49.141  14.030  21.834  0.00  0.00     0.006 A 
ATOM      6  C   UNL d   1     -48.735  13.432  21.429  0.00  0.00     0.002 A 
ENDROOT
BRANCH   1   7
ATOM      7  N   UNL d   1     -47.634  12.508  23.060  0.00  0.00    -0.242 N 
ATOM      8  C   UNL d   1     -46.852  12.652  23.292  0.00  0.00     0.267 A 
ATOM      9  C   UNL d   1     -46.567  11.989  23.681  0.00  0.00     0.066 A 
ATOM     10  O   UNL d   1     -46.390  13.338  23.173  0.00  0.00    -0.267 OA
ATOM     11  C   UNL d   1     -47.168  11.420  23.698  0.00  0.00     0.066 A 
ATOM     12  C   UNL d   1     -47.825  11.741  23.315  0.00  0.00     0.267 A 
ATOM     13  O   UNL d   1     -48.539  11.328  23.224  0.00  0.00    -0.267 OA
ENDBRANCH   1   7
BRANCH   3  14
ATOM     14  C   UNL d   1     -49.451  14.718  23.043  0.00  0.00     0.211 C 
ATOM     15  O   UNL d   1     -50.109  14.547  23.500  0.00  0.00    -0.644 OA
ATOM     16  O   UNL d   1     -49.187  15.501  22.968  0.00  0.00    -0.644 OA
ENDBRANCH   3  14
TORSDOF 2
ENDMDL
