MODEL 1
REMARK VINA RESULT:      52.5      0.000      0.000
REMARK  9 active torsions:
REMARK  status: ('A' for Active; 'I' for Inactive)
REMARK    1  A    between atoms: P_3  and  C_1 
REMARK    2  A    between atoms: O_13  and  P_3 
REMARK    3  A    between atoms: O_14  and  P_3 
REMARK    4  A    between atoms: N_8  and  C_4 
REMARK    5  A    between atoms: C_15  and  N_8 
REMARK    6  A    between atoms: C_25  and  O_13 
REMARK    7  A    between atoms: C_26  and  O_14 
REMARK    8  A    between atoms: O_23  and  C_16 
REMARK    9  A    between atoms: O_24  and  C_17 
ROOT
ATOM      1  C   UNL d   1      14.628  15.087  -2.552  0.00  0.00     0.174 A 
ATOM      2  C   UNL d   1      13.983  14.639  -2.826  0.00  0.00     0.100 A 
ATOM      3  C   UNL d   1      13.819  13.903  -2.489  0.00  0.00     0.095 A 
ATOM      4  N   UNL d   1      15.104  14.794  -1.943  0.00  0.00    -0.237 NA
ATOM      5  C   UNL d   1      14.294  13.613  -1.883  0.00  0.00     0.038 A 
ATOM      6  C   UNL d   1      14.940  14.060  -1.609  0.00  0.00     0.083 A 
ATOM      7  C   UNL d   1      14.129  12.882  -1.551  0.00  0.00     0.027 A 
ATOM      8 CL   UNL d   1      13.506  14.935  -3.437  0.00  0.00    -0.079 Cl
ATOM      9  C   UNL d   1      15.414  13.770  -1.003  0.00  0.00     0.021 A 
ATOM     10  C   UNL d   1      14.606  12.583  -0.938  0.00  0.00     0.094 A 
ATOM     11  C   UNL d   1      15.250  13.037  -0.669  0.00  0.00     0.026 A 
ENDROOT
BRANCH   3  12
ATOM     12  N   UNL d   1      13.176  13.457  -2.762  0.00  0.00    -0.245 NA
BRANCH  12  13
ATOM     13  C   UNL d   1      13.231  13.033  -3.474  0.00  0.00     0.082 A 
ATOM     14  C   UNL d   1      12.916  13.354  -4.163  0.00  0.00     0.021 A 
ATOM     15  C   UNL d   1      12.966  12.938  -4.882  0.00  0.00     0.026 A 
ATOM     16  C   UNL d   1      13.336  12.196  -4.898  0.00  0.00     0.094 A 
ATOM     17  C   UNL d   1      13.654  11.876  -4.196  0.00  0.00     0.026 A 
ATOM     18  C   UNL d   1      13.599  12.296  -3.490  0.00  0.00     0.021 A 
BRANCH  16  19
ATOM     19  O   UNL d   1      13.387  11.780  -5.609  0.00  0.00    -0.328 OA
ATOM     20  C   UNL d   1      12.845  11.940  -6.220  0.00  0.00     0.181 C 
ENDBRANCH  16  19
ENDBRANCH  12  13
ENDBRANCH   3  12
BRANCH   1  21
ATOM     21  P   UNL d   1      14.795  15.828  -2.889  0.00  0.00     0.393 P 
ATOM     22  O   UNL d   1      14.996  15.453  -3.597  0.00  0.00    -0.251 OA
BRANCH  21  23
ATOM     23  O   UNL d   1      14.952  16.578  -3.198  0.00  0.00    -0.263 OA
BRANCH  23  24
ATOM     24  C   UNL d   1      15.430  16.660  -3.865  0.00  0.00     0.126 C 
ATOM     25  C   UNL d   1      15.196  17.149  -4.487  0.00  0.00     0.029 C 
ENDBRANCH  23  24
ENDBRANCH  21  23
BRANCH  21  26
ATOM     26  O   UNL d   1      14.639  16.377  -2.282  0.00  0.00    -0.263 OA
BRANCH  26  27
ATOM     27  C   UNL d   1      15.260  16.747  -1.883  0.00  0.00     0.126 C 
ATOM     28  C   UNL d   1      15.103  17.310  -1.301  0.00  0.00     0.029 C 
ENDBRANCH  26  27
ENDBRANCH  21  26
ENDBRANCH   1  21
BRANCH  10  29
ATOM     29  O   UNL d   1      14.442  11.850  -0.603  0.00  0.00    -0.328 OA
ATOM     30  C   UNL d   1      13.843  11.779  -0.044  0.00  0.00     0.181 C 
ENDBRANCH  10  29
TORSDOF 9
ENDMDL
MODEL 2
REMARK VINA RESULT:      54.2      1.293      3.790
REMARK  9 active torsions:
REMARK  status: ('A' for Active; 'I' for Inactive)
REMARK    1  A    between atoms: P_3  and  C_1 
REMARK    2  A    between atoms: O_13  and  P_3 
REMARK    3  A    between atoms: O_14  and  P_3 
REMARK    4  A    between atoms: N_8  and  C_4 
REMARK    5  A    between atoms: C_15  and  N_8 
REMARK    6  A    between atoms: C_25  and  O_13 
REMARK    7  A    between atoms: C_26  and  O_14 
REMARK    8  A    between atoms: O_23  and  C_16 
REMARK    9  A    between atoms: O_24  and  C_17 
ROOT
ATOM      1  C   UNL d   1      14.332  13.367  -1.735  0.00  0.00     0.174 A 
ATOM      2  C   UNL d   1      13.994  14.047  -2.074  0.00  0.00     0.100 A 
ATOM      3  C   UNL d   1      13.618  13.998  -2.808  0.00  0.00     0.095 A 
ATOM      4  N   UNL d   1      14.291  12.644  -2.132  0.00  0.00    -0.237 NA
ATOM      5  C   UNL d   1      13.578  13.277  -3.203  0.00  0.00     0.038 A 
ATOM      6  C   UNL d   1      13.915  12.597  -2.863  0.00  0.00     0.083 A 
ATOM      7  C   UNL d   1      13.204  13.233  -3.930  0.00  0.00     0.027 A 
ATOM      8 CL   UNL d   1      14.037  14.772  -1.674  0.00  0.00    -0.079 Cl
ATOM      9  C   UNL d   1      13.875  11.876  -3.257  0.00  0.00     0.021 A 
ATOM     10  C   UNL d   1      13.160  12.505  -4.334  0.00  0.00     0.094 A 
ATOM     11  C   UNL d   1      13.500  11.829  -3.988  0.00  0.00     0.026 A 
ENDROOT
BRANCH   3  12
ATOM     12  N   UNL d   1      13.282  14.676  -3.147  0.00  0.00    -0.245 NA
BRANCH  12  13
ATOM     13  C   UNL d   1      13.764  15.259  -3.488  0.00  0.00     0.082 A 
ATOM     14  C   UNL d   1      13.739  15.382  -4.301  0.00  0.00     0.021 A 
ATOM     15  C   UNL d   1      14.219  15.964  -4.653  0.00  0.00     0.026 A 
ATOM     16  C   UNL d   1      14.722  16.419  -4.176  0.00  0.00     0.094 A 
ATOM     17  C   UNL d   1      14.744  16.290  -3.353  0.00  0.00     0.026 A 
ATOM     18  C   UNL d   1      14.265  15.711  -3.014  0.00  0.00     0.021 A 
BRANCH  16  19
ATOM     19  O   UNL d   1      15.200  16.997  -4.522  0.00  0.00    -0.328 OA
ATOM     20  C   UNL d   1      16.028  16.924  -4.484  0.00  0.00     0.181 C 
ENDBRANCH  16  19
ENDBRANCH  12  13
ENDBRANCH   3  12
BRANCH   1  21
ATOM     21  P   UNL d   1      14.712  13.414  -0.996  0.00  0.00     0.393 P 
ATOM     22  O   UNL d   1      15.373  13.743  -1.365  0.00  0.00    -0.251 OA
BRANCH  21  23
ATOM     23  O   UNL d   1      15.063  13.449  -0.250  0.00  0.00    -0.263 OA
BRANCH  23  24
ATOM     24  C   UNL d   1      15.859  13.255  -0.156  0.00  0.00     0.126 C 
ATOM     25  C   UNL d   1      16.444  13.821  -0.292  0.00  0.00     0.029 C 
ENDBRANCH  23  24
ENDBRANCH  21  23
BRANCH  21  26
ATOM     26  O   UNL d   1      14.159  13.104  -0.454  0.00  0.00    -0.263 OA
BRANCH  26  27
ATOM     27  C   UNL d   1      14.299  12.383  -0.080  0.00  0.00     0.126 C 
ATOM     28  C   UNL d   1      13.701  11.818  -0.027  0.00  0.00     0.029 C 
ENDBRANCH  26  27
ENDBRANCH  21  26
ENDBRANCH   1  21
BRANCH  10  29
ATOM     29  O   UNL d   1      12.785  12.458  -5.065  0.00  0.00    -0.328 OA
ATOM     30  C   UNL d   1      12.917  11.809  -5.552  0.00  0.00     0.181 C 
ENDBRANCH  10  29
TORSDOF 9
ENDMDL
