MODEL 1
REMARK VINA RESULT:       1.8      0.000      0.000
REMARK  3 active torsions:
REMARK  status: ('A' for Active; 'I' for Inactive)
REMARK    1  A    between atoms: C_5  and  C_2 
REMARK    2  A    between atoms: C_10  and  C_4 
REMARK    3  A    between atoms: O_19  and  C_16 
ROOT
ATOM      1  N   UNL d   1     -41.168-121.661 -53.273  0.00  0.00    -0.245 NA
ATOM      2  C   UNL d   1     -41.231-121.468 -52.484  0.00  0.00     0.088 A 
ATOM      3  S   UNL d   1     -41.617-123.267 -52.450  0.00  0.00    -0.085 SA
ATOM      4  C   UNL d   1     -41.596-122.770 -51.817  0.00  0.00     0.031 A 
ATOM      5  C   UNL d   1     -41.419-121.950 -51.831  0.00  0.00     0.026 A 
ATOM      6  C   UNL d   1     -41.282-122.401 -53.603  0.00  0.00     0.087 A 
ATOM      7  C   UNL d   1     -41.481-123.112 -53.238  0.00  0.00     0.047 A 
ATOM      8  C   UNL d   1     -41.172-122.391 -54.416  0.00  0.00     0.020 A 
ATOM      9  C   UNL d   1     -41.572-123.817 -53.684  0.00  0.00     0.008 A 
ATOM     10  C   UNL d   1     -41.254-123.058 -54.869  0.00  0.00     0.002 A 
ATOM     11  C   UNL d   1     -41.453-123.768 -54.505  0.00  0.00     0.001 A 
ENDROOT
BRANCH   4  12
ATOM     12  C   UNL d   1     -41.750-123.027 -51.062  0.00  0.00     0.006 A 
ATOM     13  C   UNL d   1     -41.124-123.316 -50.590  0.00  0.00     0.003 A 
ATOM     14  C   UNL d   1     -41.277-123.572 -49.837  0.00  0.00     0.024 A 
ATOM     15  C   UNL d   1     -42.048-123.545 -49.542  0.00  0.00     0.094 A 
ATOM     16  C   UNL d   1     -42.663-123.264 -49.997  0.00  0.00     0.024 A 
ATOM     17  C   UNL d   1     -42.521-122.999 -50.767  0.00  0.00     0.003 A 
BRANCH  15  18
ATOM     18  O   UNL d   1     -42.227-123.806 -48.764  0.00  0.00    -0.328 OA
ATOM     19  C   UNL d   1     -42.386-123.258 -48.157  0.00  0.00     0.181 C 
ENDBRANCH  15  18
ENDBRANCH   4  12
BRANCH   2  20
ATOM     20  C   UNL d   1     -41.190-120.888 -51.863  0.00  0.00     0.047 A 
ATOM     21  S   UNL d   1     -41.178-120.090 -52.040  0.00  0.00    -0.085 SA
ATOM     22  C   UNL d   1     -41.137-119.689 -51.322  0.00  0.00     0.035 A 
ATOM     23  C   UNL d   1     -41.123-120.213 -50.705  0.00  0.00     0.007 A 
ATOM     24  C   UNL d   1     -41.155-120.953 -51.036  0.00  0.00     0.009 A 
ENDBRANCH   2  20
TORSDOF 3
ENDMDL
MODEL 2
REMARK VINA RESULT:       4.4      2.117      4.421
REMARK  3 active torsions:
REMARK  status: ('A' for Active; 'I' for Inactive)
REMARK    1  A    between atoms: C_5  and  C_2 
REMARK    2  A    between atoms: C_10  and  C_4 
REMARK    3  A    between atoms: O_19  and  C_16 
ROOT
ATOM      1  N   UNL d   1     -43.119-122.725 -48.399  0.00  0.00    -0.245 NA
ATOM      2  C   UNL d   1     -43.295-122.576 -49.180  0.00  0.00     0.088 A 
ATOM      3  S   UNL d   1     -41.632-123.351 -49.324  0.00  0.00    -0.085 SA
ATOM      4  C   UNL d   1     -42.089-123.083 -49.930  0.00  0.00     0.031 A 
ATOM      5  C   UNL d   1     -42.847-122.730 -49.866  0.00  0.00     0.026 A 
ATOM      6  C   UNL d   1     -42.436-123.072 -48.113  0.00  0.00     0.087 A 
ATOM      7  C   UNL d   1     -41.778-123.349 -48.522  0.00  0.00     0.047 A 
ATOM      8  C   UNL d   1     -42.448-123.136 -47.295  0.00  0.00     0.020 A 
ATOM      9  C   UNL d   1     -41.127-123.691 -48.116  0.00  0.00     0.008 A 
ATOM     10  C   UNL d   1     -41.833-123.462 -46.879  0.00  0.00     0.002 A 
ATOM     11  C   UNL d   1     -41.175-123.739 -47.289  0.00  0.00     0.001 A 
ENDROOT
BRANCH   4  12
ATOM     12  C   UNL d   1     -41.849-123.131 -50.704  0.00  0.00     0.006 A 
ATOM     13  C   UNL d   1     -41.380-122.520 -51.028  0.00  0.00     0.003 A 
ATOM     14  C   UNL d   1     -41.140-122.568 -51.801  0.00  0.00     0.024 A 
ATOM     15  C   UNL d   1     -41.361-123.218 -52.262  0.00  0.00     0.094 A 
ATOM     16  C   UNL d   1     -41.819-123.817 -51.951  0.00  0.00     0.024 A 
ATOM     17  C   UNL d   1     -42.070-123.781 -51.164  0.00  0.00     0.003 A 
BRANCH  15  18
ATOM     18  O   UNL d   1     -41.123-123.284 -53.063  0.00  0.00    -0.328 OA
ATOM     19  C   UNL d   1     -41.223-122.648 -53.592  0.00  0.00     0.181 C 
ENDBRANCH  15  18
ENDBRANCH   4  12
BRANCH   2  20
ATOM     20  C   UNL d   1     -43.829-122.273 -49.770  0.00  0.00     0.047 A 
ATOM     21  S   UNL d   1     -44.515-122.676 -49.953  0.00  0.00    -0.085 SA
ATOM     22  C   UNL d   1     -44.898-122.238 -50.536  0.00  0.00     0.035 A 
ATOM     23  C   UNL d   1     -44.470-121.576 -50.719  0.00  0.00     0.007 A 
ATOM     24  C   UNL d   1     -43.810-121.595 -50.248  0.00  0.00     0.009 A 
ENDBRANCH   2  20
TORSDOF 3
ENDMDL
