MODEL 1
REMARK VINA RESULT:       2.9      0.000      0.000
REMARK  4 active torsions:
REMARK  status: ('A' for Active; 'I' for Inactive)
REMARK    1  A    between atoms: N_5  and  C_1 
REMARK    2  A    between atoms: C_9  and  C_2 
REMARK       I    between atoms: C_6  and  N_5 
REMARK    3  A    between atoms: C_8  and  C_6 
REMARK    4  A    between atoms: N_10  and  C_9 
ROOT
ATOM      1  C   UNL d   1     -41.647-121.959 -51.226  0.00  0.00     0.115 A 
ATOM      2  C   UNL d   1     -41.473-122.240 -51.978  0.00  0.00     0.042 A 
ATOM      3  S   UNL d   1     -41.606-121.128 -51.247  0.00  0.00    -0.068 SA
ATOM      4  C   UNL d   1     -41.324-121.590 -52.464  0.00  0.00     0.009 A 
ATOM      5  C   UNL d   1     -41.409-120.909 -52.003  0.00  0.00     0.031 A 
ATOM      6  C   UNL d   1     -41.126-121.604 -53.264  0.00  0.00     0.001 C 
ATOM      7  C   UNL d   1     -41.312-120.127 -52.260  0.00  0.00     0.007 C 
ENDROOT
BRANCH   1   8
ATOM      8  N   UNL d   1     -41.821-122.489 -50.616  0.00  0.00    -0.201 NA
ATOM      9  C   UNL d   1     -42.237-122.234 -49.955  0.00  0.00     0.282 C 
ATOM     10  O   UNL d   1     -42.479-121.450 -49.902  0.00  0.00    -0.265 OA
BRANCH   9  11
ATOM     11  C   UNL d   1     -42.411-122.762 -49.347  0.00  0.00     0.085 A 
ATOM     12  C   UNL d   1     -43.134-123.151 -49.335  0.00  0.00     0.145 A 
ATOM     13  F   UNL d   1     -43.688-123.006 -49.942  0.00  0.00    -0.204 F 
ATOM     14  C   UNL d   1     -43.307-123.678 -48.728  0.00  0.00     0.030 A 
ATOM     15  C   UNL d   1     -42.758-123.817 -48.132  0.00  0.00     0.002 A 
ATOM     16  C   UNL d   1     -42.031-123.426 -48.144  0.00  0.00     0.000 A 
ATOM     17  C   UNL d   1     -41.857-122.898 -48.751  0.00  0.00     0.007 A 
ENDBRANCH   9  11
ENDBRANCH   1   8
BRANCH   2  18
ATOM     18  C   UNL d   1     -41.450-123.039 -52.209  0.00  0.00     0.082 C 
BRANCH  18  19
ATOM     19  N   UNL d   1     -41.687-123.258 -52.965  0.00  0.00    -0.302 N 
ATOM     20  C   UNL d   1     -42.493-123.341 -53.136  0.00  0.00     0.080 A 
ATOM     21  C   UNL d   1     -42.734-123.561 -53.896  0.00  0.00     0.019 A 
ATOM     22  C   UNL d   1     -42.170-123.697 -54.482  0.00  0.00     0.003 A 
ATOM     23  C   UNL d   1     -41.364-123.614 -54.311  0.00  0.00     0.019 A 
ATOM     24  C   UNL d   1     -41.123-123.395 -53.555  0.00  0.00     0.080 A 
ENDBRANCH  18  19
ENDBRANCH   2  18
TORSDOF 4
ENDMDL
