MODEL 1
REMARK VINA RESULT:     119.8      0.000      0.000
REMARK  4 active torsions:
REMARK  status: ('A' for Active; 'I' for Inactive)
REMARK    1  A    between atoms: N_6  and  S_1 
REMARK    2  A    between atoms: C_10  and  S_1 
REMARK    3  A    between atoms: S_2  and  C_11 
REMARK    4  A    between atoms: N_7  and  S_2 
REMARK       I    between atoms: C_14  and  N_6 
REMARK       I    between atoms: C_15  and  N_7 
ROOT
ATOM      1  C   UNL d   1      59.676  47.847  50.670  0.00  0.00     0.040 A 
ATOM      2  C   UNL d   1      60.677  47.061  50.286  0.00  0.00     0.040 A 
ATOM      3  C   UNL d   1      59.892  47.069  50.546  0.00  0.00     0.196 A 
ATOM      4  C   UNL d   1      60.933  47.841  50.254  0.00  0.00     0.003 A 
ATOM      5  C   UNL d   1      60.322  48.328  50.489  0.00  0.00     0.003 A 
ATOM      6  C   UNL d   1      58.907  49.010  51.003  0.00  0.00     0.105 A 
ATOM      7  C   UNL d   1      61.944  46.619  49.836  0.00  0.00     0.105 A 
ATOM      8  C   UNL d   1      58.959  48.197  50.931  0.00  0.00     0.016 A 
ATOM      9  C   UNL d   1      61.183  46.442  50.076  0.00  0.00     0.016 A 
ATOM     10  C   UNL d   1      61.702  48.011  50.010  0.00  0.00     0.001 A 
ATOM     11  C   UNL d   1      60.263  49.152  50.564  0.00  0.00     0.001 A 
ATOM     12  O   UNL d   1      59.418  46.399  50.658  0.00  0.00    -0.287 OA
ATOM     13  C   UNL d   1      62.213  47.397  49.800  0.00  0.00     0.013 A 
ATOM     14  C   UNL d   1      59.552  49.495  50.822  0.00  0.00     0.013 A 
ENDROOT
BRANCH   6  15
ATOM     15  S   UNL d   1      58.204  49.358  51.260  0.00  0.00     0.288 S 
ATOM     16  O   UNL d   1      57.837  49.108  50.563  0.00  0.00    -0.198 OA
ATOM     17  O   UNL d   1      58.563  49.614  51.962  0.00  0.00    -0.198 OA
BRANCH  15  18
ATOM     18  N   UNL d   1      57.480  49.708  51.506  0.00  0.00    -0.118 NA
ATOM     19  C   UNL d   1      56.763  49.359  51.287  0.00  0.00     0.289 C 
ATOM     20  O   UNL d   1      56.760  48.666  50.826  0.00  0.00    -0.265 OA
ATOM     21  C   UNL d   1      56.059  49.692  51.522  0.00  0.00     0.068 C 
ENDBRANCH  15  18
ENDBRANCH   6  15
BRANCH   7  22
ATOM     22  S   UNL d   1      62.450  46.000  49.627  0.00  0.00     0.288 S 
ATOM     23  O   UNL d   1      62.636  45.893  50.424  0.00  0.00    -0.198 OA
ATOM     24  O   UNL d   1      62.264  46.105  48.829  0.00  0.00    -0.198 OA
BRANCH  22  25
ATOM     25  N   UNL d   1      62.940  45.389  49.352  0.00  0.00    -0.118 NA
ATOM     26  C   UNL d   1      62.655  44.619  49.315  0.00  0.00     0.289 C 
ATOM     27  O   UNL d   1      63.148  44.012  49.040  0.00  0.00    -0.265 OA
ATOM     28  C   UNL d   1      61.887  44.449  49.550  0.00  0.00     0.068 C 
ENDBRANCH  22  25
ENDBRANCH   7  22
TORSDOF 4
ENDMDL
MODEL 2
REMARK VINA RESULT:     121.6      1.738      5.674
REMARK  4 active torsions:
REMARK  status: ('A' for Active; 'I' for Inactive)
REMARK    1  A    between atoms: N_6  and  S_1 
REMARK    2  A    between atoms: C_10  and  S_1 
REMARK    3  A    between atoms: S_2  and  C_11 
REMARK    4  A    between atoms: N_7  and  S_2 
REMARK       I    between atoms: C_14  and  N_6 
REMARK       I    between atoms: C_15  and  N_7 
ROOT
ATOM      1  C   UNL d   1      61.622  45.102  50.422  0.00  0.00     0.040 A 
ATOM      2  C   UNL d   1      61.131  46.299  50.727  0.00  0.00     0.040 A 
ATOM      3  C   UNL d   1      61.135  45.501  50.944  0.00  0.00     0.196 A 
ATOM      4  C   UNL d   1      61.619  46.379  50.071  0.00  0.00     0.003 A 
ATOM      5  C   UNL d   1      61.923  45.647  49.880  0.00  0.00     0.003 A 
ATOM      6  C   UNL d   1      62.349  44.053  49.769  0.00  0.00     0.105 A 
ATOM      7  C   UNL d   1      60.855  47.687  50.700  0.00  0.00     0.105 A 
ATOM      8  C   UNL d   1      61.840  44.294  50.363  0.00  0.00     0.016 A 
ATOM      9  C   UNL d   1      60.744  46.956  51.047  0.00  0.00     0.016 A 
ATOM     10  C   UNL d   1      61.726  47.120  49.727  0.00  0.00     0.001 A 
ATOM     11  C   UNL d   1      62.439  45.397  49.280  0.00  0.00     0.001 A 
ATOM     12  O   UNL d   1      60.715  45.175  51.578  0.00  0.00    -0.287 OA
ATOM     13  C   UNL d   1      61.342  47.781  50.042  0.00  0.00     0.013 A 
ATOM     14  C   UNL d   1      62.653  44.596  49.224  0.00  0.00     0.013 A 
ENDROOT
BRANCH   6  15
ATOM     15  S   UNL d   1      62.567  43.260  49.708  0.00  0.00     0.288 S 
ATOM     16  O   UNL d   1      63.146  43.383  50.285  0.00  0.00    -0.198 OA
ATOM     17  O   UNL d   1      61.990  43.126  49.128  0.00  0.00    -0.198 OA
BRANCH  15  18
ATOM     18  N   UNL d   1      62.801  42.454  49.657  0.00  0.00    -0.118 NA
ATOM     19  C   UNL d   1      62.917  42.018  50.349  0.00  0.00     0.289 C 
ATOM     20  O   UNL d   1      62.803  42.377  51.092  0.00  0.00    -0.265 OA
ATOM     21  C   UNL d   1      63.143  41.238  50.307  0.00  0.00     0.068 C 
ENDBRANCH  15  18
ENDBRANCH   6  15
BRANCH   7  22
ATOM     22  S   UNL d   1      60.467  48.343  51.020  0.00  0.00     0.288 S 
ATOM     23  O   UNL d   1      60.216  48.555  50.263  0.00  0.00    -0.198 OA
ATOM     24  O   UNL d   1      60.718  48.133  51.779  0.00  0.00    -0.198 OA
BRANCH  22  25
ATOM     25  N   UNL d   1      60.101  48.982  51.403  0.00  0.00    -0.118 NA
ATOM     26  C   UNL d   1      59.284  49.069  51.365  0.00  0.00     0.289 C 
ATOM     27  O   UNL d   1      58.922  49.708  51.748  0.00  0.00    -0.265 OA
ATOM     28  C   UNL d   1      58.828  48.527  50.951  0.00  0.00     0.068 C 
ENDBRANCH  22  25
ENDBRANCH   7  22
TORSDOF 4
ENDMDL
