MODEL 1
REMARK VINA RESULT:      10.9      0.000      0.000
REMARK  4 active torsions:
REMARK  status: ('A' for Active; 'I' for Inactive)
REMARK    1  A    between atoms: N_8  and  C_2 
REMARK    2  A    between atoms: C_9  and  C_3 
REMARK       I    between atoms: C_6  and  N_7 
REMARK    3  A    between atoms: C_10  and  C_6 
REMARK    4  A    between atoms: N_7  and  N_8 
ROOT
ATOM      1  C   UNL d   1      46.244 -17.784  42.781  0.00  0.00     0.297 C 
ATOM      2  N   UNL d   1      46.077 -17.012  43.078  0.00  0.00    -0.104 NA
ATOM      3  O   UNL d   1      46.317 -17.904  41.978  0.00  0.00    -0.264 OA
ENDROOT
BRANCH   2   4
ATOM      4  N   UNL d   1      46.005 -16.897  43.876  0.00  0.00    -0.119 NA
BRANCH   4   5
ATOM      5  C   UNL d   1      45.798 -16.179  44.153  0.00  0.00     0.214 A 
ATOM      6  N   UNL d   1      46.001 -15.410  43.907  0.00  0.00    -0.224 NA
ATOM      7  C   UNL d   1      45.603 -14.870  44.426  0.00  0.00     0.067 A 
ATOM      8  C   UNL d   1      45.182 -15.321  44.955  0.00  0.00     0.053 A 
ATOM      9  S   UNL d   1      45.296 -16.111  44.794  0.00  0.00    -0.045 SA
BRANCH   7  10
ATOM     10  C   UNL d   1      45.630 -14.035  44.407  0.00  0.00     0.036 C 
ATOM     11  C   UNL d   1      45.644 -13.204  44.379  0.00  0.00     0.006 C 
ATOM     12  C   UNL d   1      44.933 -14.037  43.958  0.00  0.00     0.006 C 
ATOM     13  C   UNL d   1      46.331 -14.057  44.860  0.00  0.00     0.006 C 
ENDBRANCH   7  10
ENDBRANCH   4   5
ENDBRANCH   2   4
BRANCH   1  14
ATOM     14  C   UNL d   1      46.334 -18.432  43.320  0.00  0.00     0.059 A 
ATOM     15  C   UNL d   1      46.264 -19.211  43.036  0.00  0.00     0.005 A 
ATOM     16  C   UNL d   1      46.352 -19.812  43.553  0.00  0.00     0.007 A 
ATOM     17  C   UNL d   1      46.508 -19.689  44.354  0.00  0.00     0.035 A 
ATOM     18  C   UNL d   1      46.577 -18.921  44.637  0.00  0.00     0.007 A 
ATOM     19 BR   UNL d   1      46.593 -20.322  44.863  0.00  0.00    -0.049 Br
ATOM     20  C   UNL d   1      46.489 -18.298  44.115  0.00  0.00     0.005 A 
ENDBRANCH   1  14
TORSDOF 4
ENDMDL
MODEL 2
REMARK VINA RESULT:      10.9      1.219      1.537
REMARK  4 active torsions:
REMARK  status: ('A' for Active; 'I' for Inactive)
REMARK    1  A    between atoms: N_8  and  C_2 
REMARK    2  A    between atoms: C_9  and  C_3 
REMARK       I    between atoms: C_6  and  N_7 
REMARK    3  A    between atoms: C_10  and  C_6 
REMARK    4  A    between atoms: N_7  and  N_8 
ROOT
ATOM      1  C   UNL d   1      46.256 -18.418  44.296  0.00  0.00     0.297 C 
ATOM      2  N   UNL d   1      46.101 -17.625  44.539  0.00  0.00    -0.104 NA
ATOM      3  O   UNL d   1      46.312 -19.010  44.853  0.00  0.00    -0.264 OA
ENDROOT
BRANCH   2   4
ATOM      4  N   UNL d   1      46.047 -17.040  43.983  0.00  0.00    -0.119 NA
BRANCH   4   5
ATOM      5  C   UNL d   1      45.814 -16.309  44.202  0.00  0.00     0.214 A 
ATOM      6  N   UNL d   1      45.959 -15.558  43.873  0.00  0.00    -0.224 NA
ATOM      7  C   UNL d   1      45.558 -14.992  44.360  0.00  0.00     0.067 A 
ATOM      8  C   UNL d   1      45.192 -15.410  44.953  0.00  0.00     0.053 A 
ATOM      9  S   UNL d   1      45.344 -16.204  44.862  0.00  0.00    -0.045 SA
BRANCH   7  10
ATOM     10  C   UNL d   1      45.535 -14.162  44.259  0.00  0.00     0.036 C 
ATOM     11  C   UNL d   1      45.498 -13.338  44.156  0.00  0.00     0.006 C 
ATOM     12  C   UNL d   1      44.722 -14.217  44.110  0.00  0.00     0.006 C 
ATOM     13  C   UNL d   1      46.356 -14.131  44.412  0.00  0.00     0.006 C 
ENDBRANCH   7  10
ENDBRANCH   4   5
ENDBRANCH   2   4
BRANCH   1  14
ATOM     14  C   UNL d   1      46.355 -18.594  43.473  0.00  0.00     0.059 A 
ATOM     15  C   UNL d   1      46.251 -19.377  43.208  0.00  0.00     0.005 A 
ATOM     16  C   UNL d   1      46.346 -19.528  42.431  0.00  0.00     0.007 A 
ATOM     17  C   UNL d   1      46.544 -18.942  41.884  0.00  0.00     0.035 A 
ATOM     18  C   UNL d   1      46.647 -18.170  42.143  0.00  0.00     0.007 A 
ATOM     19 BR   UNL d   1      46.636 -19.126  41.094  0.00  0.00    -0.049 Br
ATOM     20  C   UNL d   1      46.551 -18.003  42.937  0.00  0.00     0.005 A 
ENDBRANCH   1  14
TORSDOF 4
ENDMDL
