MODEL 1
REMARK VINA RESULT:     -10.7      0.000      0.000
REMARK  0 active torsions:
REMARK  status: ('A' for Active; 'I' for Inactive)
ROOT
ATOM      1  C   UNL d   1      52.646  32.533  53.009  0.00  0.00     0.180 A 
ATOM      2  C   UNL d   1      53.123  32.278  53.640  0.00  0.00     0.118 A 
ATOM      3  N   UNL d   1      53.411  32.816  54.186  0.00  0.00    -0.241 NA
ATOM      4  N   UNL d   1      52.444  31.872  52.558  0.00  0.00    -0.225 NA
ATOM      5  N   UNL d   1      52.465  33.334  52.937  0.00  0.00    -0.224 NA
ATOM      6  C   UNL d   1      53.210  31.458  53.571  0.00  0.00     0.038 A 
ATOM      7  C   UNL d   1      52.792  31.205  52.904  0.00  0.00     0.085 A 
ATOM      8  C   UNL d   1      53.227  33.614  54.108  0.00  0.00     0.099 A 
ATOM      9  C   UNL d   1      52.754  33.871  53.483  0.00  0.00     0.101 A 
ATOM     10  C   UNL d   1      53.620  30.908  54.035  0.00  0.00     0.003 A 
ATOM     11  C   UNL d   1      52.780  30.398  52.695  0.00  0.00     0.019 A 
ATOM     12  C   UNL d   1      53.513  34.159  54.653  0.00  0.00     0.021 A 
ATOM     13  C   UNL d   1      52.572  34.666  53.409  0.00  0.00     0.021 A 
ATOM     14  C   UNL d   1      53.607  30.106  53.825  0.00  0.00     0.000 A 
ATOM     15  C   UNL d   1      53.190  29.853  53.159  0.00  0.00     0.002 A 
ATOM     16  C   UNL d   1      53.331  34.955  54.578  0.00  0.00     0.002 A 
ATOM     17  C   UNL d   1      52.858  35.211  53.954  0.00  0.00     0.002 A 
ENDROOT
TORSDOF 0
ENDMDL
MODEL 2
REMARK VINA RESULT:     -10.6      0.277      3.403
REMARK  0 active torsions:
REMARK  status: ('A' for Active; 'I' for Inactive)
ROOT
ATOM      1  C   UNL d   1      52.585  32.697  53.021  0.00  0.00     0.180 A 
ATOM      2  C   UNL d   1      53.080  32.780  53.683  0.00  0.00     0.118 A 
ATOM      3  N   UNL d   1      53.448  32.126  54.012  0.00  0.00    -0.241 NA
ATOM      4  N   UNL d   1      52.298  33.444  52.820  0.00  0.00    -0.225 NA
ATOM      5  N   UNL d   1      52.467  31.949  52.697  0.00  0.00    -0.224 NA
ATOM      6  C   UNL d   1      53.094  33.583  53.885  0.00  0.00     0.038 A 
ATOM      7  C   UNL d   1      52.613  33.995  53.353  0.00  0.00     0.085 A 
ATOM      8  C   UNL d   1      53.325  31.383  53.683  0.00  0.00     0.099 A 
ATOM      9  C   UNL d   1      52.835  31.295  53.026  0.00  0.00     0.101 A 
ATOM     10  C   UNL d   1      53.487  33.991  54.488  0.00  0.00     0.003 A 
ATOM     11  C   UNL d   1      52.520  34.820  53.421  0.00  0.00     0.019 A 
ATOM     12  C   UNL d   1      53.691  30.722  54.008  0.00  0.00     0.021 A 
ATOM     13  C   UNL d   1      52.715  30.553  52.701  0.00  0.00     0.021 A 
ATOM     14  C   UNL d   1      53.393  34.813  54.554  0.00  0.00     0.000 A 
ATOM     15  C   UNL d   1      52.912  35.225  54.024  0.00  0.00     0.002 A 
ATOM     16  C   UNL d   1      53.571  29.979  53.682  0.00  0.00     0.002 A 
ATOM     17  C   UNL d   1      53.081  29.892  53.026  0.00  0.00     0.002 A 
ENDROOT
TORSDOF 0
ENDMDL
MODEL 3
REMARK VINA RESULT:      -9.5      1.757      2.937
REMARK  0 active torsions:
REMARK  status: ('A' for Active; 'I' for Inactive)
ROOT
ATOM      1  C   UNL d   1      52.676  33.306  52.986  0.00  0.00     0.180 A 
ATOM      2  C   UNL d   1      52.329  33.852  53.506  0.00  0.00     0.118 A 
ATOM      3  N   UNL d   1      52.717  34.080  54.190  0.00  0.00    -0.241 NA
ATOM      4  N   UNL d   1      52.158  33.188  52.354  0.00  0.00    -0.225 NA
ATOM      5  N   UNL d   1      53.418  32.994  53.165  0.00  0.00    -0.224 NA
ATOM      6  C   UNL d   1      51.595  34.067  53.188  0.00  0.00     0.038 A 
ATOM      7  C   UNL d   1      51.487  33.659  52.478  0.00  0.00     0.085 A 
ATOM      8  C   UNL d   1      53.457  33.764  54.362  0.00  0.00     0.099 A 
ATOM      9  C   UNL d   1      53.806  33.221  53.848  0.00  0.00     0.101 A 
ATOM     10  C   UNL d   1      51.010  34.587  53.459  0.00  0.00     0.003 A 
ATOM     11  C   UNL d   1      50.793  33.766  52.031  0.00  0.00     0.019 A 
ATOM     12  C   UNL d   1      53.853  33.989  55.046  0.00  0.00     0.021 A 
ATOM     13  C   UNL d   1      54.543  32.909  54.023  0.00  0.00     0.021 A 
ATOM     14  C   UNL d   1      50.319  34.692  53.013  0.00  0.00     0.000 A 
ATOM     15  C   UNL d   1      50.211  34.284  52.303  0.00  0.00     0.002 A 
ATOM     16  C   UNL d   1      54.591  33.676  55.221  0.00  0.00     0.002 A 
ATOM     17  C   UNL d   1      54.939  33.134  54.707  0.00  0.00     0.002 A 
ENDROOT
TORSDOF 0
ENDMDL
MODEL 4
REMARK VINA RESULT:      -9.4      1.864      2.913
REMARK  0 active torsions:
REMARK  status: ('A' for Active; 'I' for Inactive)
ROOT
ATOM      1  C   UNL d   1      52.851  34.544  53.974  0.00  0.00     0.180 A 
ATOM      2  C   UNL d   1      52.853  33.722  54.100  0.00  0.00     0.118 A 
ATOM      3  N   UNL d   1      52.245  33.257  53.811  0.00  0.00    -0.241 NA
ATOM      4  N   UNL d   1      53.528  34.858  54.327  0.00  0.00    -0.225 NA
ATOM      5  N   UNL d   1      52.230  34.887  53.556  0.00  0.00    -0.224 NA
ATOM      6  C   UNL d   1      53.535  33.538  54.531  0.00  0.00     0.038 A 
ATOM      7  C   UNL d   1      53.954  34.237  54.672  0.00  0.00     0.085 A 
ATOM      8  C   UNL d   1      51.628  33.606  53.393  0.00  0.00     0.099 A 
ATOM      9  C   UNL d   1      51.622  34.421  53.267  0.00  0.00     0.101 A 
ATOM     10  C   UNL d   1      53.828  32.816  54.813  0.00  0.00     0.003 A 
ATOM     11  C   UNL d   1      54.669  34.221  55.098  0.00  0.00     0.019 A 
ATOM     12  C   UNL d   1      51.014  33.145  53.100  0.00  0.00     0.021 A 
ATOM     13  C   UNL d   1      51.006  34.766  52.851  0.00  0.00     0.021 A 
ATOM     14  C   UNL d   1      54.541  32.803  55.236  0.00  0.00     0.000 A 
ATOM     15  C   UNL d   1      54.959  33.501  55.378  0.00  0.00     0.002 A 
ATOM     16  C   UNL d   1      50.397  33.490  52.684  0.00  0.00     0.002 A 
ATOM     17  C   UNL d   1      50.392  34.304  52.558  0.00  0.00     0.002 A 
ENDROOT
TORSDOF 0
ENDMDL
MODEL 5
REMARK VINA RESULT:      -8.9      0.754      3.708
REMARK  0 active torsions:
REMARK  status: ('A' for Active; 'I' for Inactive)
ROOT
ATOM      1  C   UNL d   1      53.790  32.036  54.555  0.00  0.00     0.180 A 
ATOM      2  C   UNL d   1      53.447  32.415  53.900  0.00  0.00     0.118 A 
ATOM      3  N   UNL d   1      53.179  31.979  53.261  0.00  0.00    -0.241 NA
ATOM      4  N   UNL d   1      54.003  32.615  55.104  0.00  0.00    -0.225 NA
ATOM      5  N   UNL d   1      53.859  31.215  54.556  0.00  0.00    -0.224 NA
ATOM      6  C   UNL d   1      53.452  33.229  54.053  0.00  0.00     0.038 A 
ATOM      7  C   UNL d   1      53.795  33.355  54.794  0.00  0.00     0.085 A 
ATOM      8  C   UNL d   1      53.251  31.160  53.269  0.00  0.00     0.099 A 
ATOM      9  C   UNL d   1      53.591  30.779  53.917  0.00  0.00     0.101 A 
ATOM     10  C   UNL d   1      53.185  33.873  53.605  0.00  0.00     0.003 A 
ATOM     11  C   UNL d   1      53.874  34.127  55.097  0.00  0.00     0.019 A 
ATOM     12  C   UNL d   1      52.984  30.716  52.631  0.00  0.00     0.021 A 
ATOM     13  C   UNL d   1      53.661  29.963  53.922  0.00  0.00     0.021 A 
ATOM     14  C   UNL d   1      53.266  34.641  53.908  0.00  0.00     0.000 A 
ATOM     15  C   UNL d   1      53.608  34.768  54.649  0.00  0.00     0.002 A 
ATOM     16  C   UNL d   1      53.054  29.898  52.636  0.00  0.00     0.002 A 
ATOM     17  C   UNL d   1      53.394  29.519  53.283  0.00  0.00     0.002 A 
ENDROOT
TORSDOF 0
ENDMDL
