MODEL 1
REMARK VINA RESULT:      -3.9      0.000      0.000
REMARK  6 active torsions:
REMARK  status: ('A' for Active; 'I' for Inactive)
REMARK    1  A    between atoms: N_2  and  S_1 
REMARK    2  A    between atoms: C_7  and  S_1 
REMARK    3  A    between atoms: C_8  and  N_2 
REMARK    4  A    between atoms: N_3  and  C_9 
REMARK    5  A    between atoms: N_4  and  N_3 
REMARK    6  A    between atoms: C_10  and  N_4 
ROOT
ATOM      1  C   UNL d   1      58.225   0.496  30.322  0.00  0.00     0.094 A 
ATOM      2  C   UNL d   1      57.443   0.620  31.764  0.00  0.00     0.103 A 
ATOM      3  C   UNL d   1      57.399   0.570  30.344  0.00  0.00     0.021 A 
ATOM      4  C   UNL d   1      58.655   0.485  31.026  0.00  0.00     0.021 A 
ATOM      5  C   UNL d   1      58.268   0.546  31.757  0.00  0.00     0.022 A 
ATOM      6  C   UNL d   1      57.013   0.631  31.060  0.00  0.00     0.022 A 
ENDROOT
BRANCH   1   7
ATOM      7  N   UNL d   1      58.618   0.434  29.600  0.00  0.00    -0.158 NA
BRANCH   7   8
ATOM      8  S   UNL d   1      58.921  -0.296  29.365  0.00  0.00     0.285 S 
ATOM      9  O   UNL d   1      59.672  -0.050  29.602  0.00  0.00    -0.198 OA
ATOM     10  O   UNL d   1      58.170  -0.542  29.128  0.00  0.00    -0.198 OA
BRANCH   8  11
ATOM     11  C   UNL d   1      59.241  -1.021  29.135  0.00  0.00     0.105 A 
ATOM     12  C   UNL d   1      58.734  -1.615  28.854  0.00  0.00     0.013 A 
ATOM     13  C   UNL d   1      59.045  -2.343  28.622  0.00  0.00     0.001 A 
ATOM     14  C   UNL d   1      59.856  -2.479  28.669  0.00  0.00     0.000 A 
ATOM     15  C   UNL d   1      60.363  -1.884  28.950  0.00  0.00     0.001 A 
ATOM     16  C   UNL d   1      60.051  -1.156  29.182  0.00  0.00     0.013 A 
ENDBRANCH   8  11
ENDBRANCH   7   8
ENDBRANCH   1   7
BRANCH   2  17
ATOM     17  N   UNL d   1      57.047   0.682  32.486  0.00  0.00    -0.148 NA
BRANCH  17  18
ATOM     18  N   UNL d   1      56.409   0.182  32.646  0.00  0.00    -0.148 NA
BRANCH  18  19
ATOM     19  C   UNL d   1      55.950   0.309  33.322  0.00  0.00     0.103 A 
ATOM     20  C   UNL d   1      55.138   0.200  33.301  0.00  0.00     0.021 A 
ATOM     21  C   UNL d   1      54.683   0.325  33.966  0.00  0.00     0.002 A 
ATOM     22  C   UNL d   1      55.044   0.564  34.669  0.00  0.00     0.000 A 
ATOM     23  C   UNL d   1      55.859   0.678  34.707  0.00  0.00     0.002 A 
ATOM     24  C   UNL d   1      56.310   0.548  34.025  0.00  0.00     0.021 A 
ENDBRANCH  18  19
ENDBRANCH  17  18
ENDBRANCH   2  17
TORSDOF 6
ENDMDL
MODEL 2
REMARK VINA RESULT:      -2.5      1.615      5.347
REMARK  6 active torsions:
REMARK  status: ('A' for Active; 'I' for Inactive)
REMARK    1  A    between atoms: N_2  and  S_1 
REMARK    2  A    between atoms: C_7  and  S_1 
REMARK    3  A    between atoms: C_8  and  N_2 
REMARK    4  A    between atoms: N_3  and  C_9 
REMARK    5  A    between atoms: N_4  and  N_3 
REMARK    6  A    between atoms: C_10  and  N_4 
ROOT
ATOM      1  C   UNL d   1      58.095   0.121  30.565  0.00  0.00     0.094 A 
ATOM      2  C   UNL d   1      58.900  -0.994  29.663  0.00  0.00     0.103 A 
ATOM      3  C   UNL d   1      57.676  -0.390  30.065  0.00  0.00     0.021 A 
ATOM      4  C   UNL d   1      58.917   0.071  30.610  0.00  0.00     0.021 A 
ATOM      5  C   UNL d   1      59.330  -0.489  30.158  0.00  0.00     0.022 A 
ATOM      6  C   UNL d   1      58.078  -0.943  29.618  0.00  0.00     0.022 A 
ENDROOT
BRANCH   1   7
ATOM      7  N   UNL d   1      57.693   0.681  31.018  0.00  0.00    -0.158 NA
BRANCH   7   8
ATOM      8  S   UNL d   1      57.265   0.436  31.679  0.00  0.00     0.285 S 
ATOM      9  O   UNL d   1      57.973   0.343  32.093  0.00  0.00    -0.198 OA
ATOM     10  O   UNL d   1      56.557   0.528  31.266  0.00  0.00    -0.198 OA
BRANCH   8  11
ATOM     11  C   UNL d   1      56.852   0.189  32.349  0.00  0.00     0.105 A 
ATOM     12  C   UNL d   1      56.424  -0.522  32.321  0.00  0.00     0.013 A 
ATOM     13  C   UNL d   1      56.008  -0.777  32.986  0.00  0.00     0.001 A 
ATOM     14  C   UNL d   1      56.017  -0.328  33.676  0.00  0.00     0.000 A 
ATOM     15  C   UNL d   1      56.446   0.384  33.704  0.00  0.00     0.001 A 
ATOM     16  C   UNL d   1      56.862   0.638  33.038  0.00  0.00     0.013 A 
ENDBRANCH   8  11
ENDBRANCH   7   8
ENDBRANCH   1   7
BRANCH   2  17
ATOM     17  N   UNL d   1      59.300  -1.555  29.208  0.00  0.00    -0.148 NA
BRANCH  17  18
ATOM     18  N   UNL d   1      59.886  -2.022  29.557  0.00  0.00    -0.148 NA
BRANCH  18  19
ATOM     19  C   UNL d   1      60.123  -2.723  29.188  0.00  0.00     0.103 A 
ATOM     20  C   UNL d   1      60.897  -2.820  28.937  0.00  0.00     0.021 A 
ATOM     21  C   UNL d   1      61.133  -3.511  28.574  0.00  0.00     0.002 A 
ATOM     22  C   UNL d   1      60.588  -4.118  28.456  0.00  0.00     0.000 A 
ATOM     23  C   UNL d   1      59.806  -4.036  28.702  0.00  0.00     0.002 A 
ATOM     24  C   UNL d   1      59.578  -3.330  29.071  0.00  0.00     0.021 A 
ENDBRANCH  18  19
ENDBRANCH  17  18
ENDBRANCH   2  17
TORSDOF 6
ENDMDL
