MODEL 1
REMARK VINA RESULT:      -4.1      0.000      0.000
REMARK  1 active torsions:
REMARK  status: ('A' for Active; 'I' for Inactive)
REMARK    1  A    between atoms: C_6  and  N_1 
ROOT
ATOM      1  N   UNL d   1      56.320  -0.519  32.966  0.00  0.00    -0.204 N 
ATOM      2  C   UNL d   1      56.436  -0.904  32.242  0.00  0.00     0.271 A 
ATOM      3  C   UNL d   1      56.818   0.142  32.991  0.00  0.00     0.270 A 
ATOM      4  C   UNL d   1      57.005  -0.480  31.820  0.00  0.00     0.080 A 
ATOM      5  C   UNL d   1      57.238   0.158  32.277  0.00  0.00     0.064 A 
ATOM      6  O   UNL d   1      56.017  -1.563  32.082  0.00  0.00    -0.266 OA
ATOM      7  O   UNL d   1      56.882   0.682  33.611  0.00  0.00    -0.266 OA
ATOM      8  N   UNL d   1      57.898  -0.083  30.793  0.00  0.00    -0.242 NA
ATOM      9  C   UNL d   1      57.329  -0.609  31.077  0.00  0.00     0.104 A 
ATOM     10  C   UNL d   1      57.806   0.681  31.991  0.00  0.00     0.026 A 
ATOM     11  C   UNL d   1      58.139   0.562  31.245  0.00  0.00     0.099 A 
ENDROOT
BRANCH   1  12
ATOM     12  C   UNL d   1      55.798  -0.751  33.566  0.00  0.00     0.326 C 
ATOM     13  O   UNL d   1      55.073  -0.367  33.649  0.00  0.00    -0.261 OA
ENDBRANCH   1  12
TORSDOF 1
ENDMDL
MODEL 2
REMARK VINA RESULT:      -4.1      8.655      9.199
REMARK  1 active torsions:
REMARK  status: ('A' for Active; 'I' for Inactive)
REMARK    1  A    between atoms: C_6  and  N_1 
ROOT
ATOM      1  N   UNL d   1      59.827  -7.190  35.946  0.00  0.00    -0.204 N 
ATOM      2  C   UNL d   1      60.500  -7.506  35.582  0.00  0.00     0.271 A 
ATOM      3  C   UNL d   1      59.258  -7.789  36.004  0.00  0.00     0.270 A 
ATOM      4  C   UNL d   1      60.347  -8.300  35.415  0.00  0.00     0.080 A 
ATOM      5  C   UNL d   1      59.589  -8.473  35.672  0.00  0.00     0.064 A 
ATOM      6  O   UNL d   1      61.133  -7.036  35.462  0.00  0.00    -0.266 OA
ATOM      7  O   UNL d   1      58.504  -7.717  36.330  0.00  0.00    -0.266 OA
ATOM      8  N   UNL d   1      60.508  -9.635  34.964  0.00  0.00    -0.242 NA
ATOM      9  C   UNL d   1      60.814  -8.874  35.060  0.00  0.00     0.104 A 
ATOM     10  C   UNL d   1      59.287  -9.232  35.575  0.00  0.00     0.026 A 
ATOM     11  C   UNL d   1      59.747  -9.818  35.219  0.00  0.00     0.099 A 
ENDROOT
BRANCH   1  12
ATOM     12  C   UNL d   1      59.733  -6.411  36.210  0.00  0.00     0.326 C 
ATOM     13  O   UNL d   1      59.661  -5.799  35.661  0.00  0.00    -0.261 OA
ENDBRANCH   1  12
TORSDOF 1
ENDMDL
MODEL 3
REMARK VINA RESULT:      -2.7      3.479      4.588
REMARK  1 active torsions:
REMARK  status: ('A' for Active; 'I' for Inactive)
REMARK    1  A    between atoms: C_6  and  N_1 
ROOT
ATOM      1  N   UNL d   1      58.831  -0.779  29.369  0.00  0.00    -0.204 N 
ATOM      2  C   UNL d   1      59.528  -0.893  28.937  0.00  0.00     0.271 A 
ATOM      3  C   UNL d   1      58.507  -1.522  29.540  0.00  0.00     0.270 A 
ATOM      4  C   UNL d   1      59.634  -1.707  28.841  0.00  0.00     0.080 A 
ATOM      5  C   UNL d   1      59.011  -2.090  29.209  0.00  0.00     0.064 A 
ATOM      6  O   UNL d   1      59.949  -0.257  28.703  0.00  0.00    -0.266 OA
ATOM      7  O   UNL d   1      57.812  -1.667  29.960  0.00  0.00    -0.266 OA
ATOM      8  N   UNL d   1      60.186  -2.955  28.455  0.00  0.00    -0.242 NA
ATOM      9  C   UNL d   1      60.227  -2.130  28.462  0.00  0.00     0.104 A 
ATOM     10  C   UNL d   1      58.974  -2.912  29.200  0.00  0.00     0.026 A 
ATOM     11  C   UNL d   1      59.564  -3.349  28.822  0.00  0.00     0.099 A 
ENDROOT
BRANCH   1  12
ATOM     12  C   UNL d   1      58.509  -0.051  29.594  0.00  0.00     0.326 C 
ATOM     13  O   UNL d   1      57.840   0.240  29.206  0.00  0.00    -0.261 OA
ENDBRANCH   1  12
TORSDOF 1
ENDMDL
MODEL 4
REMARK VINA RESULT:      -2.5      3.525      4.399
REMARK  1 active torsions:
REMARK  status: ('A' for Active; 'I' for Inactive)
REMARK    1  A    between atoms: C_6  and  N_1 
ROOT
ATOM      1  N   UNL d   1      59.085  -2.182  29.222  0.00  0.00    -0.204 N 
ATOM      2  C   UNL d   1      59.649  -1.717  28.835  0.00  0.00     0.271 A 
ATOM      3  C   UNL d   1      58.525  -1.679  29.566  0.00  0.00     0.270 A 
ATOM      4  C   UNL d   1      59.438  -0.925  28.940  0.00  0.00     0.080 A 
ATOM      5  C   UNL d   1      58.752  -0.902  29.387  0.00  0.00     0.064 A 
ATOM      6  O   UNL d   1      60.253  -2.074  28.455  0.00  0.00    -0.266 OA
ATOM      7  O   UNL d   1      57.866  -1.908  30.006  0.00  0.00    -0.266 OA
ATOM      8  N   UNL d   1      59.453   0.491  28.873  0.00  0.00    -0.242 NA
ATOM      9  C   UNL d   1      59.796  -0.234  28.679  0.00  0.00     0.104 A 
ATOM     10  C   UNL d   1      58.413  -0.177  29.579  0.00  0.00     0.026 A 
ATOM     11  C   UNL d   1      58.764   0.524  29.322  0.00  0.00     0.099 A 
ENDROOT
BRANCH   1  12
ATOM     12  C   UNL d   1      59.076  -3.009  29.261  0.00  0.00     0.326 C 
ATOM     13  O   UNL d   1      58.521  -3.434  28.822  0.00  0.00    -0.261 OA
ENDBRANCH   1  12
TORSDOF 1
ENDMDL
MODEL 5
REMARK VINA RESULT:      -2.4      3.954      4.982
REMARK  1 active torsions:
REMARK  status: ('A' for Active; 'I' for Inactive)
REMARK    1  A    between atoms: C_6  and  N_1 
ROOT
ATOM      1  N   UNL d   1      59.862  -2.637  28.909  0.00  0.00    -0.204 N 
ATOM      2  C   UNL d   1      59.112  -2.397  29.165  0.00  0.00     0.271 A 
ATOM      3  C   UNL d   1      60.323  -1.961  28.786  0.00  0.00     0.270 A 
ATOM      4  C   UNL d   1      59.110  -1.572  29.200  0.00  0.00     0.080 A 
ATOM      5  C   UNL d   1      59.849  -1.306  28.969  0.00  0.00     0.064 A 
ATOM      6  O   UNL d   1      58.560  -2.951  29.323  0.00  0.00    -0.266 OA
ATOM      7  O   UNL d   1      61.106  -1.944  28.530  0.00  0.00    -0.266 OA
ATOM      8  N   UNL d   1      58.680  -0.235  29.397  0.00  0.00    -0.242 NA
ATOM      9  C   UNL d   1      58.519  -1.045  29.416  0.00  0.00     0.104 A 
ATOM     10  C   UNL d   1      60.006  -0.498  28.952  0.00  0.00     0.026 A 
ATOM     11  C   UNL d   1      59.420   0.042  29.167  0.00  0.00     0.099 A 
ENDROOT
BRANCH   1  12
ATOM     12  C   UNL d   1      60.113  -3.418  28.794  0.00  0.00     0.326 C 
ATOM     13  O   UNL d   1      60.541  -3.802  29.385  0.00  0.00    -0.261 OA
ENDBRANCH   1  12
TORSDOF 1
ENDMDL
MODEL 6
REMARK VINA RESULT:      -2.3      2.297      3.360
REMARK  1 active torsions:
REMARK  status: ('A' for Active; 'I' for Inactive)
REMARK    1  A    between atoms: C_6  and  N_1 
ROOT
ATOM      1  N   UNL d   1      58.002   0.681  30.572  0.00  0.00    -0.204 N 
ATOM      2  C   UNL d   1      58.788   0.681  30.831  0.00  0.00     0.271 A 
ATOM      3  C   UNL d   1      58.002   0.681  29.744  0.00  0.00     0.270 A 
ATOM      4  C   UNL d   1      59.274   0.680  30.163  0.00  0.00     0.080 A 
ATOM      5  C   UNL d   1      58.794   0.680  29.499  0.00  0.00     0.064 A 
ATOM      6  O   UNL d   1      58.938   0.681  31.615  0.00  0.00    -0.266 OA
ATOM      7  O   UNL d   1      57.338   0.681  29.255  0.00  0.00    -0.266 OA
ATOM      8  N   UNL d   1      60.428   0.679  29.340  0.00  0.00    -0.242 NA
ATOM      9  C   UNL d   1      60.092   0.679  30.093  0.00  0.00     0.104 A 
ATOM     10  C   UNL d   1      59.133   0.679  28.750  0.00  0.00     0.026 A 
ATOM     11  C   UNL d   1      59.954   0.679  28.667  0.00  0.00     0.099 A 
ENDROOT
BRANCH   1  12
ATOM     12  C   UNL d   1      57.328   0.682  31.053  0.00  0.00     0.326 C 
ATOM     13  O   UNL d   1      56.932  -0.026  31.204  0.00  0.00    -0.261 OA
ENDBRANCH   1  12
TORSDOF 1
ENDMDL
MODEL 7
REMARK VINA RESULT:      -1.7      9.712      9.992
REMARK  1 active torsions:
REMARK  status: ('A' for Active; 'I' for Inactive)
REMARK    1  A    between atoms: C_6  and  N_1 
ROOT
ATOM      1  N   UNL d   1      58.535  -9.807  31.298  0.00  0.00    -0.204 N 
ATOM      2  C   UNL d   1      58.079  -9.811  31.989  0.00  0.00     0.271 A 
ATOM      3  C   UNL d   1      59.334  -9.801  31.515  0.00  0.00     0.270 A 
ATOM      4  C   UNL d   1      58.597  -9.808  32.633  0.00  0.00     0.080 A 
ATOM      5  C   UNL d   1      59.363  -9.801  32.343  0.00  0.00     0.064 A 
ATOM      6  O   UNL d   1      57.284  -9.818  31.930  0.00  0.00    -0.266 OA
ATOM      7  O   UNL d   1      59.979  -9.795  31.001  0.00  0.00    -0.266 OA
ATOM      8  N   UNL d   1      59.090  -9.806  33.962  0.00  0.00    -0.242 NA
ATOM      9  C   UNL d   1      58.451  -9.810  33.441  0.00  0.00     0.104 A 
ATOM     10  C   UNL d   1      59.998  -9.797  32.866  0.00  0.00     0.026 A 
ATOM     11  C   UNL d   1      59.864  -9.799  33.680  0.00  0.00     0.099 A 
ENDROOT
BRANCH   1  12
ATOM     12  C   UNL d   1      58.247  -9.808  30.522  0.00  0.00     0.326 C 
ATOM     13  O   UNL d   1      58.155  -9.095  30.118  0.00  0.00    -0.261 OA
ENDBRANCH   1  12
TORSDOF 1
ENDMDL
MODEL 8
REMARK VINA RESULT:      -1.7      4.662      5.641
REMARK  1 active torsions:
REMARK  status: ('A' for Active; 'I' for Inactive)
REMARK    1  A    between atoms: C_6  and  N_1 
ROOT
ATOM      1  N   UNL d   1      58.965  -2.806  28.900  0.00  0.00    -0.204 N 
ATOM      2  C   UNL d   1      58.827  -3.616  28.804  0.00  0.00     0.271 A 
ATOM      3  C   UNL d   1      59.779  -2.672  28.839  0.00  0.00     0.270 A 
ATOM      4  C   UNL d   1      59.557  -3.983  28.684  0.00  0.00     0.080 A 
ATOM      5  C   UNL d   1      60.138  -3.407  28.706  0.00  0.00     0.064 A 
ATOM      6  O   UNL d   1      58.078  -3.890  28.839  0.00  0.00    -0.266 OA
ATOM      7  O   UNL d   1      60.161  -1.943  28.901  0.00  0.00    -0.266 OA
ATOM      8  N   UNL d   1      60.540  -4.979  28.455  0.00  0.00    -0.242 NA
ATOM      9  C   UNL d   1      59.748  -4.772  28.559  0.00  0.00     0.104 A 
ATOM     10  C   UNL d   1      60.927  -3.617  28.602  0.00  0.00     0.026 A 
ATOM     11  C   UNL d   1      61.132  -4.407  28.475  0.00  0.00     0.099 A 
ENDROOT
BRANCH   1  12
ATOM     12  C   UNL d   1      58.390  -2.224  29.033  0.00  0.00     0.326 C 
ATOM     13  O   UNL d   1      58.163  -2.043  29.806  0.00  0.00    -0.261 OA
ENDBRANCH   1  12
TORSDOF 1
ENDMDL
MODEL 9
REMARK VINA RESULT:      -1.2      9.956     10.255
REMARK  1 active torsions:
REMARK  status: ('A' for Active; 'I' for Inactive)
REMARK    1  A    between atoms: C_6  and  N_1 
ROOT
ATOM      1  N   UNL d   1      58.666  -9.787  29.680  0.00  0.00    -0.204 N 
ATOM      2  C   UNL d   1      58.626  -9.804  30.507  0.00  0.00     0.271 A 
ATOM      3  C   UNL d   1      59.464  -9.778  29.459  0.00  0.00     0.270 A 
ATOM      4  C   UNL d   1      59.400  -9.805  30.796  0.00  0.00     0.080 A 
ATOM      5  C   UNL d   1      59.911  -9.789  30.157  0.00  0.00     0.064 A 
ATOM      6  O   UNL d   1      57.911  -9.815  30.861  0.00  0.00    -0.266 OA
ATOM      7  O   UNL d   1      59.757  -9.761  28.689  0.00  0.00    -0.266 OA
ATOM      8  N   UNL d   1      60.502  -9.815  31.689  0.00  0.00    -0.242 NA
ATOM      9  C   UNL d   1      59.686  -9.818  31.566  0.00  0.00     0.104 A 
ATOM     10  C   UNL d   1      60.724  -9.786  30.283  0.00  0.00     0.026 A 
ATOM     11  C   UNL d   1      61.023  -9.799  31.052  0.00  0.00     0.099 A 
ENDROOT
BRANCH   1  12
ATOM     12  C   UNL d   1      58.022  -9.781  29.160  0.00  0.00     0.326 C 
ATOM     13  O   UNL d   1      57.729  -9.063  28.879  0.00  0.00    -0.261 OA
ENDBRANCH   1  12
TORSDOF 1
ENDMDL
