MODEL 1
REMARK VINA RESULT:      11.8      0.000      0.000
REMARK  3 active torsions:
REMARK  status: ('A' for Active; 'I' for Inactive)
REMARK    1  A    between atoms: C_4  and  S_1 
REMARK       I    between atoms: C_2  and  N_3 
REMARK    2  A    between atoms: C_9  and  C_2 
REMARK    3  A    between atoms: N_3  and  C_12 
ROOT
ATOM      1  C   UNL d   1      45.606 -14.612  44.614  0.00  0.00     0.107 A 
ATOM      2  C   UNL d   1      44.996 -15.100  44.868  0.00  0.00     0.015 A 
ATOM      3  C   UNL d   1      46.339 -14.937  44.409  0.00  0.00     0.015 A 
ATOM      4  C   UNL d   1      45.838 -16.241  44.715  0.00  0.00     0.085 A 
ATOM      5  C   UNL d   1      46.457 -15.763  44.460  0.00  0.00     0.020 A 
ATOM      6  C   UNL d   1      45.114 -15.926  44.919  0.00  0.00     0.020 A 
ENDROOT
BRANCH   4   7
ATOM      7  N   UNL d   1      45.958 -17.078  44.767  0.00  0.00    -0.208 NA
ATOM      8  C   UNL d   1      46.161 -17.513  44.097  0.00  0.00     0.279 C 
ATOM      9  O   UNL d   1      46.251 -17.124  43.354  0.00  0.00    -0.265 OA
BRANCH   8  10
ATOM     10  C   UNL d   1      46.277 -18.327  44.147  0.00  0.00     0.058 A 
ATOM     11  C   UNL d   1      46.353 -18.698  44.905  0.00  0.00     0.005 A 
ATOM     12  C   UNL d   1      46.469 -19.514  44.955  0.00  0.00     0.000 A 
ATOM     13  C   UNL d   1      46.512 -19.976  44.249  0.00  0.00     0.000 A 
ATOM     14  C   UNL d   1      46.438 -19.607  43.515  0.00  0.00     0.000 A 
ATOM     15  C   UNL d   1      46.321 -18.792  43.465  0.00  0.00     0.005 A 
ENDBRANCH   8  10
ENDBRANCH   4   7
BRANCH   1  16
ATOM     16  S   UNL d   1      45.487 -13.778  44.563  0.00  0.00     0.302 S 
ATOM     17  O   UNL d   1      44.758 -13.907  44.164  0.00  0.00    -0.197 OA
ATOM     18  O   UNL d   1      46.202 -13.652  44.954  0.00  0.00    -0.197 OA
ATOM     19  N   UNL d   1      45.370 -12.963  44.512  0.00  0.00    -0.043 N 
ENDBRANCH   1  16
TORSDOF 3
ENDMDL
MODEL 2
REMARK VINA RESULT:      13.3      1.961      4.508
REMARK  3 active torsions:
REMARK  status: ('A' for Active; 'I' for Inactive)
REMARK    1  A    between atoms: C_4  and  S_1 
REMARK       I    between atoms: C_2  and  N_3 
REMARK    2  A    between atoms: C_9  and  C_2 
REMARK    3  A    between atoms: N_3  and  C_12 
ROOT
ATOM      1  C   UNL d   1      46.306 -18.694  43.823  0.00  0.00     0.107 A 
ATOM      2  C   UNL d   1      46.213 -18.153  43.213  0.00  0.00     0.015 A 
ATOM      3  C   UNL d   1      46.379 -18.429  44.604  0.00  0.00     0.015 A 
ATOM      4  C   UNL d   1      46.266 -17.078  44.148  0.00  0.00     0.085 A 
ATOM      5  C   UNL d   1      46.359 -17.609  44.769  0.00  0.00     0.020 A 
ATOM      6  C   UNL d   1      46.193 -17.334  43.377  0.00  0.00     0.020 A 
ENDROOT
BRANCH   4   7
ATOM      7  N   UNL d   1      46.245 -16.247  44.315  0.00  0.00    -0.208 NA
ATOM      8  C   UNL d   1      45.527 -15.865  44.441  0.00  0.00     0.279 C 
ATOM      9  O   UNL d   1      44.806 -16.301  44.404  0.00  0.00    -0.265 OA
BRANCH   8  10
ATOM     10  C   UNL d   1      45.507 -15.057  44.603  0.00  0.00     0.058 A 
ATOM     11  C   UNL d   1      44.772 -14.681  44.793  0.00  0.00     0.005 A 
ATOM     12  C   UNL d   1      44.752 -13.872  44.955  0.00  0.00     0.000 A 
ATOM     13  C   UNL d   1      45.467 -13.422  44.932  0.00  0.00     0.000 A 
ATOM     14  C   UNL d   1      46.178 -13.795  44.747  0.00  0.00     0.000 A 
ATOM     15  C   UNL d   1      46.198 -14.604  44.584  0.00  0.00     0.005 A 
ENDBRANCH   8  10
ENDBRANCH   4   7
BRANCH   1  16
ATOM     16  S   UNL d   1      46.326 -19.521  43.657  0.00  0.00     0.302 S 
ATOM     17  O   UNL d   1      46.094 -19.368  42.865  0.00  0.00    -0.197 OA
ATOM     18  O   UNL d   1      46.555 -19.672  44.436  0.00  0.00    -0.197 OA
ATOM     19  N   UNL d   1      46.346 -20.330  43.495  0.00  0.00    -0.043 N 
ENDBRANCH   1  16
TORSDOF 3
ENDMDL
