MODEL 1
REMARK VINA RESULT:      -9.3      0.000      0.000
REMARK  2 active torsions:
REMARK  status: ('A' for Active; 'I' for Inactive)
REMARK    1  A    between atoms: C_7  and  C_1 
REMARK    2  A    between atoms: C_11  and  C_7 
ROOT
ATOM      1  C   UNL d   1      53.770  33.361  53.848  0.00  0.00     0.116 A 
ATOM      2  N   UNL d   1      52.950  34.470  54.208  0.00  0.00    -0.152 NA
ATOM      3  N   UNL d   1      53.953  34.008  55.107  0.00  0.00    -0.152 NA
ATOM      4  C   UNL d   1      54.170  33.419  54.570  0.00  0.00     0.288 A 
ATOM      5  C   UNL d   1      53.164  33.884  53.669  0.00  0.00     0.288 A 
ATOM      6  C   UNL d   1      53.347  34.530  54.928  0.00  0.00     0.374 A 
ATOM      7  O   UNL d   1      52.751  33.831  52.933  0.00  0.00    -0.265 OA
ATOM      8  O   UNL d   1      54.778  32.895  54.750  0.00  0.00    -0.265 OA
ATOM      9  O   UNL d   1      53.118  35.127  55.459  0.00  0.00    -0.242 OA
ENDROOT
BRANCH   1  10
ATOM     10  C   UNL d   1      53.985  32.767  53.299  0.00  0.00     0.010 C 
BRANCH  10  11
ATOM     11  C   UNL d   1      53.606  32.032  53.319  0.00  0.00     0.001 A 
ATOM     12  C   UNL d   1      52.894  31.924  52.929  0.00  0.00     0.003 A 
ATOM     13  C   UNL d   1      52.518  31.189  52.950  0.00  0.00     0.042 A 
ATOM     14  C   UNL d   1      52.862  30.572  53.363  0.00  0.00     0.196 A 
ATOM     15  C   UNL d   1      53.574  30.681  53.753  0.00  0.00     0.042 A 
ATOM     16  O   UNL d   1      52.486  29.820  53.390  0.00  0.00    -0.287 OA
ATOM     17  C   UNL d   1      53.953  31.408  53.736  0.00  0.00     0.003 A 
ENDBRANCH  10  11
ENDBRANCH   1  10
TORSDOF 2
ENDMDL
MODEL 2
REMARK VINA RESULT:      -9.1      1.386      3.337
REMARK  2 active torsions:
REMARK  status: ('A' for Active; 'I' for Inactive)
REMARK    1  A    between atoms: C_7  and  C_1 
REMARK    2  A    between atoms: C_11  and  C_7 
ROOT
ATOM      1  C   UNL d   1      53.407  32.057  53.168  0.00  0.00     0.116 A 
ATOM      2  N   UNL d   1      52.306  31.193  52.898  0.00  0.00    -0.152 NA
ATOM      3  N   UNL d   1      53.439  30.699  53.606  0.00  0.00    -0.152 NA
ATOM      4  C   UNL d   1      53.801  31.439  53.552  0.00  0.00     0.288 A 
ATOM      5  C   UNL d   1      52.665  31.934  52.843  0.00  0.00     0.288 A 
ATOM      6  C   UNL d   1      52.696  30.577  53.281  0.00  0.00     0.374 A 
ATOM      7  O   UNL d   1      52.256  32.560  52.448  0.00  0.00    -0.265 OA
ATOM      8  O   UNL d   1      54.546  31.562  53.879  0.00  0.00    -0.265 OA
ATOM      9  O   UNL d   1      52.320  29.837  53.327  0.00  0.00    -0.242 OA
ENDROOT
BRANCH   1  10
ATOM     10  C   UNL d   1      53.769  32.809  53.110  0.00  0.00     0.010 C 
BRANCH  10  11
ATOM     11  C   UNL d   1      53.639  33.374  53.700  0.00  0.00     0.001 A 
ATOM     12  C   UNL d   1      54.066  33.347  54.400  0.00  0.00     0.003 A 
ATOM     13  C   UNL d   1      53.934  33.912  54.986  0.00  0.00     0.042 A 
ATOM     14  C   UNL d   1      53.376  34.498  54.865  0.00  0.00     0.196 A 
ATOM     15  C   UNL d   1      52.950  34.525  54.165  0.00  0.00     0.042 A 
ATOM     16  O   UNL d   1      53.235  35.079  55.457  0.00  0.00    -0.287 OA
ATOM     17  C   UNL d   1      53.075  33.967  53.578  0.00  0.00     0.003 A 
ENDBRANCH  10  11
ENDBRANCH   1  10
TORSDOF 2
ENDMDL
MODEL 3
REMARK VINA RESULT:      -8.6      1.740      2.808
REMARK  2 active torsions:
REMARK  status: ('A' for Active; 'I' for Inactive)
REMARK    1  A    between atoms: C_7  and  C_1 
REMARK    2  A    between atoms: C_11  and  C_7 
ROOT
ATOM      1  C   UNL d   1      52.304  33.576  53.022  0.00  0.00     0.116 A 
ATOM      2  N   UNL d   1      51.345  34.625  52.918  0.00  0.00    -0.152 NA
ATOM      3  N   UNL d   1      50.910  33.280  53.095  0.00  0.00    -0.152 NA
ATOM      4  C   UNL d   1      51.695  33.023  53.106  0.00  0.00     0.288 A 
ATOM      5  C   UNL d   1      52.130  34.372  52.929  0.00  0.00     0.288 A 
ATOM      6  C   UNL d   1      50.736  34.076  53.002  0.00  0.00     0.374 A 
ATOM      7  O   UNL d   1      52.748  34.943  52.842  0.00  0.00    -0.265 OA
ATOM      8  O   UNL d   1      51.869  32.224  53.200  0.00  0.00    -0.265 OA
ATOM      9  O   UNL d   1      49.951  34.349  52.989  0.00  0.00    -0.242 OA
ENDROOT
BRANCH   1  10
ATOM     10  C   UNL d   1      53.102  33.322  53.033  0.00  0.00     0.010 C 
BRANCH  10  11
ATOM     11  C   UNL d   1      53.507  33.267  53.751  0.00  0.00     0.001 A 
ATOM     12  C   UNL d   1      53.755  33.946  54.138  0.00  0.00     0.003 A 
ATOM     13  C   UNL d   1      54.159  33.889  54.855  0.00  0.00     0.042 A 
ATOM     14  C   UNL d   1      54.310  33.152  55.176  0.00  0.00     0.196 A 
ATOM     15  C   UNL d   1      54.062  32.473  54.789  0.00  0.00     0.042 A 
ATOM     16  O   UNL d   1      54.722  33.084  55.907  0.00  0.00    -0.287 OA
ATOM     17  C   UNL d   1      53.660  32.523  54.076  0.00  0.00     0.003 A 
ENDBRANCH  10  11
ENDBRANCH   1  10
TORSDOF 2
ENDMDL
MODEL 4
REMARK VINA RESULT:      -8.5      1.629      2.926
REMARK  2 active torsions:
REMARK  status: ('A' for Active; 'I' for Inactive)
REMARK    1  A    between atoms: C_7  and  C_1 
REMARK    2  A    between atoms: C_11  and  C_7 
ROOT
ATOM      1  C   UNL d   1      53.314  34.025  53.765  0.00  0.00     0.116 A 
ATOM      2  N   UNL d   1      53.751  33.902  55.116  0.00  0.00    -0.152 NA
ATOM      3  N   UNL d   1      53.836  32.783  54.238  0.00  0.00    -0.152 NA
ATOM      4  C   UNL d   1      53.515  33.235  53.625  0.00  0.00     0.288 A 
ATOM      5  C   UNL d   1      53.431  34.356  54.506  0.00  0.00     0.288 A 
ATOM      6  C   UNL d   1      53.953  33.115  54.979  0.00  0.00     0.374 A 
ATOM      7  O   UNL d   1      53.228  35.163  54.657  0.00  0.00    -0.265 OA
ATOM      8  O   UNL d   1      53.397  32.902  52.881  0.00  0.00    -0.265 OA
ATOM      9  O   UNL d   1      54.275  32.672  55.605  0.00  0.00    -0.242 OA
ENDROOT
BRANCH   1  10
ATOM     10  C   UNL d   1      52.989  34.488  53.148  0.00  0.00     0.010 C 
BRANCH  10  11
ATOM     11  C   UNL d   1      52.182  34.435  52.975  0.00  0.00     0.001 A 
ATOM     12  C   UNL d   1      51.624  34.645  53.538  0.00  0.00     0.003 A 
ATOM     13  C   UNL d   1      50.820  34.591  53.362  0.00  0.00     0.042 A 
ATOM     14  C   UNL d   1      50.584  34.327  52.624  0.00  0.00     0.196 A 
ATOM     15  C   UNL d   1      51.142  34.116  52.062  0.00  0.00     0.042 A 
ATOM     16  O   UNL d   1      49.766  34.268  52.437  0.00  0.00    -0.287 OA
ATOM     17  C   UNL d   1      51.943  34.168  52.230  0.00  0.00     0.003 A 
ENDBRANCH  10  11
ENDBRANCH   1  10
TORSDOF 2
ENDMDL
