MODEL 1
REMARK VINA RESULT:      -9.4      0.000      0.000
REMARK  4 active torsions:
REMARK  status: ('A' for Active; 'I' for Inactive)
REMARK    1  A    between atoms: C_10  and  C_2 
REMARK    2  A    between atoms: C_13  and  C_6 
REMARK    3  A    between atoms: O_17  and  C_10 
REMARK    4  A    between atoms: C_23  and  O_17 
ROOT
ATOM      1  C   UNL d   1     -47.885  12.403  23.168  0.00  0.00     0.081 A 
ATOM      2  C   UNL d   1     -48.317  13.735  22.865  0.00  0.00     0.106 A 
ATOM      3  C   UNL d   1     -47.533  14.006  22.914  0.00  0.00     0.208 A 
ATOM      4  C   UNL d   1     -47.101  12.674  23.218  0.00  0.00     0.108 A 
ATOM      5  C   UNL d   1     -48.055  11.603  23.295  0.00  0.00     0.281 A 
ATOM      6  C   UNL d   1     -48.495  12.933  22.992  0.00  0.00     0.015 A 
ATOM      7  O   UNL d   1     -46.929  13.466  23.092  0.00  0.00    -0.288 OA
ATOM      8  N   UNL d   1     -47.444  11.073  23.472  0.00  0.00    -0.208 NA
ATOM      9  C   UNL d   1     -46.487  12.146  23.394  0.00  0.00     0.044 A 
ATOM     10  C   UNL d   1     -46.654  11.337  23.524  0.00  0.00     0.087 A 
ATOM     11  O   UNL d   1     -48.831  11.338  23.246  0.00  0.00    -0.265 OA
ATOM     12  N   UNL d   1     -47.364  14.794  22.789  0.00  0.00    -0.121 N 
ATOM     13  C   UNL d   1     -46.055  10.812  23.698  0.00  0.00     0.021 C 
ENDROOT
BRANCH   6  14
ATOM     14  C   UNL d   1     -49.270  12.664  22.943  0.00  0.00     0.004 A 
ATOM     15  C   UNL d   1     -49.593  12.489  22.205  0.00  0.00     0.021 A 
ATOM     16  C   UNL d   1     -50.368  12.220  22.156  0.00  0.00     0.099 A 
ATOM     17  N   UNL d   1     -50.814  12.128  22.840  0.00  0.00    -0.242 NA
ATOM     18  C   UNL d   1     -50.484  12.305  23.578  0.00  0.00     0.099 A 
ATOM     19  C   UNL d   1     -49.716  12.571  23.626  0.00  0.00     0.021 A 
ENDBRANCH   6  14
BRANCH   2  20
ATOM     20  C   UNL d   1     -48.919  14.268  22.689  0.00  0.00     0.304 C 
ATOM     21  O   UNL d   1     -49.191  14.330  21.915  0.00  0.00    -0.259 OA
BRANCH  20  22
ATOM     22  O   UNL d   1     -49.245  14.730  23.276  0.00  0.00    -0.271 OA
BRANCH  22  23
ATOM     23  C   UNL d   1     -49.596  15.452  23.101  0.00  0.00     0.126 C 
ATOM     24  C   UNL d   1     -49.969  15.881  23.698  0.00  0.00     0.029 C 
ENDBRANCH  22  23
ENDBRANCH  20  22
ENDBRANCH   2  20
TORSDOF 4
ENDMDL
MODEL 2
REMARK VINA RESULT:      -8.6      1.249      3.272
REMARK  4 active torsions:
REMARK  status: ('A' for Active; 'I' for Inactive)
REMARK    1  A    between atoms: C_10  and  C_2 
REMARK    2  A    between atoms: C_13  and  C_6 
REMARK    3  A    between atoms: O_17  and  C_10 
REMARK    4  A    between atoms: C_23  and  O_17 
ROOT
ATOM      1  C   UNL d   1     -48.620  13.916  22.930  0.00  0.00     0.081 A 
ATOM      2  C   UNL d   1     -47.191  13.803  22.907  0.00  0.00     0.106 A 
ATOM      3  C   UNL d   1     -47.121  14.630  22.884  0.00  0.00     0.208 A 
ATOM      4  C   UNL d   1     -48.550  14.744  22.907  0.00  0.00     0.108 A 
ATOM      5  C   UNL d   1     -49.369  13.565  22.953  0.00  0.00     0.281 A 
ATOM      6  C   UNL d   1     -47.941  13.443  22.930  0.00  0.00     0.015 A 
ATOM      7  O   UNL d   1     -47.808  15.095  22.885  0.00  0.00    -0.288 OA
ATOM      8  N   UNL d   1     -50.048  14.038  22.953  0.00  0.00    -0.208 NA
ATOM      9  C   UNL d   1     -49.228  15.221  22.907  0.00  0.00     0.044 A 
ATOM     10  C   UNL d   1     -49.986  14.870  22.930  0.00  0.00     0.087 A 
ATOM     11  O   UNL d   1     -49.435  12.746  22.975  0.00  0.00    -0.265 OA
ATOM     12  N   UNL d   1     -46.384  14.978  22.862  0.00  0.00    -0.121 N 
ATOM     13  C   UNL d   1     -50.657  15.333  22.931  0.00  0.00     0.021 C 
ENDROOT
BRANCH   6  14
ATOM     14  C   UNL d   1     -48.012  12.624  22.952  0.00  0.00     0.004 A 
ATOM     15  C   UNL d   1     -47.959  12.233  23.675  0.00  0.00     0.021 A 
ATOM     16  C   UNL d   1     -48.029  11.415  23.698  0.00  0.00     0.099 A 
ATOM     17  N   UNL d   1     -48.151  10.994  23.003  0.00  0.00    -0.242 NA
ATOM     18  C   UNL d   1     -48.203  11.393  22.279  0.00  0.00     0.099 A 
ATOM     19  C   UNL d   1     -48.134  12.204  22.257  0.00  0.00     0.021 A 
ENDBRANCH   6  14
BRANCH   2  20
ATOM     20  C   UNL d   1     -46.512  13.338  22.907  0.00  0.00     0.304 C 
ATOM     21  O   UNL d   1     -46.234  13.027  23.615  0.00  0.00    -0.259 OA
BRANCH  20  22
ATOM     22  O   UNL d   1     -46.117  13.187  22.210  0.00  0.00    -0.271 OA
BRANCH  22  23
ATOM     23  C   UNL d   1     -45.304  13.064  22.202  0.00  0.00     0.126 C 
ATOM     24  C   UNL d   1     -44.936  12.809  21.510  0.00  0.00     0.029 C 
ENDBRANCH  22  23
ENDBRANCH  20  22
ENDBRANCH   2  20
TORSDOF 4
ENDMDL
MODEL 3
REMARK VINA RESULT:      -7.9      1.172      1.591
REMARK  4 active torsions:
REMARK  status: ('A' for Active; 'I' for Inactive)
REMARK    1  A    between atoms: C_10  and  C_2 
REMARK    2  A    between atoms: C_13  and  C_6 
REMARK    3  A    between atoms: O_17  and  C_10 
REMARK    4  A    between atoms: C_23  and  O_17 
ROOT
ATOM      1  C   UNL d   1     -47.477  13.296  22.707  0.00  0.00     0.081 A 
ATOM      2  C   UNL d   1     -48.627  14.150  22.707  0.00  0.00     0.106 A 
ATOM      3  C   UNL d   1     -48.139  14.815  22.613  0.00  0.00     0.208 A 
ATOM      4  C   UNL d   1     -46.988  13.961  22.613  0.00  0.00     0.108 A 
ATOM      5  C   UNL d   1     -47.141  12.540  22.753  0.00  0.00     0.281 A 
ATOM      6  C   UNL d   1     -48.297  13.388  22.754  0.00  0.00     0.015 A 
ATOM      7  O   UNL d   1     -47.317  14.712  22.567  0.00  0.00    -0.288 OA
ATOM      8  N   UNL d   1     -46.320  12.447  22.706  0.00  0.00    -0.208 NA
ATOM      9  C   UNL d   1     -46.165  13.872  22.566  0.00  0.00     0.044 A 
ATOM     10  C   UNL d   1     -45.823  13.111  22.612  0.00  0.00     0.087 A 
ATOM     11  O   UNL d   1     -47.627  11.883  22.846  0.00  0.00    -0.265 OA
ATOM     12  N   UNL d   1     -48.467  15.560  22.568  0.00  0.00    -0.121 N 
ATOM     13  C   UNL d   1     -45.014  13.017  22.566  0.00  0.00     0.021 C 
ENDROOT
BRANCH   6  14
ATOM     14  C   UNL d   1     -48.779  12.729  22.847  0.00  0.00     0.004 A 
ATOM     15  C   UNL d   1     -49.003  12.494  23.605  0.00  0.00     0.021 A 
ATOM     16  C   UNL d   1     -49.485  11.835  23.697  0.00  0.00     0.099 A 
ATOM     17  N   UNL d   1     -49.740  11.417  23.038  0.00  0.00    -0.242 NA
ATOM     18  C   UNL d   1     -49.512  11.657  22.280  0.00  0.00     0.099 A 
ATOM     19  C   UNL d   1     -49.034  12.310  22.188  0.00  0.00     0.021 A 
ENDBRANCH   6  14
BRANCH   2  20
ATOM     20  C   UNL d   1     -49.442  14.249  22.753  0.00  0.00     0.304 C 
ATOM     21  O   UNL d   1     -49.811  14.238  23.488  0.00  0.00    -0.259 OA
BRANCH  20  22
ATOM     22  O   UNL d   1     -49.883  14.357  22.076  0.00  0.00    -0.271 OA
BRANCH  22  23
ATOM     23  C   UNL d   1     -50.648  14.656  22.112  0.00  0.00     0.126 C 
ATOM     24  C   UNL d   1     -51.064  14.798  21.415  0.00  0.00     0.029 C 
ENDBRANCH  22  23
ENDBRANCH  20  22
ENDBRANCH   2  20
TORSDOF 4
ENDMDL
MODEL 4
REMARK VINA RESULT:      -7.6      1.015      3.201
REMARK  4 active torsions:
REMARK  status: ('A' for Active; 'I' for Inactive)
REMARK    1  A    between atoms: C_10  and  C_2 
REMARK    2  A    between atoms: C_13  and  C_6 
REMARK    3  A    between atoms: O_17  and  C_10 
REMARK    4  A    between atoms: C_23  and  O_17 
ROOT
ATOM      1  C   UNL d   1     -48.913  12.636  23.219  0.00  0.00     0.081 A 
ATOM      2  C   UNL d   1     -47.482  12.713  23.219  0.00  0.00     0.106 A 
ATOM      3  C   UNL d   1     -47.436  11.947  23.535  0.00  0.00     0.208 A 
ATOM      4  C   UNL d   1     -48.867  11.869  23.535  0.00  0.00     0.108 A 
ATOM      5  C   UNL d   1     -49.652  12.976  23.063  0.00  0.00     0.281 A 
ATOM      6  C   UNL d   1     -48.221  13.061  23.060  0.00  0.00     0.015 A 
ATOM      7  O   UNL d   1     -48.136  11.529  23.691  0.00  0.00    -0.288 OA
ATOM      8  N   UNL d   1     -50.345  12.551  23.222  0.00  0.00    -0.208 NA
ATOM      9  C   UNL d   1     -49.559  11.441  23.695  0.00  0.00     0.044 A 
ATOM     10  C   UNL d   1     -50.307  11.780  23.540  0.00  0.00     0.087 A 
ATOM     11  O   UNL d   1     -49.695  13.735  22.750  0.00  0.00    -0.265 OA
ATOM     12  N   UNL d   1     -46.710  11.611  23.689  0.00  0.00    -0.121 N 
ATOM     13  C   UNL d   1     -50.991  11.365  23.695  0.00  0.00     0.021 C 
ENDROOT
BRANCH   6  14
ATOM     14  C   UNL d   1     -48.268  13.819  22.747  0.00  0.00     0.004 A 
ATOM     15  C   UNL d   1     -48.252  14.468  23.255  0.00  0.00     0.021 A 
ATOM     16  C   UNL d   1     -48.299  15.227  22.942  0.00  0.00     0.099 A 
ATOM     17  N   UNL d   1     -48.361  15.333  22.130  0.00  0.00    -0.242 NA
ATOM     18  C   UNL d   1     -48.377  14.677  21.625  0.00  0.00     0.099 A 
ATOM     19  C   UNL d   1     -48.330  13.925  21.935  0.00  0.00     0.021 A 
ENDBRANCH   6  14
BRANCH   2  20
ATOM     20  C   UNL d   1     -46.790  13.130  23.063  0.00  0.00     0.304 C 
ATOM     21  O   UNL d   1     -46.535  13.704  23.593  0.00  0.00    -0.259 OA
BRANCH  20  22
ATOM     22  O   UNL d   1     -46.359  12.975  22.388  0.00  0.00    -0.271 OA
BRANCH  22  23
ATOM     23  C   UNL d   1     -45.562  13.170  22.341  0.00  0.00     0.126 C 
ATOM     24  C   UNL d   1     -45.113  12.903  21.703  0.00  0.00     0.029 C 
ENDBRANCH  22  23
ENDBRANCH  20  22
ENDBRANCH   2  20
TORSDOF 4
ENDMDL
MODEL 5
REMARK VINA RESULT:      -7.5      1.134      2.518
REMARK  4 active torsions:
REMARK  status: ('A' for Active; 'I' for Inactive)
REMARK    1  A    between atoms: C_10  and  C_2 
REMARK    2  A    between atoms: C_13  and  C_6 
REMARK    3  A    between atoms: O_17  and  C_10 
REMARK    4  A    between atoms: C_23  and  O_17 
ROOT
ATOM      1  C   UNL d   1     -47.375  12.187  23.244  0.00  0.00     0.081 A 
ATOM      2  C   UNL d   1     -48.789  12.421  23.243  0.00  0.00     0.106 A 
ATOM      3  C   UNL d   1     -48.921  11.657  23.541  0.00  0.00     0.208 A 
ATOM      4  C   UNL d   1     -47.507  11.423  23.542  0.00  0.00     0.108 A 
ATOM      5  C   UNL d   1     -46.603  12.446  23.098  0.00  0.00     0.281 A 
ATOM      6  C   UNL d   1     -48.015  12.688  23.094  0.00  0.00     0.015 A 
ATOM      7  O   UNL d   1     -48.271  11.162  23.688  0.00  0.00    -0.288 OA
ATOM      8  N   UNL d   1     -45.962  11.945  23.249  0.00  0.00    -0.208 NA
ATOM      9  C   UNL d   1     -46.867  10.918  23.694  0.00  0.00     0.044 A 
ATOM     10  C   UNL d   1     -46.086  11.176  23.548  0.00  0.00     0.087 A 
ATOM     11  O   UNL d   1     -46.475  13.203  22.803  0.00  0.00    -0.265 OA
ATOM     12  N   UNL d   1     -49.680  11.399  23.685  0.00  0.00    -0.121 N 
ATOM     13  C   UNL d   1     -45.452  10.684  23.695  0.00  0.00     0.021 C 
ENDROOT
BRANCH   6  14
ATOM     14  C   UNL d   1     -47.884  13.444  22.799  0.00  0.00     0.004 A 
ATOM     15  C   UNL d   1     -47.778  14.071  23.324  0.00  0.00     0.021 A 
ATOM     16  C   UNL d   1     -47.646  14.827  23.029  0.00  0.00     0.099 A 
ATOM     17  N   UNL d   1     -47.622  14.952  22.217  0.00  0.00    -0.242 NA
ATOM     18  C   UNL d   1     -47.730  14.319  21.695  0.00  0.00     0.099 A 
ATOM     19  C   UNL d   1     -47.860  13.570  21.988  0.00  0.00     0.021 A 
ENDBRANCH   6  14
BRANCH   2  20
ATOM     20  C   UNL d   1     -49.430  12.915  23.096  0.00  0.00     0.304 C 
ATOM     21  O   UNL d   1     -49.631  13.493  23.644  0.00  0.00    -0.259 OA
BRANCH  20  22
ATOM     22  O   UNL d   1     -49.865  12.832  22.411  0.00  0.00    -0.271 OA
BRANCH  22  23
ATOM     23  C   UNL d   1     -50.651  13.070  22.376  0.00  0.00     0.126 C 
ATOM     24  C   UNL d   1     -51.056  13.043  21.659  0.00  0.00     0.029 C 
ENDBRANCH  22  23
ENDBRANCH  20  22
ENDBRANCH   2  20
TORSDOF 4
ENDMDL
MODEL 6
REMARK VINA RESULT:      -6.7      1.144      3.871
REMARK  4 active torsions:
REMARK  status: ('A' for Active; 'I' for Inactive)
REMARK    1  A    between atoms: C_10  and  C_2 
REMARK    2  A    between atoms: C_13  and  C_6 
REMARK    3  A    between atoms: O_17  and  C_10 
REMARK    4  A    between atoms: C_23  and  O_17 
ROOT
ATOM      1  C   UNL d   1     -49.201  14.067  23.184  0.00  0.00     0.081 A 
ATOM      2  C   UNL d   1     -48.914  12.664  23.144  0.00  0.00     0.106 A 
ATOM      3  C   UNL d   1     -49.672  12.495  23.438  0.00  0.00     0.208 A 
ATOM      4  C   UNL d   1     -49.959  13.899  23.478  0.00  0.00     0.108 A 
ATOM      5  C   UNL d   1     -48.971  14.853  23.060  0.00  0.00     0.281 A 
ATOM      6  C   UNL d   1     -48.676  13.451  23.016  0.00  0.00     0.015 A 
ATOM      7  O   UNL d   1     -50.191  13.121  23.603  0.00  0.00    -0.288 OA
ATOM      8  N   UNL d   1     -49.496  15.470  23.228  0.00  0.00    -0.208 NA
ATOM      9  C   UNL d   1     -50.488  14.515  23.648  0.00  0.00     0.044 A 
ATOM     10  C   UNL d   1     -50.260  15.309  23.524  0.00  0.00     0.087 A 
ATOM     11  O   UNL d   1     -48.220  15.017  22.768  0.00  0.00    -0.265 OA
ATOM     12  N   UNL d   1     -49.901  11.723  23.561  0.00  0.00    -0.121 N 
ATOM     13  C   UNL d   1     -50.775  15.919  23.689  0.00  0.00     0.021 C 
ENDROOT
BRANCH   6  14
ATOM     14  C   UNL d   1     -47.926  13.619  22.725  0.00  0.00     0.004 A 
ATOM     15  C   UNL d   1     -47.325  13.825  23.249  0.00  0.00     0.021 A 
ATOM     16  C   UNL d   1     -46.574  13.992  22.958  0.00  0.00     0.099 A 
ATOM     17  N   UNL d   1     -46.430  13.954  22.150  0.00  0.00    -0.242 NA
ATOM     18  C   UNL d   1     -47.038  13.746  21.629  0.00  0.00     0.099 A 
ATOM     19  C   UNL d   1     -47.781  13.580  21.917  0.00  0.00     0.021 A 
ENDBRANCH   6  14
BRANCH   2  20
ATOM     20  C   UNL d   1     -48.397  12.046  22.978  0.00  0.00     0.304 C 
ATOM     21  O   UNL d   1     -48.386  11.718  22.224  0.00  0.00    -0.259 OA
BRANCH  20  22
ATOM     22  O   UNL d   1     -47.898  11.760  23.556  0.00  0.00    -0.271 OA
BRANCH  22  23
ATOM     23  C   UNL d   1     -47.751  10.955  23.629  0.00  0.00     0.126 C 
ATOM     24  C   UNL d   1     -46.975  10.684  23.692  0.00  0.00     0.029 C 
ENDBRANCH  22  23
ENDBRANCH  20  22
ENDBRANCH   2  20
TORSDOF 4
ENDMDL
