MODEL 1
REMARK VINA RESULT:      -6.4      0.000      0.000
REMARK  7 active torsions:
REMARK  status: ('A' for Active; 'I' for Inactive)
REMARK    1  A    between atoms: N_6  and  C_1 
REMARK    2  A    between atoms: C_10  and  C_2 
REMARK       I    between atoms: C_8  and  N_6 
REMARK       I    between atoms: C_9  and  N_7 
REMARK    3  A    between atoms: C_12  and  C_8 
REMARK    4  A    between atoms: O_22  and  C_9 
REMARK    5  A    between atoms: O_23  and  C_10 
REMARK    6  A    between atoms: C_24  and  O_22 
REMARK    7  A    between atoms: C_25  and  O_23 
ROOT
ATOM      1  C   UNL d   1      52.335  33.670  53.739  0.00  0.00     0.119 A 
ATOM      2  C   UNL d   1      51.995  33.240  53.122  0.00  0.00     0.088 A 
ATOM      3  C   UNL d   1      51.191  34.263  53.404  0.00  0.00     0.049 A 
ATOM      4  C   UNL d   1      51.282  33.618  52.920  0.00  0.00     0.016 A 
ATOM      5  S   UNL d   1      51.832  34.309  53.916  0.00  0.00    -0.066 SA
ATOM      6  N   UNL d   1      49.951  34.572  52.756  0.00  0.00    -0.251 N 
ATOM      7  C   UNL d   1      49.282  35.050  52.672  0.00  0.00     0.378 C 
ATOM      8  C   UNL d   1      50.513  34.753  53.324  0.00  0.00     0.091 A 
ATOM      9  C   UNL d   1      50.714  33.429  52.340  0.00  0.00     0.020 A 
ATOM     10  C   UNL d   1      50.050  33.915  52.268  0.00  0.00     0.085 A 
ATOM     11  O   UNL d   1      49.182  35.707  53.160  0.00  0.00    -0.237 OA
ENDROOT
BRANCH   1  12
ATOM     12  N   UNL d   1      53.055  33.496  54.121  0.00  0.00    -0.201 NA
ATOM     13  C   UNL d   1      53.452  34.088  54.523  0.00  0.00     0.286 C 
ATOM     14  O   UNL d   1      53.152  34.856  54.558  0.00  0.00    -0.265 OA
BRANCH  13  15
ATOM     15  C   UNL d   1      54.165  33.916  54.900  0.00  0.00     0.087 A 
ATOM     16  S   UNL d   1      54.918  34.178  54.681  0.00  0.00    -0.082 SA
ATOM     17  C   UNL d   1      55.469  33.869  55.217  0.00  0.00     0.036 A 
ATOM     18  C   UNL d   1      55.054  33.424  55.755  0.00  0.00     0.008 A 
ATOM     19  C   UNL d   1      54.256  33.446  55.571  0.00  0.00     0.012 A 
ENDBRANCH  13  15
ENDBRANCH   1  12
BRANCH   2  20
ATOM     20  C   UNL d   1      52.312  32.563  52.776  0.00  0.00     0.302 C 
ATOM     21  O   UNL d   1      52.771  32.651  52.094  0.00  0.00    -0.259 OA
BRANCH  20  22
ATOM     22  O   UNL d   1      52.170  31.813  53.112  0.00  0.00    -0.271 OA
BRANCH  22  23
ATOM     23  C   UNL d   1      52.565  31.152  52.824  0.00  0.00     0.126 C 
ATOM     24  C   UNL d   1      52.459  30.411  53.181  0.00  0.00     0.029 C 
ENDBRANCH  22  23
ENDBRANCH  20  22
ENDBRANCH   2  20
BRANCH   7  25
ATOM     25  O   UNL d   1      48.716  34.871  52.103  0.00  0.00    -0.257 OA
BRANCH  25  26
ATOM     26  C   UNL d   1      48.077  35.375  51.972  0.00  0.00     0.128 C 
ATOM     27  C   UNL d   1      47.579  35.269  51.323  0.00  0.00     0.029 C 
ENDBRANCH  25  26
ENDBRANCH   7  25
TORSDOF 7
ENDMDL
MODEL 2
REMARK VINA RESULT:      -5.3      1.308      2.728
REMARK  7 active torsions:
REMARK  status: ('A' for Active; 'I' for Inactive)
REMARK    1  A    between atoms: N_6  and  C_1 
REMARK    2  A    between atoms: C_10  and  C_2 
REMARK       I    between atoms: C_8  and  N_6 
REMARK       I    between atoms: C_9  and  N_7 
REMARK    3  A    between atoms: C_12  and  C_8 
REMARK    4  A    between atoms: O_22  and  C_9 
REMARK    5  A    between atoms: O_23  and  C_10 
REMARK    6  A    between atoms: C_24  and  O_22 
REMARK    7  A    between atoms: C_25  and  O_23 
ROOT
ATOM      1  C   UNL d   1      52.251  32.728  53.221  0.00  0.00     0.119 A 
ATOM      2  C   UNL d   1      52.390  33.503  53.469  0.00  0.00     0.088 A 
ATOM      3  C   UNL d   1      51.139  33.432  53.020  0.00  0.00     0.049 A 
ATOM      4  C   UNL d   1      51.691  33.934  53.340  0.00  0.00     0.016 A 
ATOM      5  S   UNL d   1      51.469  32.684  52.940  0.00  0.00    -0.066 SA
ATOM      6  N   UNL d   1      50.192  34.506  52.971  0.00  0.00    -0.251 N 
ATOM      7  C   UNL d   1      49.440  34.795  52.786  0.00  0.00     0.378 C 
ATOM      8  C   UNL d   1      50.373  33.720  52.830  0.00  0.00     0.091 A 
ATOM      9  C   UNL d   1      51.513  34.735  53.485  0.00  0.00     0.020 A 
ATOM     10  C   UNL d   1      50.758  35.010  53.296  0.00  0.00     0.085 A 
ATOM     11  O   UNL d   1      48.875  34.292  52.461  0.00  0.00    -0.237 OA
ENDROOT
BRANCH   1  12
ATOM     12  N   UNL d   1      52.796  32.099  53.247  0.00  0.00    -0.201 NA
ATOM     13  C   UNL d   1      52.524  31.327  53.232  0.00  0.00     0.286 C 
ATOM     14  O   UNL d   1      51.716  31.160  53.192  0.00  0.00    -0.265 OA
BRANCH  13  15
ATOM     15  C   UNL d   1      53.064  30.704  53.257  0.00  0.00     0.087 A 
ATOM     16  S   UNL d   1      52.955  29.968  53.619  0.00  0.00    -0.082 SA
ATOM     17  C   UNL d   1      53.642  29.517  53.506  0.00  0.00     0.036 A 
ATOM     18  C   UNL d   1      54.160  29.976  53.080  0.00  0.00     0.008 A 
ATOM     19  C   UNL d   1      53.817  30.703  52.923  0.00  0.00     0.012 A 
ENDBRANCH  13  15
ENDBRANCH   1  12
BRANCH   2  20
ATOM     20  C   UNL d   1      53.096  33.787  53.786  0.00  0.00     0.302 C 
ATOM     21  O   UNL d   1      53.622  34.175  53.281  0.00  0.00    -0.259 OA
BRANCH  20  22
ATOM     22  O   UNL d   1      53.266  33.680  54.596  0.00  0.00    -0.271 OA
BRANCH  22  23
ATOM     23  C   UNL d   1      53.970  33.971  54.909  0.00  0.00     0.126 C 
ATOM     24  C   UNL d   1      54.313  33.611  55.572  0.00  0.00     0.029 C 
ENDBRANCH  22  23
ENDBRANCH  20  22
ENDBRANCH   2  20
BRANCH   7  25
ATOM     25  O   UNL d   1      49.257  35.585  52.927  0.00  0.00    -0.257 OA
BRANCH  25  26
ATOM     26  C   UNL d   1      48.481  35.856  52.851  0.00  0.00     0.128 C 
ATOM     27  C   UNL d   1      48.199  36.471  53.323  0.00  0.00     0.029 C 
ENDBRANCH  25  26
ENDBRANCH   7  25
TORSDOF 7
ENDMDL
MODEL 3
REMARK VINA RESULT:      -4.8      1.795      4.990
REMARK  7 active torsions:
REMARK  status: ('A' for Active; 'I' for Inactive)
REMARK    1  A    between atoms: N_6  and  C_1 
REMARK    2  A    between atoms: C_10  and  C_2 
REMARK       I    between atoms: C_8  and  N_6 
REMARK       I    between atoms: C_9  and  N_7 
REMARK    3  A    between atoms: C_12  and  C_8 
REMARK    4  A    between atoms: O_22  and  C_9 
REMARK    5  A    between atoms: O_23  and  C_10 
REMARK    6  A    between atoms: C_24  and  O_22 
REMARK    7  A    between atoms: C_25  and  O_23 
ROOT
ATOM      1  C   UNL d   1      51.124  33.848  53.049  0.00  0.00     0.119 A 
ATOM      2  C   UNL d   1      51.936  33.915  53.184  0.00  0.00     0.088 A 
ATOM      3  C   UNL d   1      51.639  32.621  53.093  0.00  0.00     0.049 A 
ATOM      4  C   UNL d   1      52.248  33.145  53.210  0.00  0.00     0.016 A 
ATOM      5  S   UNL d   1      50.939  33.039  52.991  0.00  0.00    -0.066 SA
ATOM      6  N   UNL d   1      52.560  31.528  53.208  0.00  0.00    -0.251 N 
ATOM      7  C   UNL d   1      52.718  30.718  53.207  0.00  0.00     0.378 C 
ATOM      8  C   UNL d   1      51.794  31.795  53.091  0.00  0.00     0.091 A 
ATOM      9  C   UNL d   1      53.029  32.881  53.330  0.00  0.00     0.020 A 
ATOM     10  C   UNL d   1      53.173  32.067  53.327  0.00  0.00     0.085 A 
ATOM     11  O   UNL d   1      52.106  30.179  53.089  0.00  0.00    -0.237 OA
ENDROOT
BRANCH   1  12
ATOM     12  N   UNL d   1      50.583  34.478  52.981  0.00  0.00    -0.201 NA
ATOM     13  C   UNL d   1      49.810  34.324  52.761  0.00  0.00     0.286 C 
ATOM     14  O   UNL d   1      49.555  33.555  52.606  0.00  0.00    -0.265 OA
BRANCH  13  15
ATOM     15  C   UNL d   1      49.274  34.948  52.694  0.00  0.00     0.087 A 
ATOM     16  S   UNL d   1      48.873  35.185  52.011  0.00  0.00    -0.082 SA
ATOM     17  C   UNL d   1      48.394  35.835  52.201  0.00  0.00     0.036 A 
ATOM     18  C   UNL d   1      48.505  35.989  52.991  0.00  0.00     0.008 A 
ATOM     19  C   UNL d   1      49.041  35.453  53.302  0.00  0.00     0.012 A 
ENDBRANCH  13  15
ENDBRANCH   1  12
BRANCH   2  20
ATOM     20  C   UNL d   1      52.350  34.622  53.276  0.00  0.00     0.302 C 
ATOM     21  O   UNL d   1      52.643  34.993  52.598  0.00  0.00    -0.259 OA
BRANCH  20  22
ATOM     22  O   UNL d   1      52.467  34.946  54.036  0.00  0.00    -0.271 OA
BRANCH  22  23
ATOM     23  C   UNL d   1      52.963  35.594  54.134  0.00  0.00     0.126 C 
ATOM     24  C   UNL d   1      53.046  35.950  54.878  0.00  0.00     0.029 C 
ENDBRANCH  22  23
ENDBRANCH  20  22
ENDBRANCH   2  20
BRANCH   7  25
ATOM     25  O   UNL d   1      53.486  30.448  53.325  0.00  0.00    -0.257 OA
BRANCH  25  26
ATOM     26  C   UNL d   1      53.642  29.641  53.398  0.00  0.00     0.128 C 
ATOM     27  C   UNL d   1      54.026  29.342  54.064  0.00  0.00     0.029 C 
ENDBRANCH  25  26
ENDBRANCH   7  25
TORSDOF 7
ENDMDL
