MODEL 1
REMARK VINA RESULT:      38.4      0.000      0.000
REMARK  5 active torsions:
REMARK  status: ('A' for Active; 'I' for Inactive)
REMARK    1  A    between atoms: C_6  and  C_1 
REMARK    2  A    between atoms: C_11  and  N_3 
REMARK    3  A    between atoms: C_16  and  C_11 
REMARK    4  A    between atoms: C_13  and  O_15 
REMARK    5  A    between atoms: O_15  and  C_16 
ROOT
ATOM      1  C   UNL d   1     -59.195 -98.848 -44.172  0.00  0.00     0.171 A 
ATOM      2  N   UNL d   1     -59.751 -98.883 -44.784  0.00  0.00    -0.225 NA
ATOM      3  N   UNL d   1     -58.438 -98.795 -44.513  0.00  0.00    -0.286 N 
ATOM      4  C   UNL d   1     -58.526 -98.797 -45.336  0.00  0.00     0.083 A 
ATOM      5  C   UNL d   1     -59.338 -98.852 -45.505  0.00  0.00     0.099 A 
ATOM      6  C   UNL d   1     -57.978 -98.757 -45.966  0.00  0.00     0.019 A 
ATOM      7  C   UNL d   1     -59.599 -98.866 -46.295  0.00  0.00     0.021 A 
ATOM      8  C   UNL d   1     -58.241 -98.772 -46.747  0.00  0.00     0.002 A 
ATOM      9  C   UNL d   1     -59.053 -98.826 -46.912  0.00  0.00     0.002 A 
ENDROOT
BRANCH   3  10
ATOM     10  C   UNL d   1     -57.821 -98.755 -43.966  0.00  0.00     0.108 C 
BRANCH  10  11
ATOM     11  C   UNL d   1     -57.039 -98.793 -44.225  0.00  0.00     0.142 C 
BRANCH  11  12
ATOM     12  O   UNL d   1     -56.492 -99.256 -43.816  0.00  0.00    -0.304 OA
BRANCH  12  13
ATOM     13  C   UNL d   1     -55.900 -99.654 -44.230  0.00  0.00     0.100 A 
ATOM     14  C   UNL d   1     -55.851-100.477 -44.171  0.00  0.00     0.025 A 
ATOM     15  C   UNL d   1     -55.260-100.881 -44.583  0.00  0.00     0.002 A 
ATOM     16  C   UNL d   1     -55.203-101.702 -44.530  0.00  0.00     0.000 C 
ATOM     17  C   UNL d   1     -54.722-100.456 -45.053  0.00  0.00     0.000 A 
ATOM     18  C   UNL d   1     -54.779 -99.635 -45.106  0.00  0.00     0.002 A 
ATOM     19  C   UNL d   1     -55.371 -99.236 -44.693  0.00  0.00     0.025 A 
ENDBRANCH  12  13
ENDBRANCH  11  12
ENDBRANCH  10  11
ENDBRANCH   3  10
BRANCH   1  20
ATOM     20  C   UNL d   1     -59.362 -98.863 -43.363  0.00  0.00     0.134 A 
ATOM     21  O   UNL d   1     -59.960 -98.823 -42.964  0.00  0.00    -0.302 OA
ATOM     22  C   UNL d   1     -59.921 -98.853 -42.248  0.00  0.00     0.123 A 
ATOM     23  C   UNL d   1     -59.277 -98.926 -41.920  0.00  0.00     0.029 A 
ATOM     24  C   UNL d   1     -58.682 -98.966 -42.320  0.00  0.00     0.030 A 
ENDBRANCH   1  20
TORSDOF 5
ENDMDL
