MODEL 1
REMARK VINA RESULT:      37.4      0.000      0.000
REMARK  7 active torsions:
REMARK  status: ('A' for Active; 'I' for Inactive)
REMARK    1  A    between atoms: N_2  and  C_1 
REMARK    2  A    between atoms: S_4  and  C_3 
REMARK    3  A    between atoms: C_6  and  S_4 
REMARK    4  A    between atoms: C_5  and  C_8 
REMARK    5  A    between atoms: C_9  and  C_6 
REMARK    6  A    between atoms: O_14  and  C_9 
REMARK    7  A    between atoms: C_12  and  O_14 
ROOT
ATOM      1  S   UNL d   1     -55.019 -99.888 -44.285  0.00  0.00     0.096 S 
ATOM      2  O   UNL d   1     -54.762-100.119 -45.026  0.00  0.00    -0.247 OA
ENDROOT
BRANCH   1   3
ATOM      3  C   UNL d   1     -54.963-100.415 -43.648  0.00  0.00     0.082 A 
ATOM      4  C   UNL d   1     -55.100-101.234 -43.761  0.00  0.00     0.135 A 
ATOM      5  C   UNL d   1     -55.041-101.748 -43.119  0.00  0.00     0.028 A 
ATOM      6  C   UNL d   1     -54.850-101.468 -42.368  0.00  0.00     0.073 A 
ATOM      7  C   UNL d   1     -54.715-100.657 -42.256  0.00  0.00     0.005 A 
ATOM      8  C   UNL d   1     -54.771-100.130 -42.895  0.00  0.00     0.011 A 
BRANCH   4   9
ATOM      9  N   UNL d   1     -55.291-101.513 -44.513  0.00  0.00    -0.113 N 
ATOM     10  O   UNL d   1     -54.724-101.472 -45.123  0.00  0.00    -0.532 OA
ATOM     11  O   UNL d   1     -56.044-101.832 -44.663  0.00  0.00    -0.532 OA
ENDBRANCH   4   9
BRANCH   6  12
ATOM     12  C   UNL d   1     -54.792-101.982 -41.726  0.00  0.00     0.419 C 
ATOM     13  F   UNL d   1     -54.752-102.854 -41.730  0.00  0.00    -0.166 F 
ATOM     14  F   UNL d   1     -54.738-102.463 -41.147  0.00  0.00    -0.166 F 
ATOM     15  F   UNL d   1     -54.753-101.812 -40.875  0.00  0.00    -0.166 F 
ENDBRANCH   6  12
ENDBRANCH   1   3
BRANCH   1  16
ATOM     16  C   UNL d   1     -55.333 -99.134 -44.168  0.00  0.00     0.137 C 
BRANCH  16  17
ATOM     17  C   UNL d   1     -56.080 -98.948 -44.472  0.00  0.00     0.309 C 
ATOM     18  O   UNL d   1     -56.202 -98.944 -45.288  0.00  0.00    -0.258 OA
BRANCH  17  19
ATOM     19  O   UNL d   1     -56.700 -98.765 -43.959  0.00  0.00    -0.273 OA
BRANCH  19  20
ATOM     20  C   UNL d   1     -57.360 -98.803 -44.180  0.00  0.00     0.103 A 
ATOM     21  C   UNL d   1     -57.884 -98.878 -43.725  0.00  0.00     0.025 A 
ATOM     22  C   UNL d   1     -58.552 -98.917 -43.944  0.00  0.00     0.002 A 
ATOM     23  C   UNL d   1     -59.076 -98.991 -43.489  0.00  0.00     0.000 C 
ATOM     24  C   UNL d   1     -58.686 -98.880 -44.632  0.00  0.00     0.000 A 
ATOM     25  C   UNL d   1     -58.153 -98.804 -45.100  0.00  0.00     0.002 A 
ATOM     26  C   UNL d   1     -57.495 -98.766 -44.868  0.00  0.00     0.025 A 
ATOM     27  C   UNL d   1     -58.290 -98.766 -45.800  0.00  0.00     0.000 C 
ENDBRANCH  19  20
ENDBRANCH  17  19
ENDBRANCH  16  17
ENDBRANCH   1  16
TORSDOF 7
ENDMDL
