MODEL 1
REMARK VINA RESULT:      22.2      0.000      0.000
REMARK  2 active torsions:
REMARK  status: ('A' for Active; 'I' for Inactive)
REMARK    1  A    between atoms: S_2  and  C_1 
REMARK    2  A    between atoms: N_3  and  S_2 
ROOT
ATOM      1  C   UNL d   1      59.958  49.671  51.018  0.00  0.00     0.125 A 
ATOM      2  C   UNL d   1      60.065  49.699  51.865  0.00  0.00    -0.009 A 
ATOM      3  C   UNL d   1      60.343  49.631  50.387  0.00  0.00     0.031 A 
ATOM      4  C   UNL d   1      60.366  49.678  51.623  0.00  0.00    -0.009 A 
ATOM      5  C   UNL d   1      61.247  49.649  51.806  0.00  0.00    -0.007 A 
ATOM      6  C   UNL d   1      61.161  49.605  50.550  0.00  0.00     0.045 A 
ATOM      7  C   UNL d   1      60.754  49.677  52.019  0.00  0.00    -0.007 A 
ATOM      8  C   UNL d   1      61.621  49.611  51.194  0.00  0.00    -0.022 A 
ATOM      9  C   UNL d   1      61.273  49.626  51.211  0.00  0.00    -0.022 A 
ATOM     10  C   UNL d   1      61.373  49.677  52.665  0.00  0.00    -0.001 A 
ENDROOT
BRANCH   1  11
ATOM     11  S   UNL d   1      59.279  49.667  50.220  0.00  0.00     0.142 S 
ATOM     12  O   UNL d   1      59.764  49.668  49.541  0.00  0.00    -0.233 OA
BRANCH  11  13
ATOM     13  N   UNL d   1      58.482  49.665  50.148  0.00  0.00    -0.251 N 
ATOM     14  C   UNL d   1      58.144  49.671  49.406  0.00  0.00     0.108 A 
ATOM     15  C   UNL d   1      57.291  49.668  49.344  0.00  0.00     0.100 A 
ATOM     16  N   UNL d   1      56.842  49.660  50.006  0.00  0.00    -0.299 N 
ATOM     17  C   UNL d   1      57.216  49.654  50.750  0.00  0.00     0.100 A 
ATOM     18  C   UNL d   1      56.038  49.660  49.725  0.00  0.00     0.100 C 
ATOM     19  C   UNL d   1      58.030  49.657  50.815  0.00  0.00     0.108 A 
ENDBRANCH  11  13
ENDBRANCH   1  11
TORSDOF 2
ENDMDL
