MODEL 1
REMARK VINA RESULT:      46.1      0.000      0.000
REMARK  5 active torsions:
REMARK  status: ('A' for Active; 'I' for Inactive)
REMARK    1  A    between atoms: C_2  and  C_1 
REMARK    2  A    between atoms: C_4  and  C_1 
REMARK       I    between atoms: N_3  and  C_2 
REMARK    3  A    between atoms: C_5  and  N_3 
REMARK    4  A    between atoms: C_11  and  C_5 
REMARK    5  A    between atoms: C_12  and  C_5 
ROOT
ATOM      1  C   UNL d   1      46.041 -16.456  44.433  0.00  0.00     0.315 C 
ATOM      2  N   UNL d   1      46.079 -17.167  44.011  0.00  0.00    -0.367 NA
ATOM      3  O   UNL d   1      46.647 -16.251  44.954  0.00  0.00    -0.255 OA
ENDROOT
BRANCH   2   4
ATOM      4  C   UNL d   1      46.135 -18.087  43.469  0.00  0.00     0.135 C 
BRANCH   4   5
ATOM      5  C   UNL d   1      46.127 -18.079  42.725  0.00  0.00     0.030 A 
ATOM      6  C   UNL d   1      46.562 -17.541  42.320  0.00  0.00     0.003 A 
ATOM      7  C   UNL d   1      46.566 -17.516  41.492  0.00  0.00     0.000 A 
ATOM      8  C   UNL d   1      46.087 -18.089  41.071  0.00  0.00     0.000 A 
ATOM      9  C   UNL d   1      45.651 -18.627  41.477  0.00  0.00     0.000 A 
ATOM     10  C   UNL d   1      45.660 -18.636  42.335  0.00  0.00     0.003 A 
ENDBRANCH   4   5
BRANCH   4  11
ATOM     11  C   UNL d   1      46.181 -18.733  43.818  0.00  0.00     0.030 A 
ATOM     12  C   UNL d   1      46.521 -19.356  43.460  0.00  0.00     0.003 A 
ATOM     13  C   UNL d   1      46.581 -20.089  43.841  0.00  0.00     0.000 A 
ATOM     14  C   UNL d   1      46.270 -20.133  44.600  0.00  0.00     0.000 A 
ATOM     15  C   UNL d   1      45.929 -19.503  44.955  0.00  0.00     0.000 A 
ATOM     16  C   UNL d   1      45.872 -18.775  44.573  0.00  0.00     0.003 A 
ENDBRANCH   4  11
ENDBRANCH   2   4
BRANCH   1  17
ATOM     17  C   UNL d   1      45.395 -15.944  44.336  0.00  0.00     0.150 A 
ATOM     18  C   UNL d   1      44.760 -15.439  44.240  0.00  0.00     0.019 A 
ATOM     19  C   UNL d   1      44.000 -15.668  44.500  0.00  0.00     0.119 A 
ATOM     20  O   UNL d   1      43.887 -16.397  44.852  0.00  0.00    -0.304 OA
ATOM     21  C   UNL d   1      44.530 -16.910  44.950  0.00  0.00     0.119 A 
ATOM     22  C   UNL d   1      45.286 -16.685  44.692  0.00  0.00     0.019 A 
BRANCH  17  23
ATOM     23  C   UNL d   1      45.510 -15.203  43.979  0.00  0.00     0.024 A 
ATOM     24  S   UNL d   1      46.238 -14.824  43.839  0.00  0.00    -0.090 SA
ATOM     25  C   UNL d   1      46.098 -14.096  43.472  0.00  0.00     0.035 A 
ATOM     26  C   UNL d   1      45.285 -14.006  43.375  0.00  0.00     0.007 A 
ATOM     27  C   UNL d   1      44.918 -14.691  43.689  0.00  0.00     0.004 A 
ENDBRANCH  17  23
ENDBRANCH   1  17
TORSDOF 5
ENDMDL
MODEL 2
REMARK VINA RESULT:      48.0      0.494      2.005
REMARK  5 active torsions:
REMARK  status: ('A' for Active; 'I' for Inactive)
REMARK    1  A    between atoms: C_2  and  C_1 
REMARK    2  A    between atoms: C_4  and  C_1 
REMARK       I    between atoms: N_3  and  C_2 
REMARK    3  A    between atoms: C_5  and  N_3 
REMARK    4  A    between atoms: C_11  and  C_5 
REMARK    5  A    between atoms: C_12  and  C_5 
ROOT
ATOM      1  C   UNL d   1      46.091 -16.147  44.365  0.00  0.00     0.315 C 
ATOM      2  N   UNL d   1      46.129 -16.857  43.944  0.00  0.00    -0.367 NA
ATOM      3  O   UNL d   1      46.647 -15.984  44.953  0.00  0.00    -0.255 OA
ENDROOT
BRANCH   2   4
ATOM      4  C   UNL d   1      46.183 -17.778  43.402  0.00  0.00     0.135 C 
BRANCH   4   5
ATOM      5  C   UNL d   1      46.174 -18.425  43.770  0.00  0.00     0.030 A 
ATOM      6  C   UNL d   1      46.434 -18.466  44.527  0.00  0.00     0.003 A 
ATOM      7  C   UNL d   1      46.432 -19.176  44.953  0.00  0.00     0.000 A 
ATOM      8  C   UNL d   1      46.139 -19.878  44.559  0.00  0.00     0.000 A 
ATOM      9  C   UNL d   1      45.878 -19.838  43.801  0.00  0.00     0.000 A 
ATOM     10  C   UNL d   1      45.889 -19.092  43.376  0.00  0.00     0.003 A 
ENDBRANCH   4   5
BRANCH   4  11
ATOM     11  C   UNL d   1      46.230 -17.786  42.668  0.00  0.00     0.030 A 
ATOM     12  C   UNL d   1      46.531 -17.160  42.281  0.00  0.00     0.003 A 
ATOM     13  C   UNL d   1      46.590 -17.154  41.455  0.00  0.00     0.000 A 
ATOM     14  C   UNL d   1      46.323 -17.825  41.065  0.00  0.00     0.000 A 
ATOM     15  C   UNL d   1      46.022 -18.452  41.459  0.00  0.00     0.000 A 
ATOM     16  C   UNL d   1      45.964 -18.455  42.281  0.00  0.00     0.003 A 
ENDBRANCH   4  11
ENDBRANCH   2   4
BRANCH   1  17
ATOM     17  C   UNL d   1      45.496 -15.592  44.202  0.00  0.00     0.150 A 
ATOM     18  C   UNL d   1      44.910 -15.045  44.040  0.00  0.00     0.019 A 
ATOM     19  C   UNL d   1      44.135 -15.167  44.324  0.00  0.00     0.119 A 
ATOM     20  O   UNL d   1      43.956 -15.832  44.764  0.00  0.00    -0.304 OA
ATOM     21  C   UNL d   1      44.548 -16.387  44.929  0.00  0.00     0.119 A 
ATOM     22  C   UNL d   1      45.320 -16.269  44.648  0.00  0.00     0.019 A 
BRANCH  17  23
ATOM     23  C   UNL d   1      45.677 -14.916  43.755  0.00  0.00     0.024 A 
ATOM     24  S   UNL d   1      46.133 -14.264  44.000  0.00  0.00    -0.090 SA
ATOM     25  C   UNL d   1      46.174 -13.715  43.382  0.00  0.00     0.035 A 
ATOM     26  C   UNL d   1      45.749 -14.011  42.743  0.00  0.00     0.007 A 
ATOM     27  C   UNL d   1      45.439 -14.756  42.971  0.00  0.00     0.004 A 
ENDBRANCH  17  23
ENDBRANCH   1  17
TORSDOF 5
ENDMDL
