MODEL 1
REMARK VINA RESULT:     116.0      0.000      0.000
REMARK  3 active torsions:
REMARK  status: ('A' for Active; 'I' for Inactive)
REMARK    1  A    between atoms: S_2  and  C_1 
REMARK    2  A    between atoms: N_8  and  S_2 
REMARK    3  A    between atoms: C_12  and  N_9 
ROOT
ATOM      1  N   UNL d   1      61.214  45.883  50.756  0.00  0.00    -0.226 N 
ATOM      2  N   UNL d   1      61.832  44.359  50.757  0.00  0.00    -0.299 N 
ATOM      3  C   UNL d   1      61.629  45.606  50.110  0.00  0.00     0.111 A 
ATOM      4  C   UNL d   1      61.109  45.385  51.409  0.00  0.00     0.111 A 
ATOM      5  C   UNL d   1      61.937  44.857  50.102  0.00  0.00     0.100 A 
ATOM      6  C   UNL d   1      61.418  44.621  51.410  0.00  0.00     0.100 A 
ENDROOT
BRANCH   1   7
ATOM      7  S   UNL d   1      60.903  46.651  50.753  0.00  0.00     0.278 S 
ATOM      8  O   UNL d   1      60.678  46.543  51.539  0.00  0.00    -0.199 OA
ATOM      9  O   UNL d   1      61.136  46.747  49.961  0.00  0.00    -0.199 OA
BRANCH   7  10
ATOM     10  C   UNL d   1      60.591  47.415  50.761  0.00  0.00     0.178 A 
ATOM     11  C   UNL d   1      61.098  48.063  50.660  0.00  0.00     0.282 A 
ATOM     12  N   UNL d   1      60.785  48.822  50.669  0.00  0.00    -0.224 N 
ATOM     13  O   UNL d   1      61.894  47.946  50.554  0.00  0.00    -0.266 OA
ATOM     14  C   UNL d   1      61.296  49.465  50.568  0.00  0.00     0.107 C 
ATOM     15  C   UNL d   1      59.977  48.941  50.777  0.00  0.00     0.342 A 
ATOM     16  N   UNL d   1      59.478  48.301  50.877  0.00  0.00    -0.255 N 
ATOM     17  O   UNL d   1      59.660  49.705  50.786  0.00  0.00    -0.245 OA
ATOM     18  C   UNL d   1      59.782  47.534  50.869  0.00  0.00     0.102 A 
ATOM     19  C   UNL d   1      58.674  48.419  50.984  0.00  0.00     0.104 C 
ENDBRANCH   7  10
ENDBRANCH   1   7
BRANCH   2  20
ATOM     20  C   UNL d   1      62.147  43.588  50.752  0.00  0.00     0.092 A 
ATOM     21  C   UNL d   1      61.983  43.075  51.383  0.00  0.00     0.156 A 
ATOM     22  F   UNL d   1      61.516  43.320  52.006  0.00  0.00    -0.203 F 
ATOM     23  C   UNL d   1      62.297  42.312  51.375  0.00  0.00     0.031 A 
ATOM     24  C   UNL d   1      62.768  42.065  50.745  0.00  0.00     0.002 A 
ATOM     25  C   UNL d   1      62.932  42.577  50.115  0.00  0.00     0.002 A 
ATOM     26  C   UNL d   1      62.618  43.341  50.123  0.00  0.00     0.020 A 
ENDBRANCH   2  20
TORSDOF 3
ENDMDL
MODEL 2
REMARK VINA RESULT:     116.3      1.897      5.179
REMARK  3 active torsions:
REMARK  status: ('A' for Active; 'I' for Inactive)
REMARK    1  A    between atoms: S_2  and  C_1 
REMARK    2  A    between atoms: N_8  and  S_2 
REMARK    3  A    between atoms: C_12  and  N_9 
ROOT
ATOM      1  N   UNL d   1      61.374  45.822  50.577  0.00  0.00    -0.226 N 
ATOM      2  N   UNL d   1      60.869  47.374  50.782  0.00  0.00    -0.299 N 
ATOM      3  C   UNL d   1      60.890  46.018  51.204  0.00  0.00     0.111 A 
ATOM      4  C   UNL d   1      61.605  46.415  50.047  0.00  0.00     0.111 A 
ATOM      5  C   UNL d   1      60.637  46.780  51.313  0.00  0.00     0.100 A 
ATOM      6  C   UNL d   1      61.352  47.193  50.150  0.00  0.00     0.100 A 
ENDROOT
BRANCH   1   7
ATOM      7  S   UNL d   1      61.627  45.039  50.475  0.00  0.00     0.278 S 
ATOM      8  O   UNL d   1      61.982  45.266  49.766  0.00  0.00    -0.199 OA
ATOM      9  O   UNL d   1      61.264  44.824  51.191  0.00  0.00    -0.199 OA
BRANCH   7  10
ATOM     10  C   UNL d   1      61.884  44.263  50.364  0.00  0.00     0.178 A 
ATOM     11  C   UNL d   1      61.711  43.876  49.651  0.00  0.00     0.282 A 
ATOM     12  N   UNL d   1      61.968  43.104  49.542  0.00  0.00    -0.224 N 
ATOM     13  O   UNL d   1      61.294  44.258  49.069  0.00  0.00    -0.266 OA
ATOM     14  C   UNL d   1      61.793  42.723  48.828  0.00  0.00     0.107 C 
ATOM     15  C   UNL d   1      62.392  42.716  50.132  0.00  0.00     0.342 A 
ATOM     16  N   UNL d   1      62.562  43.099  50.834  0.00  0.00    -0.255 N 
ATOM     17  O   UNL d   1      62.652  41.938  50.023  0.00  0.00    -0.245 OA
ATOM     18  C   UNL d   1      62.308  43.875  50.954  0.00  0.00     0.102 A 
ATOM     19  C   UNL d   1      62.984  42.713  51.422  0.00  0.00     0.104 C 
ENDBRANCH   7  10
ENDBRANCH   1   7
BRANCH   2  20
ATOM     20  C   UNL d   1      60.611  48.158  50.891  0.00  0.00     0.092 A 
ATOM     21  C   UNL d   1      61.009  48.777  50.510  0.00  0.00     0.156 A 
ATOM     22  F   UNL d   1      61.651  48.623  50.030  0.00  0.00    -0.203 F 
ATOM     23  C   UNL d   1      60.750  49.553  50.620  0.00  0.00     0.031 A 
ATOM     24  C   UNL d   1      60.102  49.708  51.105  0.00  0.00     0.002 A 
ATOM     25  C   UNL d   1      59.703  49.089  51.486  0.00  0.00     0.002 A 
ATOM     26  C   UNL d   1      59.963  48.313  51.376  0.00  0.00     0.020 A 
ENDBRANCH   2  20
TORSDOF 3
ENDMDL
