MODEL 1
REMARK VINA RESULT:      -3.3      0.000      0.000
REMARK  4 active torsions:
REMARK  status: ('A' for Active; 'I' for Inactive)
REMARK    1  A    between atoms: C_2  and  C_1 
REMARK       I    between atoms: N_5  and  C_2 
REMARK    2  A    between atoms: C_10  and  N_5 
REMARK    3  A    between atoms: O_9  and  C_11 
REMARK    4  A    between atoms: C_12  and  O_9 
ROOT
ATOM      1  C   UNL d   1      33.228  20.234 -22.134  0.00  0.00     0.085 A 
ATOM      2  C   UNL d   1      33.203  18.989 -23.202  0.00  0.00     0.100 A 
ATOM      3  C   UNL d   1      33.203  19.453 -21.855  0.00  0.00     0.021 A 
ATOM      4  C   UNL d   1      33.241  20.387 -22.945  0.00  0.00     0.021 A 
ATOM      5  C   UNL d   1      33.190  18.834 -22.388  0.00  0.00     0.026 A 
ATOM      6  C   UNL d   1      33.228  19.753 -23.475  0.00  0.00     0.026 A 
ENDROOT
BRANCH   1   7
ATOM      7  N   UNL d   1      33.241  20.860 -21.599  0.00  0.00    -0.206 NA
ATOM      8  C   UNL d   1      32.530  21.212 -21.360  0.00  0.00     0.303 C 
ATOM      9  O   UNL d   1      31.817  20.934 -21.658  0.00  0.00    -0.263 OA
BRANCH   8  10
ATOM     10  C   UNL d   1      32.542  21.838 -20.824  0.00  0.00     0.176 A 
ATOM     11  C   UNL d   1      32.350  22.624 -20.994  0.00  0.00     0.110 A 
ATOM     12  N   UNL d   1      32.435  23.064 -20.304  0.00  0.00    -0.233 NA
ATOM     13  C   UNL d   1      32.117  22.911 -21.724  0.00  0.00     0.023 C 
ATOM     14  C   UNL d   1      32.682  22.544 -19.700  0.00  0.00     0.259 A 
ATOM     15  O   UNL d   1      32.745  21.790 -20.030  0.00  0.00    -0.296 OA
ENDBRANCH   8  10
ENDBRANCH   1   7
BRANCH   2  16
ATOM     16  O   UNL d   1      33.190  18.357 -23.736  0.00  0.00    -0.307 OA
BRANCH  16  17
ATOM     17  C   UNL d   1      32.483  18.037 -23.975  0.00  0.00     0.100 A 
ATOM     18  C   UNL d   1      32.089  18.364 -24.625  0.00  0.00     0.025 A 
ATOM     19  C   UNL d   1      31.373  18.037 -24.866  0.00  0.00     0.002 A 
ATOM     20  C   UNL d   1      31.042  17.386 -24.464  0.00  0.00     0.000 A 
ATOM     21  C   UNL d   1      31.454  17.064 -23.804  0.00  0.00     0.002 A 
ATOM     22  C   UNL d   1      32.167  17.405 -23.580  0.00  0.00     0.025 A 
ENDBRANCH  16  17
ENDBRANCH   2  16
TORSDOF 4
ENDMDL
MODEL 2
REMARK VINA RESULT:      -2.7      2.999      5.555
REMARK  4 active torsions:
REMARK  status: ('A' for Active; 'I' for Inactive)
REMARK    1  A    between atoms: C_2  and  C_1 
REMARK       I    between atoms: N_5  and  C_2 
REMARK    2  A    between atoms: C_10  and  N_5 
REMARK    3  A    between atoms: O_9  and  C_11 
REMARK    4  A    between atoms: C_12  and  O_9 
ROOT
ATOM      1  C   UNL d   1      31.105  16.565 -24.064  0.00  0.00     0.085 A 
ATOM      2  C   UNL d   1      32.498  17.392 -23.808  0.00  0.00     0.100 A 
ATOM      3  C   UNL d   1      31.346  17.143 -24.608  0.00  0.00     0.021 A 
ATOM      4  C   UNL d   1      31.562  16.405 -23.396  0.00  0.00     0.021 A 
ATOM      5  C   UNL d   1      32.040  17.555 -24.479  0.00  0.00     0.026 A 
ATOM      6  C   UNL d   1      32.262  16.827 -23.276  0.00  0.00     0.026 A 
ENDROOT
BRANCH   1   7
ATOM      7  N   UNL d   1      30.406  16.149 -24.192  0.00  0.00    -0.206 NA
ATOM      8  C   UNL d   1      29.677  16.539 -24.127  0.00  0.00     0.303 C 
ATOM      9  O   UNL d   1      29.658  17.338 -23.936  0.00  0.00    -0.263 OA
BRANCH   8  10
ATOM     10  C   UNL d   1      28.977  16.123 -24.255  0.00  0.00     0.176 A 
ATOM     11  C   UNL d   1      28.419  15.928 -23.678  0.00  0.00     0.110 A 
ATOM     12  N   UNL d   1      27.807  15.514 -24.042  0.00  0.00    -0.233 NA
ATOM     13  C   UNL d   1      28.468  16.115 -22.883  0.00  0.00     0.023 C 
ATOM     14  C   UNL d   1      27.990  15.453 -24.853  0.00  0.00     0.259 A 
ATOM     15  O   UNL d   1      28.714  15.832 -24.976  0.00  0.00    -0.296 OA
ENDBRANCH   8  10
ENDBRANCH   1   7
BRANCH   2  16
ATOM     16  O   UNL d   1      33.200  17.813 -23.684  0.00  0.00    -0.307 OA
BRANCH  16  17
ATOM     17  C   UNL d   1      33.192  18.509 -23.267  0.00  0.00     0.100 A 
ATOM     18  C   UNL d   1      33.241  18.489 -22.441  0.00  0.00     0.025 A 
ATOM     19  C   UNL d   1      33.233  19.197 -22.022  0.00  0.00     0.002 A 
ATOM     20  C   UNL d   1      33.176  19.929 -22.416  0.00  0.00     0.000 A 
ATOM     21  C   UNL d   1      33.127  19.935 -23.256  0.00  0.00     0.002 A 
ATOM     22  C   UNL d   1      33.137  19.217 -23.656  0.00  0.00     0.025 A 
ENDBRANCH  16  17
ENDBRANCH   2  16
TORSDOF 4
ENDMDL
MODEL 3
REMARK VINA RESULT:      -1.6      2.390      5.178
REMARK  4 active torsions:
REMARK  status: ('A' for Active; 'I' for Inactive)
REMARK    1  A    between atoms: C_2  and  C_1 
REMARK       I    between atoms: N_5  and  C_2 
REMARK    2  A    between atoms: C_10  and  N_5 
REMARK    3  A    between atoms: O_9  and  C_11 
REMARK    4  A    between atoms: C_12  and  O_9 
ROOT
ATOM      1  C   UNL d   1      31.821  17.766 -23.915  0.00  0.00     0.085 A 
ATOM      2  C   UNL d   1      32.765  19.012 -23.418  0.00  0.00     0.100 A 
ATOM      3  C   UNL d   1      32.067  18.340 -24.462  0.00  0.00     0.021 A 
ATOM      4  C   UNL d   1      32.049  17.820 -23.123  0.00  0.00     0.021 A 
ATOM      5  C   UNL d   1      32.537  18.960 -24.212  0.00  0.00     0.026 A 
ATOM      6  C   UNL d   1      32.524  18.451 -22.883  0.00  0.00     0.026 A 
ENDROOT
BRANCH   1   7
ATOM      7  N   UNL d   1      31.347  17.140 -24.163  0.00  0.00    -0.206 NA
ATOM      8  C   UNL d   1      30.535  17.259 -24.279  0.00  0.00     0.303 C 
ATOM      9  O   UNL d   1      30.208  18.001 -24.145  0.00  0.00    -0.263 OA
BRANCH   8  10
ATOM     10  C   UNL d   1      30.060  16.634 -24.528  0.00  0.00     0.176 A 
ATOM     11  C   UNL d   1      29.253  16.547 -24.371  0.00  0.00     0.110 A 
ATOM     12  N   UNL d   1      28.998  15.846 -24.720  0.00  0.00    -0.233 NA
ATOM     13  C   UNL d   1      28.791  17.068 -23.943  0.00  0.00     0.023 C 
ATOM     14  C   UNL d   1      29.654  15.496 -25.097  0.00  0.00     0.259 A 
ATOM     15  O   UNL d   1      30.306  15.989 -24.973  0.00  0.00    -0.296 OA
ENDBRANCH   8  10
ENDBRANCH   1   7
BRANCH   2  16
ATOM     16  O   UNL d   1      33.241  19.643 -23.173  0.00  0.00    -0.307 OA
BRANCH  16  17
ATOM     17  C   UNL d   1      33.034  20.086 -22.525  0.00  0.00     0.100 A 
ATOM     18  C   UNL d   1      32.669  20.820 -22.635  0.00  0.00     0.025 A 
ATOM     19  C   UNL d   1      32.460  21.267 -21.975  0.00  0.00     0.002 A 
ATOM     20  C   UNL d   1      32.611  20.989 -21.204  0.00  0.00     0.000 A 
ATOM     21  C   UNL d   1      32.983  20.241 -21.108  0.00  0.00     0.002 A 
ATOM     22  C   UNL d   1      33.183  19.810 -21.778  0.00  0.00     0.025 A 
ENDBRANCH  16  17
ENDBRANCH   2  16
TORSDOF 4
ENDMDL
MODEL 4
REMARK VINA RESULT:      -1.0      1.496      4.820
REMARK  4 active torsions:
REMARK  status: ('A' for Active; 'I' for Inactive)
REMARK    1  A    between atoms: C_2  and  C_1 
REMARK       I    between atoms: N_5  and  C_2 
REMARK    2  A    between atoms: C_10  and  N_5 
REMARK    3  A    between atoms: O_9  and  C_11 
REMARK    4  A    between atoms: C_12  and  O_9 
ROOT
ATOM      1  C   UNL d   1      33.231  20.009 -22.939  0.00  0.00     0.085 A 
ATOM      2  C   UNL d   1      33.237  21.597 -22.525  0.00  0.00     0.100 A 
ATOM      3  C   UNL d   1      33.229  20.589 -23.532  0.00  0.00     0.021 A 
ATOM      4  C   UNL d   1      33.235  20.228 -22.142  0.00  0.00     0.021 A 
ATOM      5  C   UNL d   1      33.232  21.379 -23.325  0.00  0.00     0.026 A 
ATOM      6  C   UNL d   1      33.239  21.030 -21.945  0.00  0.00     0.026 A 
ENDROOT
BRANCH   1   7
ATOM      7  N   UNL d   1      33.227  19.212 -23.145  0.00  0.00    -0.206 NA
ATOM      8  C   UNL d   1      32.507  18.809 -23.222  0.00  0.00     0.303 C 
ATOM      9  O   UNL d   1      31.801  19.209 -23.093  0.00  0.00    -0.263 OA
BRANCH   8  10
ATOM     10  C   UNL d   1      32.503  18.012 -23.428  0.00  0.00     0.176 A 
ATOM     11  C   UNL d   1      32.170  17.690 -24.113  0.00  0.00     0.110 A 
ATOM     12  N   UNL d   1      32.289  16.876 -24.099  0.00  0.00    -0.233 NA
ATOM     13  C   UNL d   1      31.788  18.111 -24.701  0.00  0.00     0.023 C 
ATOM     14  C   UNL d   1      32.700  16.692 -23.398  0.00  0.00     0.259 A 
ATOM     15  O   UNL d   1      32.828  17.399 -22.990  0.00  0.00    -0.296 OA
ENDBRANCH   8  10
ENDBRANCH   1   7
BRANCH   2  16
ATOM     16  O   UNL d   1      33.240  22.399 -22.324  0.00  0.00    -0.307 OA
BRANCH  16  17
ATOM     17  C   UNL d   1      32.740  22.679 -21.749  0.00  0.00     0.100 A 
ATOM     18  C   UNL d   1      32.903  22.515 -20.954  0.00  0.00     0.025 A 
ATOM     19  C   UNL d   1      32.393  22.801 -20.374  0.00  0.00     0.002 A 
ATOM     20  C   UNL d   1      31.721  23.250 -20.576  0.00  0.00     0.000 A 
ATOM     21  C   UNL d   1      31.568  23.409 -21.388  0.00  0.00     0.002 A 
ATOM     22  C   UNL d   1      32.089  23.115 -21.952  0.00  0.00     0.025 A 
ENDBRANCH  16  17
ENDBRANCH   2  16
TORSDOF 4
ENDMDL
