MODEL 1
REMARK VINA RESULT:      -3.2      0.000      0.000
REMARK  3 active torsions:
REMARK  status: ('A' for Active; 'I' for Inactive)
REMARK    1  A    between atoms: N_5  and  C_1 
REMARK       I    between atoms: C_6  and  N_5 
REMARK    2  A    between atoms: C_8  and  C_6 
REMARK    3  A    between atoms: O_16  and  C_12 
ROOT
ATOM      1  C   UNL d   1     -41.137-122.683 -52.102  0.00  0.00     0.124 A 
ATOM      2  C   UNL d   1     -41.135-122.148 -51.491  0.00  0.00     0.093 A 
ATOM      3  S   UNL d   1     -41.134-123.447 -51.805  0.00  0.00    -0.067 SA
ATOM      4  C   UNL d   1     -41.131-122.556 -50.780  0.00  0.00     0.018 A 
ATOM      5  C   UNL d   1     -41.131-123.393 -50.983  0.00  0.00     0.032 A 
ATOM      6  C   UNL d   1     -41.137-121.278 -51.560  0.00  0.00     0.103 C 
ATOM      7  N   UNL d   1     -41.139-120.450 -51.637  0.00  0.00    -0.191 NA
ATOM      8  C   UNL d   1     -41.128-122.518 -49.960  0.00  0.00     0.001 A 
ATOM      9  C   UNL d   1     -41.127-123.817 -50.274  0.00  0.00     0.006 A 
ATOM     10  C   UNL d   1     -41.125-123.275 -49.654  0.00  0.00     0.001 A 
ENDROOT
BRANCH   1  11
ATOM     11  N   UNL d   1     -41.141-122.481 -52.939  0.00  0.00    -0.201 NA
ATOM     12  C   UNL d   1     -41.681-122.846 -53.430  0.00  0.00     0.281 C 
ATOM     13  O   UNL d   1     -42.241-123.416 -53.160  0.00  0.00    -0.265 OA
BRANCH  12  14
ATOM     14  C   UNL d   1     -41.685-122.649 -54.242  0.00  0.00     0.080 A 
ATOM     15  C   UNL d   1     -42.277-122.104 -54.555  0.00  0.00     0.099 A 
ATOM     16  C   UNL d   1     -42.281-121.911 -55.352  0.00  0.00     0.024 A 
ATOM     17  C   UNL d   1     -41.693-122.262 -55.845  0.00  0.00     0.002 A 
ATOM     18  C   UNL d   1     -41.153-122.749 -55.603  0.00  0.00     0.000 A 
ATOM     19  C   UNL d   1     -41.123-122.971 -54.771  0.00  0.00     0.007 A 
BRANCH  15  20
ATOM     20  O   UNL d   1     -42.859-121.757 -54.063  0.00  0.00    -0.328 OA
ATOM     21  C   UNL d   1     -43.467-121.287 -54.376  0.00  0.00     0.181 C 
ENDBRANCH  15  20
ENDBRANCH  12  14
ENDBRANCH   1  11
TORSDOF 3
ENDMDL
MODEL 2
REMARK VINA RESULT:      -3.2      2.085      3.011
REMARK  3 active torsions:
REMARK  status: ('A' for Active; 'I' for Inactive)
REMARK    1  A    between atoms: N_5  and  C_1 
REMARK       I    between atoms: C_6  and  N_5 
REMARK    2  A    between atoms: C_8  and  C_6 
REMARK    3  A    between atoms: O_16  and  C_12 
ROOT
ATOM      1  C   UNL d   1     -42.010-123.560 -49.619  0.00  0.00     0.124 A 
ATOM      2  C   UNL d   1     -42.722-123.594 -49.231  0.00  0.00     0.093 A 
ATOM      3  S   UNL d   1     -41.399-123.474 -49.079  0.00  0.00    -0.067 SA
ATOM      4  C   UNL d   1     -42.588-123.531 -48.424  0.00  0.00     0.018 A 
ATOM      5  C   UNL d   1     -41.736-123.453 -48.327  0.00  0.00     0.032 A 
ATOM      6  C   UNL d   1     -43.510-123.683 -49.593  0.00  0.00     0.103 C 
ATOM      7  N   UNL d   1     -44.257-123.769 -49.950  0.00  0.00    -0.191 NA
ATOM      8  C   UNL d   1     -42.908-123.509 -47.669  0.00  0.00     0.001 A 
ATOM      9  C   UNL d   1     -41.585-123.389 -47.518  0.00  0.00     0.006 A 
ATOM     10  C   UNL d   1     -42.308-123.423 -47.122  0.00  0.00     0.001 A 
ENDROOT
BRANCH   1  11
ATOM     11  N   UNL d   1     -41.908-123.606 -50.473  0.00  0.00    -0.201 NA
ATOM     12  C   UNL d   1     -41.477-123.025 -50.851  0.00  0.00     0.281 C 
ATOM     13  O   UNL d   1     -41.123-122.375 -50.447  0.00  0.00    -0.265 OA
BRANCH  12  14
ATOM     14  C   UNL d   1     -41.378-123.071 -51.680  0.00  0.00     0.080 A 
ATOM     15  C   UNL d   1     -41.397-122.353 -52.160  0.00  0.00     0.099 A 
ATOM     16  C   UNL d   1     -41.300-122.397 -52.973  0.00  0.00     0.024 A 
ATOM     17  C   UNL d   1     -41.183-123.160 -53.315  0.00  0.00     0.002 A 
ATOM     18  C   UNL d   1     -41.161-123.817 -52.920  0.00  0.00     0.000 A 
ATOM     19  C   UNL d   1     -41.259-123.803 -52.064  0.00  0.00     0.007 A 
BRANCH  15  20
ATOM     20  O   UNL d   1     -41.514-121.598 -51.817  0.00  0.00    -0.328 OA
ATOM     21  C   UNL d   1     -41.230-120.909 -52.182  0.00  0.00     0.181 C 
ENDBRANCH  15  20
ENDBRANCH  12  14
ENDBRANCH   1  11
TORSDOF 3
ENDMDL
