MODEL 1
REMARK VINA RESULT:       1.9      0.000      0.000
REMARK  11 active torsions:
REMARK  status: ('A' for Active; 'I' for Inactive)
REMARK    1  A    between atoms: N_5  and  S_1 
REMARK    2  A    between atoms: C_8  and  S_1 
REMARK    3  A    between atoms: C_2  and  N_10 
REMARK    4  A    between atoms: C_9  and  N_5 
REMARK    5  A    between atoms: C_18  and  N_5 
REMARK    6  A    between atoms: C_13  and  C_9 
REMARK    7  A    between atoms: N_10  and  O_14 
REMARK    8  A    between atoms: C_17  and  C_13 
REMARK    9  A    between atoms: O_14  and  C_17 
REMARK   10  A    between atoms: C_27  and  C_18 
REMARK   11  A    between atoms: C_29  and  C_27 
ROOT
ATOM      1  C   UNL d   1     -41.199-122.746 -51.753  0.00  0.00     0.240 C 
ATOM      2  O   UNL d   1     -41.377-123.484 -52.075  0.00  0.00    -0.283 OA
ENDROOT
BRANCH   1   3
ATOM      3  C   UNL d   1     -41.154-122.492 -52.540  0.00  0.00     0.136 C 
BRANCH   3   4
ATOM      4  N   UNL d   1     -41.594-121.831 -52.774  0.00  0.00    -0.226 N 
BRANCH   4   5
ATOM      5  S   UNL d   1     -41.925-121.800 -53.534  0.00  0.00     0.271 S 
ATOM      6  O   UNL d   1     -42.592-121.696 -53.053  0.00  0.00    -0.200 OA
ATOM      7  O   UNL d   1     -41.411-121.886 -54.171  0.00  0.00    -0.200 OA
BRANCH   5   8
ATOM      8  C   UNL d   1     -42.010-121.805 -54.349  0.00  0.00     0.104 A 
ATOM      9  C   UNL d   1     -41.345-121.869 -54.831  0.00  0.00     0.013 A 
ATOM     10  C   UNL d   1     -41.433-121.874 -55.654  0.00  0.00     0.001 A 
ATOM     11  C   UNL d   1     -42.187-121.814 -55.990  0.00  0.00     0.000 A 
ATOM     12  C   UNL d   1     -42.824-121.752 -55.456  0.00  0.00     0.001 A 
ATOM     13  C   UNL d   1     -42.300-121.817 -56.808  0.00  0.00     0.000 C 
ATOM     14  C   UNL d   1     -42.778-121.744 -54.639  0.00  0.00     0.013 A 
ENDBRANCH   5   8
ENDBRANCH   4   5
BRANCH   4  15
ATOM     15  C   UNL d   1     -41.793-121.138 -52.386  0.00  0.00     0.095 C 
BRANCH  15  16
ATOM     16  C   UNL d   1     -41.254-120.793 -51.861  0.00  0.00     0.065 C 
BRANCH  16  17
ATOM     17  C   UNL d   1     -41.123-119.975 -51.881  0.00  0.00     0.236 C 
ATOM     18  O   UNL d   1     -41.282-119.517 -51.222  0.00  0.00    -0.283 OA
ENDBRANCH  16  17
ENDBRANCH  15  16
ENDBRANCH   4  15
ENDBRANCH   3   4
ENDBRANCH   1   3
BRANCH   1  19
ATOM     19  C   UNL d   1     -41.160-122.648 -50.942  0.00  0.00     0.193 C 
BRANCH  19  20
ATOM     20  O   UNL d   1     -41.726-123.005 -50.459  0.00  0.00    -0.206 OA
BRANCH  20  21
ATOM     21  N   UNL d   1     -41.499-123.357 -49.742  0.00  0.00    -0.126 NA
BRANCH  21  22
ATOM     22  C   UNL d   1     -42.031-123.395 -49.115  0.00  0.00     0.108 A 
ATOM     23  C   UNL d   1     -42.843-123.542 -49.174  0.00  0.00     0.020 A 
ATOM     24  C   UNL d   1     -43.153-123.530 -48.408  0.00  0.00     0.002 A 
ATOM     25  C   UNL d   1     -43.327-123.682 -49.815  0.00  0.00     0.002 A 
ATOM     26  C   UNL d   1     -43.962-123.662 -48.297  0.00  0.00     0.000 A 
ATOM     27  C   UNL d   1     -42.550-123.379 -47.877  0.00  0.00     0.002 A 
ATOM     28  C   UNL d   1     -44.448-123.802 -48.941  0.00  0.00     0.000 A 
ATOM     29  C   UNL d   1     -44.130-123.812 -49.699  0.00  0.00     0.000 A 
ATOM     30  C   UNL d   1     -41.853-123.295 -48.309  0.00  0.00     0.020 A 
ATOM     31  C   UNL d   1     -42.534-123.306 -47.061  0.00  0.00     0.000 A 
ATOM     32  C   UNL d   1     -41.142-123.138 -47.928  0.00  0.00     0.002 A 
ATOM     33  C   UNL d   1     -41.123-123.064 -47.109  0.00  0.00     0.000 A 
ATOM     34  C   UNL d   1     -41.827-123.150 -46.676  0.00  0.00     0.000 A 
ENDBRANCH  21  22
ENDBRANCH  20  21
ENDBRANCH  19  20
ENDBRANCH   1  19
TORSDOF 11
ENDMDL
