MODEL 1
REMARK VINA RESULT:      76.5      0.000      0.000
REMARK  5 active torsions:
REMARK  status: ('A' for Active; 'I' for Inactive)
REMARK    1  A    between atoms: C_14  and  C_4 
REMARK    2  A    between atoms: S_11  and  C_5 
REMARK    3  A    between atoms: C_10  and  C_12 
REMARK    4  A    between atoms: C_15  and  S_11 
REMARK    5  A    between atoms: C_12  and  C_15 
ROOT
ATOM      1  N   UNL d   1     -55.164-101.189 -42.833  0.00  0.00    -0.206 N 
ATOM      2  C   UNL d   1     -55.208-100.871 -43.597  0.00  0.00     0.166 A 
ATOM      3  N   UNL d   1     -55.497 -99.927 -42.294  0.00  0.00    -0.163 NA
ATOM      4  C   UNL d   1     -55.394-100.088 -43.711  0.00  0.00     0.055 A 
ATOM      5  C   UNL d   1     -54.977-101.972 -42.742  0.00  0.00     0.116 A 
ATOM      6  C   UNL d   1     -55.540 -99.614 -43.046  0.00  0.00     0.104 A 
ATOM      7  N   UNL d   1     -55.062-101.345 -44.252  0.00  0.00    -0.227 NA
ATOM      8  C   UNL d   1     -54.828-102.460 -43.384  0.00  0.00     0.045 A 
ATOM      9  C   UNL d   1     -54.872-102.144 -44.145  0.00  0.00     0.085 A 
ATOM     10  C   UNL d   1     -55.726 -98.834 -43.162  0.00  0.00     0.023 C 
ATOM     11  C   UNL d   1     -54.720-102.638 -44.827  0.00  0.00     0.021 C 
ENDROOT
BRANCH   5  12
ATOM     12  S   UNL d   1     -54.932-102.300 -41.953  0.00  0.00    -0.064 SA
BRANCH  12  13
ATOM     13  C   UNL d   1     -54.817-102.364 -41.115  0.00  0.00     0.079 C 
BRANCH  13  14
ATOM     14  C   UNL d   1     -55.477-102.329 -40.593  0.00  0.00     0.208 C 
ATOM     15  O   UNL d   1     -56.263-102.347 -40.901  0.00  0.00    -0.285 OA
BRANCH  14  16
ATOM     16  C   UNL d   1     -55.356-102.276 -39.755  0.00  0.00     0.069 A 
ATOM     17  S   UNL d   1     -54.799-102.742 -39.309  0.00  0.00    -0.083 SA
ATOM     18  C   UNL d   1     -54.866-102.506 -38.498  0.00  0.00     0.035 A 
ATOM     19  C   UNL d   1     -55.453-101.904 -38.440  0.00  0.00     0.008 A 
ATOM     20  C   UNL d   1     -55.756-101.764 -39.226  0.00  0.00     0.010 A 
ENDBRANCH  14  16
ENDBRANCH  13  14
ENDBRANCH  12  13
ENDBRANCH   5  12
BRANCH   4  21
ATOM     21  C   UNL d   1     -55.437 -99.776 -44.464  0.00  0.00     0.004 A 
ATOM     22  C   UNL d   1     -56.155 -99.667 -44.818  0.00  0.00     0.000 A 
ATOM     23  C   UNL d   1     -56.210 -99.360 -45.559  0.00  0.00     0.000 A 
ATOM     24  C   UNL d   1     -55.522 -99.150 -45.970  0.00  0.00     0.000 A 
ATOM     25  C   UNL d   1     -54.803 -99.260 -45.612  0.00  0.00     0.000 A 
ATOM     26  C   UNL d   1     -54.760 -99.573 -44.858  0.00  0.00     0.000 A 
ENDBRANCH   4  21
TORSDOF 5
ENDMDL
