MODEL 1
REMARK VINA RESULT:      13.5      0.000      0.000
REMARK  1 active torsions:
REMARK  status: ('A' for Active; 'I' for Inactive)
REMARK    1  A    between atoms: C_6  and  C_1 
ROOT
ATOM      1  C   UNL d   1      58.445  49.689  50.638  0.00  0.00     0.163 A 
ATOM      2  N   UNL d   1      58.686  49.704  51.426  0.00  0.00    -0.225 NA
ATOM      3  N   UNL d   1      59.114  49.673  50.140  0.00  0.00    -0.225 NA
ATOM      4  C   UNL d   1      59.519  49.699  51.443  0.00  0.00     0.101 A 
ATOM      5  C   UNL d   1      59.787  49.679  50.638  0.00  0.00     0.101 A 
ATOM      6  C   UNL d   1      60.067  49.708  52.036  0.00  0.00     0.021 A 
ATOM      7  C   UNL d   1      60.584  49.670  50.481  0.00  0.00     0.021 A 
ATOM      8  C   UNL d   1      60.873  49.698  51.856  0.00  0.00     0.002 A 
ATOM      9  C   UNL d   1      61.122  49.680  51.107  0.00  0.00     0.002 A 
ENDROOT
BRANCH   1  10
ATOM     10  C   UNL d   1      57.654  49.689  50.400  0.00  0.00     0.039 A 
ATOM     11  C   UNL d   1      57.028  49.673  50.937  0.00  0.00     0.024 A 
ATOM     12  C   UNL d   1      56.250  49.674  50.677  0.00  0.00     0.099 A 
ATOM     13  N   UNL d   1      56.035  49.691  49.891  0.00  0.00    -0.242 NA
ATOM     14  C   UNL d   1      56.670  49.708  49.326  0.00  0.00     0.099 A 
ATOM     15  C   UNL d   1      57.475  49.707  49.594  0.00  0.00     0.024 A 
ENDBRANCH   1  10
TORSDOF 1
ENDMDL
