MODEL 1
REMARK VINA RESULT:      -5.9      0.000      0.000
REMARK  1 active torsions:
REMARK  status: ('A' for Active; 'I' for Inactive)
REMARK    1  A    between atoms: C_8  and  C_3 
ROOT
ATOM      1  N   UNL d   1      57.194  -0.595  30.900  0.00  0.00    -0.145 NA
ATOM      2  N   UNL d   1      57.760  -0.436  30.308  0.00  0.00    -0.106 NA
ATOM      3  C   UNL d   1      57.150  -0.113  31.562  0.00  0.00     0.103 A 
ATOM      4  C   UNL d   1      58.274   0.202  30.390  0.00  0.00     0.297 A 
ATOM      5  C   UNL d   1      57.672   0.530  31.639  0.00  0.00     0.026 A 
ATOM      6  C   UNL d   1      58.223   0.682  31.061  0.00  0.00     0.066 A 
ATOM      7  O   UNL d   1      58.828   0.355  29.809  0.00  0.00    -0.264 OA
ENDROOT
BRANCH   3   8
ATOM      8  C   UNL d   1      56.601  -0.256  32.149  0.00  0.00     0.019 A 
ATOM      9  C   UNL d   1      56.430  -1.044  32.353  0.00  0.00     0.002 A 
ATOM     10  C   UNL d   1      55.874  -1.198  32.948  0.00  0.00     0.000 A 
ATOM     11  C   UNL d   1      55.495  -0.570  33.332  0.00  0.00     0.000 A 
ATOM     12  C   UNL d   1      55.667   0.209  33.127  0.00  0.00     0.000 A 
ATOM     13  C   UNL d   1      56.221   0.358  32.534  0.00  0.00     0.002 A 
ENDBRANCH   3   8
TORSDOF 1
ENDMDL
MODEL 2
REMARK VINA RESULT:      -5.8      1.321      1.857
REMARK  1 active torsions:
REMARK  status: ('A' for Active; 'I' for Inactive)
REMARK    1  A    between atoms: C_8  and  C_3 
ROOT
ATOM      1  N   UNL d   1      56.260  -1.215  32.578  0.00  0.00    -0.145 NA
ATOM      2  N   UNL d   1      56.635  -1.564  31.919  0.00  0.00    -0.106 NA
ATOM      3  C   UNL d   1      56.277  -0.401  32.672  0.00  0.00     0.103 A 
ATOM      4  C   UNL d   1      57.021  -1.091  31.365  0.00  0.00     0.297 A 
ATOM      5  C   UNL d   1      56.669   0.072  32.110  0.00  0.00     0.026 A 
ATOM      6  C   UNL d   1      57.032  -0.271  31.469  0.00  0.00     0.066 A 
ATOM      7  O   UNL d   1      57.386  -1.435  30.721  0.00  0.00    -0.264 OA
ENDROOT
BRANCH   3   8
ATOM      8  C   UNL d   1      55.916  -0.046  33.312  0.00  0.00     0.019 A 
ATOM      9  C   UNL d   1      56.391   0.319  33.889  0.00  0.00     0.002 A 
ATOM     10  C   UNL d   1      56.031   0.682  34.541  0.00  0.00     0.000 A 
ATOM     11  C   UNL d   1      55.206   0.679  34.614  0.00  0.00     0.000 A 
ATOM     12  C   UNL d   1      54.739   0.317  34.040  0.00  0.00     0.000 A 
ATOM     13  C   UNL d   1      55.101  -0.044  33.392  0.00  0.00     0.002 A 
ENDBRANCH   3   8
TORSDOF 1
ENDMDL
MODEL 3
REMARK VINA RESULT:      -5.3      2.435      3.425
REMARK  1 active torsions:
REMARK  status: ('A' for Active; 'I' for Inactive)
REMARK    1  A    between atoms: C_8  and  C_3 
ROOT
ATOM      1  N   UNL d   1      56.681   0.414  33.890  0.00  0.00    -0.145 NA
ATOM      2  N   UNL d   1      56.282   0.569  34.607  0.00  0.00    -0.106 NA
ATOM      3  C   UNL d   1      56.251   0.222  33.218  0.00  0.00     0.103 A 
ATOM      4  C   UNL d   1      55.460   0.529  34.638  0.00  0.00     0.297 A 
ATOM      5  C   UNL d   1      55.421   0.183  33.257  0.00  0.00     0.026 A 
ATOM      6  C   UNL d   1      55.036   0.335  33.956  0.00  0.00     0.066 A 
ATOM      7  O   UNL d   1      55.073   0.682  35.341  0.00  0.00    -0.264 OA
ENDROOT
BRANCH   3   8
ATOM      8  C   UNL d   1      56.627   0.067  32.511  0.00  0.00     0.019 A 
ATOM      9  C   UNL d   1      56.627  -0.711  32.219  0.00  0.00     0.002 A 
ATOM     10  C   UNL d   1      57.007  -0.877  31.501  0.00  0.00     0.000 A 
ATOM     11  C   UNL d   1      57.381  -0.269  31.082  0.00  0.00     0.000 A 
ATOM     12  C   UNL d   1      57.379   0.501  31.374  0.00  0.00     0.000 A 
ATOM     13  C   UNL d   1      57.000   0.662  32.089  0.00  0.00     0.002 A 
ENDBRANCH   3   8
TORSDOF 1
ENDMDL
MODEL 4
REMARK VINA RESULT:      -4.8      1.904      3.235
REMARK  1 active torsions:
REMARK  status: ('A' for Active; 'I' for Inactive)
REMARK    1  A    between atoms: C_8  and  C_3 
ROOT
ATOM      1  N   UNL d   1      56.296   0.651  32.334  0.00  0.00    -0.145 NA
ATOM      2  N   UNL d   1      55.762   0.639  32.974  0.00  0.00    -0.106 NA
ATOM      3  C   UNL d   1      56.609  -0.052  32.051  0.00  0.00     0.103 A 
ATOM      4  C   UNL d   1      55.549  -0.078  33.320  0.00  0.00     0.297 A 
ATOM      5  C   UNL d   1      56.390  -0.773  32.405  0.00  0.00     0.026 A 
ATOM      6  C   UNL d   1      55.869  -0.782  33.028  0.00  0.00     0.066 A 
ATOM      7  O   UNL d   1      55.025  -0.087  33.947  0.00  0.00    -0.264 OA
ENDROOT
BRANCH   3   8
ATOM      8  C   UNL d   1      57.134  -0.055  31.426  0.00  0.00     0.019 A 
ATOM      9  C   UNL d   1      57.395   0.672  31.119  0.00  0.00     0.002 A 
ATOM     10  C   UNL d   1      57.927   0.678  30.483  0.00  0.00     0.000 A 
ATOM     11  C   UNL d   1      58.194  -0.037  30.161  0.00  0.00     0.000 A 
ATOM     12  C   UNL d   1      57.933  -0.755  30.468  0.00  0.00     0.000 A 
ATOM     13  C   UNL d   1      57.403  -0.757  31.100  0.00  0.00     0.002 A 
ENDBRANCH   3   8
TORSDOF 1
ENDMDL
MODEL 5
REMARK VINA RESULT:      -4.3      1.539      3.139
REMARK  1 active torsions:
REMARK  status: ('A' for Active; 'I' for Inactive)
REMARK    1  A    between atoms: C_8  and  C_3 
ROOT
ATOM      1  N   UNL d   1      56.985  -1.109  31.284  0.00  0.00    -0.145 NA
ATOM      2  N   UNL d   1      56.540  -1.269  31.971  0.00  0.00    -0.106 NA
ATOM      3  C   UNL d   1      57.269  -0.352  31.149  0.00  0.00     0.103 A 
ATOM      4  C   UNL d   1      56.386  -0.668  32.512  0.00  0.00     0.297 A 
ATOM      5  C   UNL d   1      57.110   0.252  31.700  0.00  0.00     0.026 A 
ATOM      6  C   UNL d   1      56.676   0.093  32.368  0.00  0.00     0.066 A 
ATOM      7  O   UNL d   1      55.949  -0.828  33.184  0.00  0.00    -0.264 OA
ENDROOT
BRANCH   3   8
ATOM      8  C   UNL d   1      57.706  -0.180  30.482  0.00  0.00     0.019 A 
ATOM      9  C   UNL d   1      58.282  -0.725  30.230  0.00  0.00     0.002 A 
ATOM     10  C   UNL d   1      58.730  -0.558  29.553  0.00  0.00     0.000 A 
ATOM     11  C   UNL d   1      58.602   0.145  29.135  0.00  0.00     0.000 A 
ATOM     12  C   UNL d   1      58.031   0.682  29.388  0.00  0.00     0.000 A 
ATOM     13  C   UNL d   1      57.587   0.513  30.062  0.00  0.00     0.002 A 
ENDBRANCH   3   8
TORSDOF 1
ENDMDL
MODEL 6
REMARK VINA RESULT:      -3.3      1.572      2.200
REMARK  1 active torsions:
REMARK  status: ('A' for Active; 'I' for Inactive)
REMARK    1  A    between atoms: C_8  and  C_3 
ROOT
ATOM      1  N   UNL d   1      56.896   0.256  33.299  0.00  0.00    -0.145 NA
ATOM      2  N   UNL d   1      57.437   0.211  32.665  0.00  0.00    -0.106 NA
ATOM      3  C   UNL d   1      56.118   0.474  33.155  0.00  0.00     0.103 A 
ATOM      4  C   UNL d   1      57.190   0.386  31.899  0.00  0.00     0.297 A 
ATOM      5  C   UNL d   1      55.875   0.650  32.379  0.00  0.00     0.026 A 
ATOM      6  C   UNL d   1      56.405   0.605  31.765  0.00  0.00     0.066 A 
ATOM      7  O   UNL d   1      57.723   0.342  31.281  0.00  0.00    -0.264 OA
ENDROOT
BRANCH   3   8
ATOM      8  C   UNL d   1      55.578   0.522  33.765  0.00  0.00     0.019 A 
ATOM      9  C   UNL d   1      55.850   0.456  34.548  0.00  0.00     0.002 A 
ATOM     10  C   UNL d   1      55.308   0.504  35.173  0.00  0.00     0.000 A 
ATOM     11  C   UNL d   1      54.503   0.615  35.014  0.00  0.00     0.000 A 
ATOM     12  C   UNL d   1      54.237   0.680  34.237  0.00  0.00     0.000 A 
ATOM     13  C   UNL d   1      54.780   0.632  33.618  0.00  0.00     0.002 A 
ENDBRANCH   3   8
TORSDOF 1
ENDMDL
MODEL 7
REMARK VINA RESULT:      -2.9      2.881      3.944
REMARK  1 active torsions:
REMARK  status: ('A' for Active; 'I' for Inactive)
REMARK    1  A    between atoms: C_8  and  C_3 
ROOT
ATOM      1  N   UNL d   1      58.431  -2.305  29.329  0.00  0.00    -0.145 NA
ATOM      2  N   UNL d   1      58.721  -3.078  29.208  0.00  0.00    -0.106 NA
ATOM      3  C   UNL d   1      58.927  -1.662  29.217  0.00  0.00     0.103 A 
ATOM      4  C   UNL d   1      59.503  -3.194  28.976  0.00  0.00     0.297 A 
ATOM      5  C   UNL d   1      59.716  -1.785  28.982  0.00  0.00     0.026 A 
ATOM      6  C   UNL d   1      59.995  -2.539  28.865  0.00  0.00     0.066 A 
ATOM      7  O   UNL d   1      59.783  -3.952  28.859  0.00  0.00    -0.264 OA
ENDROOT
BRANCH   3   8
ATOM      8  C   UNL d   1      58.657  -0.900  29.331  0.00  0.00     0.019 A 
ATOM      9  C   UNL d   1      58.376  -0.684  30.084  0.00  0.00     0.002 A 
ATOM     10  C   UNL d   1      58.100   0.088  30.209  0.00  0.00     0.000 A 
ATOM     11  C   UNL d   1      58.107   0.635  29.587  0.00  0.00     0.000 A 
ATOM     12  C   UNL d   1      58.386   0.417  28.843  0.00  0.00     0.000 A 
ATOM     13  C   UNL d   1      58.660  -0.352  28.723  0.00  0.00     0.002 A 
ENDBRANCH   3   8
TORSDOF 1
ENDMDL
