MODEL 1
REMARK VINA RESULT:      -2.8      0.000      0.000
REMARK  7 active torsions:
REMARK  status: ('A' for Active; 'I' for Inactive)
REMARK    1  A    between atoms: C_6  and  C_1 
REMARK    2  A    between atoms: C_14  and  C_5 
REMARK    3  A    between atoms: O_19  and  C_7 
REMARK    4  A    between atoms: O_20  and  C_8 
REMARK    5  A    between atoms: O_21  and  C_9 
REMARK    6  A    between atoms: O_17  and  C_14 
REMARK    7  A    between atoms: C_18  and  O_17 
ROOT
ATOM      1  C   UNL d   1      32.989  20.439 -22.727  0.00  0.00     0.205 A 
ATOM      2  N   UNL d   1      33.241  20.420 -23.517  0.00  0.00    -0.121 NA
ATOM      3  O   UNL d   1      32.686  19.694 -22.531  0.00  0.00    -0.267 OA
ATOM      4  N   UNL d   1      33.094  19.659 -23.814  0.00  0.00    -0.119 NA
ATOM      5  C   UNL d   1      32.751  19.212 -23.203  0.00  0.00     0.230 A 
ENDROOT
BRANCH   1   6
ATOM      6  C   UNL d   1      33.037  21.099 -22.227  0.00  0.00     0.047 A 
ATOM      7  C   UNL d   1      33.078  21.003 -21.409  0.00  0.00     0.030 A 
ATOM      8  C   UNL d   1      33.126  21.657 -20.924  0.00  0.00     0.118 A 
ATOM      9  C   UNL d   1      33.133  22.422 -21.244  0.00  0.00     0.138 A 
ATOM     10  C   UNL d   1      33.092  22.514 -22.060  0.00  0.00     0.118 A 
ATOM     11  C   UNL d   1      33.043  21.852 -22.561  0.00  0.00     0.030 A 
BRANCH   8  12
ATOM     12  O   UNL d   1      33.167  21.553 -20.102  0.00  0.00    -0.326 OA
ATOM     13  C   UNL d   1      33.237  20.795 -19.778  0.00  0.00     0.181 C 
ENDBRANCH   8  12
BRANCH   9  14
ATOM     14  O   UNL d   1      33.181  23.076 -20.743  0.00  0.00    -0.324 OA
ATOM     15  C   UNL d   1      32.493  23.466 -20.494  0.00  0.00     0.182 C 
ENDBRANCH   9  14
BRANCH  10  16
ATOM     16  O   UNL d   1      33.099  23.278 -22.382  0.00  0.00    -0.326 OA
ATOM     17  C   UNL d   1      32.672  23.441 -23.064  0.00  0.00     0.181 C 
ENDBRANCH  10  16
ENDBRANCH   1   6
BRANCH   5  18
ATOM     18  C   UNL d   1      32.512  18.420 -23.250  0.00  0.00     0.169 C 
BRANCH  18  19
ATOM     19  O   UNL d   1      32.127  18.141 -23.924  0.00  0.00    -0.301 OA
BRANCH  19  20
ATOM     20  C   UNL d   1      31.650  17.468 -23.874  0.00  0.00     0.100 A 
ATOM     21  C   UNL d   1      30.846  17.519 -24.053  0.00  0.00     0.025 A 
ATOM     22  C   UNL d   1      30.373  16.851 -24.004  0.00  0.00     0.002 A 
ATOM     23  C   UNL d   1      29.564  16.894 -24.183  0.00  0.00     0.000 A 
ATOM     24  C   UNL d   1      30.696  16.130 -23.776  0.00  0.00     0.000 A 
ATOM     25  C   UNL d   1      29.093  16.219 -24.132  0.00  0.00     0.000 A 
ATOM     26  C   UNL d   1      29.424  15.499 -23.903  0.00  0.00     0.000 A 
ATOM     27  C   UNL d   1      30.230  15.453 -23.723  0.00  0.00     0.000 A 
ATOM     28  C   UNL d   1      31.499  16.076 -23.596  0.00  0.00     0.002 A 
ATOM     29  C   UNL d   1      31.983  16.755 -23.646  0.00  0.00     0.025 A 
ENDBRANCH  19  20
ENDBRANCH  18  19
ENDBRANCH   5  18
TORSDOF 7
ENDMDL
MODEL 2
REMARK VINA RESULT:      -1.3      1.634      5.969
REMARK  7 active torsions:
REMARK  status: ('A' for Active; 'I' for Inactive)
REMARK    1  A    between atoms: C_6  and  C_1 
REMARK    2  A    between atoms: C_14  and  C_5 
REMARK    3  A    between atoms: O_19  and  C_7 
REMARK    4  A    between atoms: O_20  and  C_8 
REMARK    5  A    between atoms: O_21  and  C_9 
REMARK    6  A    between atoms: O_17  and  C_14 
REMARK    7  A    between atoms: C_18  and  O_17 
ROOT
ATOM      1  C   UNL d   1      31.922  17.743 -23.614  0.00  0.00     0.205 A 
ATOM      2  N   UNL d   1      32.627  17.345 -23.440  0.00  0.00    -0.121 NA
ATOM      3  O   UNL d   1      32.062  18.558 -23.571  0.00  0.00    -0.267 OA
ATOM      4  N   UNL d   1      33.212  17.914 -23.289  0.00  0.00    -0.119 NA
ATOM      5  C   UNL d   1      32.860  18.663 -23.371  0.00  0.00     0.230 A 
ENDROOT
BRANCH   1   6
ATOM      6  C   UNL d   1      31.200  17.376 -23.797  0.00  0.00     0.047 A 
ATOM      7  C   UNL d   1      30.982  16.671 -23.429  0.00  0.00     0.030 A 
ATOM      8  C   UNL d   1      30.271  16.317 -23.615  0.00  0.00     0.118 A 
ATOM      9  C   UNL d   1      29.762  16.658 -24.173  0.00  0.00     0.138 A 
ATOM     10  C   UNL d   1      29.982  17.361 -24.539  0.00  0.00     0.118 A 
ATOM     11  C   UNL d   1      30.705  17.728 -24.354  0.00  0.00     0.030 A 
BRANCH   8  12
ATOM     12  O   UNL d   1      30.059  15.608 -23.241  0.00  0.00    -0.326 OA
ATOM     13  C   UNL d   1      30.263  15.473 -22.450  0.00  0.00     0.181 C 
ENDBRANCH   8  12
BRANCH   9  14
ATOM     14  O   UNL d   1      29.045  16.290 -24.353  0.00  0.00    -0.324 OA
ATOM     15  C   UNL d   1      29.006  15.718 -24.951  0.00  0.00     0.182 C 
ENDBRANCH   9  14
BRANCH  10  16
ATOM     16  O   UNL d   1      29.474  17.704 -25.097  0.00  0.00    -0.326 OA
ATOM     17  C   UNL d   1      29.193  18.466 -24.984  0.00  0.00     0.181 C 
ENDBRANCH  10  16
ENDBRANCH   1   6
BRANCH   5  18
ATOM     18  C   UNL d   1      33.237  19.395 -23.270  0.00  0.00     0.169 C 
BRANCH  18  19
ATOM     19  O   UNL d   1      33.157  19.985 -23.840  0.00  0.00    -0.301 OA
BRANCH  19  20
ATOM     20  C   UNL d   1      33.163  20.779 -23.612  0.00  0.00     0.100 A 
ATOM     21  C   UNL d   1      33.099  20.978 -22.813  0.00  0.00     0.025 A 
ATOM     22  C   UNL d   1      33.105  21.765 -22.586  0.00  0.00     0.002 A 
ATOM     23  C   UNL d   1      33.041  21.974 -21.786  0.00  0.00     0.000 A 
ATOM     24  C   UNL d   1      33.176  22.360 -23.151  0.00  0.00     0.000 A 
ATOM     25  C   UNL d   1      33.048  22.768 -21.563  0.00  0.00     0.000 A 
ATOM     26  C   UNL d   1      33.119  23.358 -22.135  0.00  0.00     0.000 A 
ATOM     27  C   UNL d   1      33.184  23.154 -22.934  0.00  0.00     0.000 A 
ATOM     28  C   UNL d   1      33.241  22.163 -23.949  0.00  0.00     0.002 A 
ATOM     29  C   UNL d   1      33.234  21.361 -24.183  0.00  0.00     0.025 A 
ENDBRANCH  19  20
ENDBRANCH  18  19
ENDBRANCH   5  18
TORSDOF 7
ENDMDL
MODEL 3
REMARK VINA RESULT:      -0.4      1.128      2.082
REMARK  7 active torsions:
REMARK  status: ('A' for Active; 'I' for Inactive)
REMARK    1  A    between atoms: C_6  and  C_1 
REMARK    2  A    between atoms: C_14  and  C_5 
REMARK    3  A    between atoms: O_19  and  C_7 
REMARK    4  A    between atoms: O_20  and  C_8 
REMARK    5  A    between atoms: O_21  and  C_9 
REMARK    6  A    between atoms: O_17  and  C_14 
REMARK    7  A    between atoms: C_18  and  O_17 
ROOT
ATOM      1  C   UNL d   1      33.088  20.601 -21.351  0.00  0.00     0.205 A 
ATOM      2  N   UNL d   1      33.123  19.879 -20.946  0.00  0.00    -0.121 NA
ATOM      3  O   UNL d   1      33.128  20.448 -22.164  0.00  0.00    -0.267 OA
ATOM      4  N   UNL d   1      33.185  19.272 -21.509  0.00  0.00    -0.119 NA
ATOM      5  C   UNL d   1      33.188  19.626 -22.261  0.00  0.00     0.230 A 
ENDROOT
BRANCH   1   6
ATOM      6  C   UNL d   1      33.024  21.346 -20.992  0.00  0.00     0.047 A 
ATOM      7  C   UNL d   1      32.822  22.011 -21.438  0.00  0.00     0.030 A 
ATOM      8  C   UNL d   1      32.761  22.739 -21.078  0.00  0.00     0.118 A 
ATOM      9  C   UNL d   1      32.900  22.823 -20.264  0.00  0.00     0.138 A 
ATOM     10  C   UNL d   1      33.101  22.158 -19.823  0.00  0.00     0.118 A 
ATOM     11  C   UNL d   1      33.165  21.412 -20.183  0.00  0.00     0.030 A 
BRANCH   8  12
ATOM     12  O   UNL d   1      32.558  23.403 -21.532  0.00  0.00    -0.326 OA
ATOM     13  C   UNL d   1      31.907  23.379 -22.042  0.00  0.00     0.181 C 
ENDBRANCH   8  12
BRANCH   9  14
ATOM     14  O   UNL d   1      32.835  23.566 -19.911  0.00  0.00    -0.324 OA
ATOM     15  C   UNL d   1      32.275  23.700 -19.316  0.00  0.00     0.182 C 
ENDBRANCH   9  14
BRANCH  10  16
ATOM     16  O   UNL d   1      33.241  22.240 -19.010  0.00  0.00    -0.326 OA
ATOM     17  C   UNL d   1      32.918  21.701 -18.482  0.00  0.00     0.181 C 
ENDBRANCH  10  16
ENDBRANCH   1   6
BRANCH   5  18
ATOM     18  C   UNL d   1      33.241  19.232 -22.989  0.00  0.00     0.169 C 
BRANCH  18  19
ATOM     19  O   UNL d   1      32.557  19.016 -23.394  0.00  0.00    -0.301 OA
BRANCH  19  20
ATOM     20  C   UNL d   1      32.494  18.256 -23.714  0.00  0.00     0.100 A 
ATOM     21  C   UNL d   1      31.799  17.823 -23.613  0.00  0.00     0.025 A 
ATOM     22  C   UNL d   1      31.736  17.070 -23.930  0.00  0.00     0.002 A 
ATOM     23  C   UNL d   1      31.040  16.628 -23.832  0.00  0.00     0.000 A 
ATOM     24  C   UNL d   1      32.363  16.742 -24.349  0.00  0.00     0.000 A 
ATOM     25  C   UNL d   1      30.983  15.870 -24.154  0.00  0.00     0.000 A 
ATOM     26  C   UNL d   1      31.616  15.549 -24.573  0.00  0.00     0.000 A 
ATOM     27  C   UNL d   1      32.312  15.987 -24.672  0.00  0.00     0.000 A 
ATOM     28  C   UNL d   1      33.060  17.173 -24.452  0.00  0.00     0.002 A 
ATOM     29  C   UNL d   1      33.125  17.941 -24.130  0.00  0.00     0.025 A 
ENDBRANCH  19  20
ENDBRANCH  18  19
ENDBRANCH   5  18
TORSDOF 7
ENDMDL
