MODEL 1
REMARK VINA RESULT:      55.5      0.000      0.000
REMARK  5 active torsions:
REMARK  status: ('A' for Active; 'I' for Inactive)
REMARK    1  A    between atoms: N_9  and  C_2 
REMARK    2  A    between atoms: N_11  and  C_6 
REMARK    3  A    between atoms: C_16  and  N_11 
REMARK    4  A    between atoms: C_15  and  N_12 
REMARK    5  A    between atoms: C_24  and  C_15 
ROOT
ATOM      1  N   UNL d   1      45.968 -18.839  42.399  0.00  0.00    -0.041 NA
ATOM      2  C   UNL d   1      45.989 -18.098  42.150  0.00  0.00     0.738 A 
ATOM      3  C   UNL d   1      46.169 -19.008  43.136  0.00  0.00     0.187 A 
ATOM      4  N   UNL d   1      46.212 -17.522  42.640  0.00  0.00    -0.041 NA
ATOM      5  C   UNL d   1      46.393 -18.435  43.629  0.00  0.00     0.094 A 
ATOM      6  C   UNL d   1      46.415 -17.685  43.382  0.00  0.00     0.185 A 
ATOM      7  N   UNL d   1      46.352 -19.928  44.134  0.00  0.00    -0.162 NA
ATOM      8  N   UNL d   1      46.147 -19.757  43.384  0.00  0.00    -0.208 N 
ATOM      9  C   UNL d   1      46.574 -19.353  44.624  0.00  0.00     0.127 A 
ATOM     10  C   UNL d   1      45.925 -20.330  42.896  0.00  0.00     0.123 C 
ENDROOT
BRANCH   2  11
ATOM     11  N   UNL d   1      45.776 -17.914  41.369  0.00  0.00    -0.134 N 
ATOM     12  C   UNL d   1      44.974 -17.846  41.165  0.00  0.00     0.117 A 
ATOM     13  C   UNL d   1      44.758 -17.661  40.379  0.00  0.00     0.100 A 
ATOM     14  N   UNL d   1      45.338 -17.548  39.811  0.00  0.00    -0.300 N 
ATOM     15  C   UNL d   1      46.141 -17.615  40.015  0.00  0.00     0.100 A 
ATOM     16  C   UNL d   1      46.361 -17.797  40.786  0.00  0.00     0.117 A 
BRANCH  14  17
ATOM     17  C   UNL d   1      45.134 -17.364  39.029  0.00  0.00     0.080 C 
BRANCH  17  18
ATOM     18  C   UNL d   1      45.064 -16.805  38.425  0.00  0.00     0.018 A 
ATOM     19  C   UNL d   1      45.671 -16.253  38.293  0.00  0.00     0.002 A 
ATOM     20  C   UNL d   1      45.593 -15.703  37.692  0.00  0.00     0.000 A 
ATOM     21  C   UNL d   1      44.920 -15.686  37.213  0.00  0.00     0.000 A 
ATOM     22  C   UNL d   1      44.313 -16.239  37.345  0.00  0.00     0.000 A 
ATOM     23  C   UNL d   1      44.388 -16.800  37.954  0.00  0.00     0.002 A 
ENDBRANCH  17  18
ENDBRANCH  14  17
ENDBRANCH   2  11
BRANCH   6  24
ATOM     24  N   UNL d   1      46.646 -17.082  43.886  0.00  0.00    -0.226 NA
BRANCH  24  25
ATOM     25  C   UNL d   1      46.103 -16.518  44.133  0.00  0.00     0.083 A 
ATOM     26  C   UNL d   1      45.539 -16.710  44.701  0.00  0.00     0.021 A 
ATOM     27  C   UNL d   1      44.987 -16.140  44.954  0.00  0.00     0.031 A 
ATOM     28  C   UNL d   1      45.003 -15.381  44.639  0.00  0.00     0.140 A 
ATOM     29  C   UNL d   1      45.570 -15.180  44.065  0.00  0.00     0.031 A 
ATOM     30  F   UNL d   1      44.456 -14.823  44.892  0.00  0.00    -0.204 F 
ATOM     31  C   UNL d   1      46.114 -15.748  43.818  0.00  0.00     0.021 A 
ENDBRANCH  24  25
ENDBRANCH   6  24
TORSDOF 5
ENDMDL
