MODEL 1
REMARK VINA RESULT:      51.0      0.000      0.000
REMARK  5 active torsions:
REMARK  status: ('A' for Active; 'I' for Inactive)
REMARK    1  A    between atoms: C_11  and  N_1 
REMARK    2  A    between atoms: C_15  and  C_3 
REMARK    3  A    between atoms: N_4  and  C_7 
REMARK    4  A    between atoms: C_9  and  C_10 
REMARK       I    between atoms: C_10  and  N_12 
REMARK    5  A    between atoms: N_12  and  C_15 
ROOT
ATOM      1  C   UNL d   1      13.866  14.890  -2.228  0.00  0.00     0.141 C 
ENDROOT
BRANCH   1   2
ATOM      2  N   UNL d   1      13.871  14.154  -2.603  0.00  0.00    -0.203 NA
ATOM      3  C   UNL d   1      13.330  14.003  -3.214  0.00  0.00     0.279 C 
ATOM      4  O   UNL d   1      12.803  14.574  -3.438  0.00  0.00    -0.265 OA
BRANCH   3   5
ATOM      5  C   UNL d   1      13.339  13.260  -3.587  0.00  0.00     0.059 A 
ATOM      6  C   UNL d   1      13.436  13.216  -4.407  0.00  0.00     0.027 A 
ATOM      7  C   UNL d   1      13.445  12.491  -4.769  0.00  0.00     0.127 A 
ATOM      8  C   UNL d   1      13.522  13.914  -4.836  0.00  0.00     0.002 C 
ATOM      9  C   UNL d   1      13.358  11.788  -4.329  0.00  0.00     0.024 A 
ATOM     10  C   UNL d   1      13.261  11.821  -3.513  0.00  0.00     0.002 A 
ATOM     11  C   UNL d   1      13.252  12.548  -3.148  0.00  0.00     0.005 A 
BRANCH   7  12
ATOM     12  N   UNL d   1      13.542  12.459  -5.581  0.00  0.00    -0.114 N 
ATOM     13  O   UNL d   1      14.236  12.733  -5.937  0.00  0.00    -0.532 OA
ATOM     14  O   UNL d   1      12.936  12.147  -6.060  0.00  0.00    -0.532 OA
ENDBRANCH   7  12
ENDBRANCH   3   5
ENDBRANCH   1   2
BRANCH   1  15
ATOM     15  C   UNL d   1      14.530  15.142  -1.804  0.00  0.00     0.191 A 
ATOM     16  N   UNL d   1      14.910  14.737  -1.198  0.00  0.00    -0.264 N 
ATOM     17  C   UNL d   1      15.542  15.182  -0.931  0.00  0.00     0.227 A 
ATOM     18  N   UNL d   1      15.564  15.887  -1.378  0.00  0.00    -0.117 NA
ATOM     19  S   UNL d   1      16.067  14.982  -0.332  0.00  0.00    -0.036 SA
ATOM     20  N   UNL d   1      14.933  15.862  -1.922  0.00  0.00    -0.126 NA
BRANCH  16  21
ATOM     21  C   UNL d   1      14.686  13.993  -0.905  0.00  0.00     0.068 A 
ATOM     22  C   UNL d   1      14.072  13.944  -0.354  0.00  0.00     0.020 A 
ATOM     23  C   UNL d   1      13.858  13.200  -0.070  0.00  0.00     0.031 A 
ATOM     24  C   UNL d   1      14.242  12.516  -0.322  0.00  0.00     0.140 A 
ATOM     25  C   UNL d   1      14.857  12.581  -0.876  0.00  0.00     0.031 A 
ATOM     26  F   UNL d   1      14.022  11.784  -0.034  0.00  0.00    -0.204 F 
ATOM     27  C   UNL d   1      15.079  13.321  -1.167  0.00  0.00     0.020 A 
ENDBRANCH  16  21
ENDBRANCH   1  15
TORSDOF 5
ENDMDL
