MODEL 1
REMARK VINA RESULT:      24.3      0.000      0.000
REMARK  0 active torsions:
REMARK  status: ('A' for Active; 'I' for Inactive)
ROOT
ATOM      1  C   UNL d   1      58.979  49.703  49.967  0.00  0.00     0.166 A 
ATOM      2  C   UNL d   1      58.839  49.703  50.778  0.00  0.00     0.117 A 
ATOM      3  N   UNL d   1      59.800  49.701  49.871  0.00  0.00    -0.288 N 
ATOM      4  C   UNL d   1      59.546  49.702  51.168  0.00  0.00     0.038 A 
ATOM      5  N   UNL d   1      58.353  49.703  49.422  0.00  0.00    -0.225 NA
ATOM      6  C   UNL d   1      60.146  49.701  50.602  0.00  0.00     0.067 A 
ATOM      7  N   UNL d   1      58.056  49.704  51.024  0.00  0.00    -0.241 NA
ATOM      8  C   UNL d   1      57.585  49.705  49.693  0.00  0.00     0.101 A 
ATOM      9  C   UNL d   1      57.449  49.705  50.499  0.00  0.00     0.099 A 
ATOM     10  C   UNL d   1      60.936  49.699  50.838  0.00  0.00     0.018 A 
ATOM     11  C   UNL d   1      59.736  49.702  51.971  0.00  0.00     0.015 A 
ATOM     12  C   UNL d   1      60.527  49.700  52.206  0.00  0.00     0.058 A 
ATOM     13  C   UNL d   1      60.188  49.700  49.159  0.00  0.00     0.101 C 
ATOM     14  C   UNL d   1      61.126  49.699  51.640  0.00  0.00     0.013 A 
ATOM     15 CL   UNL d   1      60.717  49.700  53.010  0.00  0.00    -0.082 Cl
ATOM     16  C   UNL d   1      56.977  49.706  49.167  0.00  0.00     0.021 A 
ATOM     17  C   UNL d   1      56.681  49.707  50.769  0.00  0.00     0.021 A 
ATOM     18  C   UNL d   1      56.034  49.708  50.246  0.00  0.00     0.002 A 
ATOM     19  C   UNL d   1      56.197  49.707  49.453  0.00  0.00     0.002 A 
ENDROOT
TORSDOF 0
ENDMDL
