MODEL 1
REMARK VINA RESULT:      32.7      0.000      0.000
REMARK  3 active torsions:
REMARK  status: ('A' for Active; 'I' for Inactive)
REMARK    1  A    between atoms: C_15  and  N_1 
REMARK       I    between atoms: C_6  and  N_7 
REMARK    2  A    between atoms: C_11  and  C_6 
REMARK    3  A    between atoms: N_7  and  C_8 
ROOT
ATOM      1  N   UNL d   1      12.975  12.651  -5.195  0.00  0.00    -0.273 N 
ATOM      2  C   UNL d   1      13.073  13.716  -5.248  0.00  0.00     0.265 A 
ATOM      3  C   UNL d   1      13.139  12.491  -4.405  0.00  0.00     0.067 A 
ATOM      4  C   UNL d   1      13.297  13.215  -4.042  0.00  0.00     0.022 A 
ATOM      5  C   UNL d   1      13.269  13.895  -4.475  0.00  0.00     0.058 A 
ATOM      6  C   UNL d   1      13.508  12.536  -2.811  0.00  0.00     0.084 A 
ATOM      7  C   UNL d   1      13.481  13.237  -3.244  0.00  0.00     0.019 A 
ATOM      8  C   UNL d   1      13.165  11.789  -3.972  0.00  0.00     0.019 A 
ATOM      9  O   UNL d   1      13.006  14.311  -5.814  0.00  0.00    -0.267 OA
ATOM     10  C   UNL d   1      13.349  11.812  -3.174  0.00  0.00     0.021 A 
ATOM     11  C   UNL d   1      13.427  14.618  -4.111  0.00  0.00     0.005 A 
ATOM     12  C   UNL d   1      13.638  13.939  -2.880  0.00  0.00     0.002 A 
ATOM     13  C   UNL d   1      13.611  14.640  -3.314  0.00  0.00     0.000 A 
ENDROOT
BRANCH   6  14
ATOM     14  N   UNL d   1      13.692  12.558  -2.014  0.00  0.00    -0.212 NA
ATOM     15  C   UNL d   1      14.368  12.174  -1.739  0.00  0.00     0.255 C 
ATOM     16  O   UNL d   1      14.843  11.779  -2.259  0.00  0.00    -0.270 OA
BRANCH  15  17
ATOM     17  C   UNL d   1      14.553  12.196  -0.942  0.00  0.00     0.073 C 
ATOM     18  C   UNL d   1      13.952  12.135  -0.381  0.00  0.00     0.009 C 
ATOM     19  C   UNL d   1      15.339  12.280  -0.706  0.00  0.00     0.009 C 
ATOM     20  C   UNL d   1      14.773  12.223  -0.030  0.00  0.00     0.009 C 
ENDBRANCH  15  17
ENDBRANCH   6  14
BRANCH   1  21
ATOM     21  C   UNL d   1      12.793  12.009  -5.700  0.00  0.00     0.083 C 
ATOM     22  C   UNL d   1      13.234  11.889  -6.358  0.00  0.00     0.021 C 
ENDBRANCH   1  21
TORSDOF 3
ENDMDL
