MODEL 1
REMARK VINA RESULT:      46.1      0.000      0.000
REMARK  8 active torsions:
REMARK  status: ('A' for Active; 'I' for Inactive)
REMARK    1  A    between atoms: N_10  and  C_1 
REMARK    2  A    between atoms: C_20  and  N_2 
REMARK    3  A    between atoms: C_4  and  S_13 
REMARK       I    between atoms: C_14  and  N_10 
REMARK       I    between atoms: C_12  and  N_18 
REMARK    4  A    between atoms: C_16  and  C_12 
REMARK    5  A    between atoms: S_13  and  C_19 
REMARK    6  A    between atoms: C_19  and  C_14 
REMARK    7  A    between atoms: N_18  and  C_22 
REMARK    8  A    between atoms: C_22  and  C_20 
ROOT
ATOM      1  N   UNL d   1      13.110  12.437  -3.654  0.00  0.00    -0.302 N 
ATOM      2  C   UNL d   1      13.039  13.688  -4.115  0.00  0.00     0.049 A 
ATOM      3  C   UNL d   1      12.988  13.234  -3.436  0.00  0.00     0.087 A 
ATOM      4  C   UNL d   1      13.192  13.186  -4.758  0.00  0.00     0.024 A 
ATOM      5  C   UNL d   1      13.235  12.415  -4.469  0.00  0.00     0.065 A 
ATOM      6  C   UNL d   1      13.294  13.339  -5.556  0.00  0.00     0.002 A 
ATOM      7  C   UNL d   1      13.381  11.799  -4.987  0.00  0.00     0.018 A 
ATOM      8  C   UNL d   1      13.442  12.716  -6.074  0.00  0.00     0.000 A 
ATOM      9  C   UNL d   1      13.486  11.944  -5.793  0.00  0.00     0.002 A 
ENDROOT
BRANCH   1  10
ATOM     10  C   UNL d   1      13.108  11.786  -3.151  0.00  0.00     0.101 C 
BRANCH  10  11
ATOM     11  C   UNL d   1      13.114  11.897  -2.336  0.00  0.00     0.121 C 
BRANCH  11  12
ATOM     12  N   UNL d   1      13.795  12.195  -1.967  0.00  0.00    -0.205 NA
ATOM     13  C   UNL d   1      13.876  12.139  -1.146  0.00  0.00     0.279 C 
ATOM     14  O   UNL d   1      13.277  11.786  -0.695  0.00  0.00    -0.265 OA
BRANCH  13  15
ATOM     15  C   UNL d   1      14.550  12.434  -0.783  0.00  0.00     0.058 A 
ATOM     16  C   UNL d   1      14.608  13.219  -0.601  0.00  0.00     0.005 A 
ATOM     17  C   UNL d   1      15.277  13.532  -0.237  0.00  0.00     0.000 A 
ATOM     18  C   UNL d   1      15.908  13.033  -0.051  0.00  0.00     0.000 A 
ATOM     19  C   UNL d   1      15.858  12.225  -0.234  0.00  0.00     0.000 A 
ATOM     20  C   UNL d   1      15.179  11.927  -0.600  0.00  0.00     0.005 A 
ENDBRANCH  13  15
ENDBRANCH  11  12
ENDBRANCH  10  11
ENDBRANCH   1  10
BRANCH   2  21
ATOM     21  S   UNL d   1      12.954  14.508  -4.158  0.00  0.00    -0.080 SA
BRANCH  21  22
ATOM     22  C   UNL d   1      13.613  14.978  -4.306  0.00  0.00     0.098 C 
BRANCH  22  23
ATOM     23  C   UNL d   1      14.075  15.257  -3.674  0.00  0.00     0.288 C 
ATOM     24  N   UNL d   1      14.348  16.029  -3.683  0.00  0.00    -0.181 NA
ATOM     25  O   UNL d   1      14.254  14.758  -3.047  0.00  0.00    -0.265 OA
BRANCH  24  26
ATOM     26  C   UNL d   1      14.810  16.317  -3.057  0.00  0.00     0.219 A 
ATOM     27  S   UNL d   1      14.592  16.359  -2.269  0.00  0.00    -0.026 SA
ATOM     28  C   UNL d   1      15.225  16.681  -1.848  0.00  0.00     0.135 A 
ATOM     29  C   UNL d   1      15.242  16.821  -1.034  0.00  0.00     0.030 C 
ATOM     30  N   UNL d   1      15.833  16.841  -2.364  0.00  0.00    -0.139 NA
ATOM     31  N   UNL d   1      15.584  16.617  -3.117  0.00  0.00    -0.121 NA
ENDBRANCH  24  26
ENDBRANCH  22  23
ENDBRANCH  21  22
ENDBRANCH   2  21
TORSDOF 8
ENDMDL
