MODEL 1
REMARK VINA RESULT:      -8.0      0.000      0.000
REMARK  6 active torsions:
REMARK  status: ('A' for Active; 'I' for Inactive)
REMARK    1  A    between atoms: N_3  and  C_1 
REMARK       I    between atoms: C_7  and  N_3 
REMARK    2  A    between atoms: S_13  and  C_4 
REMARK    3  A    between atoms: C_20  and  C_7 
REMARK    4  A    between atoms: C_10  and  C_21 
REMARK       I    between atoms: N_12  and  C_10 
REMARK    5  A    between atoms: C_14  and  N_12 
REMARK    6  A    between atoms: C_21  and  S_13 
ROOT
ATOM      1  C   UNL d   1      49.019  35.005  52.360  0.00  0.00     0.286 C 
ATOM      2  N   UNL d   1      48.566  35.212  51.699  0.00  0.00    -0.207 NA
ATOM      3  O   UNL d   1      48.738  35.153  53.123  0.00  0.00    -0.265 OA
ENDROOT
BRANCH   1   4
ATOM      4  C   UNL d   1      49.751  34.649  52.249  0.00  0.00     0.100 C 
BRANCH   4   5
ATOM      5  S   UNL d   1      50.197  34.406  52.905  0.00  0.00    -0.054 SA
BRANCH   5   6
ATOM      6  C   UNL d   1      50.953  34.097  52.788  0.00  0.00     0.165 A 
ATOM      7  S   UNL d   1      51.406  33.715  53.352  0.00  0.00    -0.019 SA
ATOM      8  C   UNL d   1      52.121  33.494  53.012  0.00  0.00     0.219 A 
ATOM      9  N   UNL d   1      52.107  33.745  52.223  0.00  0.00    -0.120 NA
ATOM     10  N   UNL d   1      51.386  34.117  52.085  0.00  0.00    -0.133 NA
BRANCH   8  11
ATOM     11  N   UNL d   1      52.738  33.094  53.392  0.00  0.00    -0.181 NA
ATOM     12  C   UNL d   1      52.982  32.359  53.101  0.00  0.00     0.281 C 
ATOM     13  O   UNL d   1      52.616  32.031  52.444  0.00  0.00    -0.265 OA
BRANCH  12  14
ATOM     14  C   UNL d   1      53.598  31.956  53.477  0.00  0.00     0.058 C 
ATOM     15  C   UNL d   1      53.558  31.134  53.558  0.00  0.00     0.005 C 
ATOM     16  C   UNL d   1      54.240  32.373  53.767  0.00  0.00     0.005 C 
ENDBRANCH  12  14
ENDBRANCH   8  11
ENDBRANCH   5   6
ENDBRANCH   4   5
ENDBRANCH   1   4
BRANCH   2  17
ATOM     17  C   UNL d   1      47.830  35.569  51.811  0.00  0.00     0.087 A 
ATOM     18  C   UNL d   1      47.155  35.211  51.503  0.00  0.00     0.046 A 
ATOM     19  C   UNL d   1      46.421  35.557  51.607  0.00  0.00     0.124 A 
ATOM     20  O   UNL d   1      45.744  35.196  51.297  0.00  0.00    -0.301 OA
ATOM     21  C   UNL d   1      46.355  36.269  52.024  0.00  0.00     0.123 A 
ATOM     22  C   UNL d   1      45.004  35.553  51.408  0.00  0.00     0.149 A 
ATOM     23  C   UNL d   1      44.939  36.266  51.825  0.00  0.00     0.149 A 
ATOM     24  O   UNL d   1      45.628  36.623  52.135  0.00  0.00    -0.301 OA
ATOM     25  C   UNL d   1      47.034  36.626  52.332  0.00  0.00     0.028 A 
ATOM     26  C   UNL d   1      47.772  36.276  52.225  0.00  0.00     0.021 A 
ENDBRANCH   2  17
TORSDOF 6
ENDMDL
MODEL 2
REMARK VINA RESULT:      -7.9      1.303      6.665
REMARK  6 active torsions:
REMARK  status: ('A' for Active; 'I' for Inactive)
REMARK    1  A    between atoms: N_3  and  C_1 
REMARK       I    between atoms: C_7  and  N_3 
REMARK    2  A    between atoms: S_13  and  C_4 
REMARK    3  A    between atoms: C_20  and  C_7 
REMARK    4  A    between atoms: C_10  and  C_21 
REMARK       I    between atoms: N_12  and  C_10 
REMARK    5  A    between atoms: C_14  and  N_12 
REMARK    6  A    between atoms: C_21  and  S_13 
ROOT
ATOM      1  C   UNL d   1      50.807  34.039  52.734  0.00  0.00     0.286 C 
ATOM      2  N   UNL d   1      51.604  34.133  52.533  0.00  0.00    -0.207 NA
ATOM      3  O   UNL d   1      50.590  33.561  53.372  0.00  0.00    -0.265 OA
ENDROOT
BRANCH   1   4
ATOM      4  C   UNL d   1      50.234  34.427  52.291  0.00  0.00     0.100 C 
BRANCH   4   5
ATOM      5  S   UNL d   1      49.503  34.615  52.635  0.00  0.00    -0.054 SA
BRANCH   5   6
ATOM      6  C   UNL d   1      48.892  34.895  52.156  0.00  0.00     0.165 A 
ATOM      7  S   UNL d   1      48.271  35.370  52.402  0.00  0.00    -0.019 SA
ATOM      8  C   UNL d   1      47.785  35.523  51.756  0.00  0.00     0.219 A 
ATOM      9  N   UNL d   1      48.112  35.136  51.103  0.00  0.00    -0.120 NA
ATOM     10  N   UNL d   1      48.795  34.748  51.350  0.00  0.00    -0.133 NA
BRANCH   8  11
ATOM     11  N   UNL d   1      47.096  35.982  51.765  0.00  0.00    -0.181 NA
ATOM     12  C   UNL d   1      46.388  35.653  51.489  0.00  0.00     0.281 C 
ATOM     13  O   UNL d   1      46.371  34.881  51.211  0.00  0.00    -0.265 OA
BRANCH  12  14
ATOM     14  C   UNL d   1      45.698  36.107  51.496  0.00  0.00     0.058 C 
ATOM     15  C   UNL d   1      45.562  36.631  52.120  0.00  0.00     0.005 C 
ATOM     16  C   UNL d   1      45.157  36.034  50.886  0.00  0.00     0.005 C 
ENDBRANCH  12  14
ENDBRANCH   8  11
ENDBRANCH   5   6
ENDBRANCH   4   5
ENDBRANCH   1   4
BRANCH   2  17
ATOM     17  C   UNL d   1      52.181  33.744  52.978  0.00  0.00     0.087 A 
ATOM     18  C   UNL d   1      52.580  34.154  53.571  0.00  0.00     0.046 A 
ATOM     19  C   UNL d   1      53.154  33.778  54.018  0.00  0.00     0.124 A 
ATOM     20  O   UNL d   1      53.554  34.191  54.612  0.00  0.00    -0.301 OA
ATOM     21  C   UNL d   1      53.333  32.983  53.874  0.00  0.00     0.123 A 
ATOM     22  C   UNL d   1      54.133  33.802  55.060  0.00  0.00     0.149 A 
ATOM     23  C   UNL d   1      54.312  33.006  54.916  0.00  0.00     0.149 A 
ATOM     24  O   UNL d   1      53.903  32.596  54.313  0.00  0.00    -0.301 OA
ATOM     25  C   UNL d   1      52.930  32.574  53.279  0.00  0.00     0.028 A 
ATOM     26  C   UNL d   1      52.354  32.955  52.830  0.00  0.00     0.021 A 
ENDBRANCH   2  17
TORSDOF 6
ENDMDL
MODEL 3
REMARK VINA RESULT:      -5.0     10.818     12.063
REMARK  6 active torsions:
REMARK  status: ('A' for Active; 'I' for Inactive)
REMARK    1  A    between atoms: N_3  and  C_1 
REMARK       I    between atoms: C_7  and  N_3 
REMARK    2  A    between atoms: S_13  and  C_4 
REMARK    3  A    between atoms: C_20  and  C_7 
REMARK    4  A    between atoms: C_10  and  C_21 
REMARK       I    between atoms: N_12  and  C_10 
REMARK    5  A    between atoms: C_14  and  N_12 
REMARK    6  A    between atoms: C_21  and  S_13 
ROOT
ATOM      1  C   UNL d   1      44.884  26.070  58.208  0.00  0.00     0.286 C 
ATOM      2  N   UNL d   1      44.319  25.486  58.361  0.00  0.00    -0.207 NA
ATOM      3  O   UNL d   1      45.584  25.882  57.813  0.00  0.00    -0.265 OA
ENDROOT
BRANCH   1   4
ATOM      4  C   UNL d   1      44.740  26.841  58.455  0.00  0.00     0.100 C 
BRANCH   4   5
ATOM      5  S   UNL d   1      45.249  27.452  58.219  0.00  0.00    -0.054 SA
BRANCH   5   6
ATOM      6  C   UNL d   1      44.996  28.235  58.280  0.00  0.00     0.165 A 
ATOM      7  S   UNL d   1      44.842  28.738  57.653  0.00  0.00    -0.019 SA
ATOM      8  C   UNL d   1      44.603  29.466  57.951  0.00  0.00     0.219 A 
ATOM      9  N   UNL d   1      44.610  29.410  58.776  0.00  0.00    -0.120 NA
ATOM     10  N   UNL d   1      44.853  28.650  58.979  0.00  0.00    -0.133 NA
BRANCH   8  11
ATOM     11  N   UNL d   1      44.394  30.130  57.503  0.00  0.00    -0.181 NA
ATOM     12  C   UNL d   1      44.682  30.874  57.725  0.00  0.00     0.281 C 
ATOM     13  O   UNL d   1      45.168  30.951  58.382  0.00  0.00    -0.265 OA
BRANCH  12  14
ATOM     14  C   UNL d   1      44.476  31.539  57.281  0.00  0.00     0.058 C 
ATOM     15  C   UNL d   1      44.332  31.460  56.471  0.00  0.00     0.005 C 
ATOM     16  C   UNL d   1      44.417  32.270  57.646  0.00  0.00     0.005 C 
ENDBRANCH  12  14
ENDBRANCH   8  11
ENDBRANCH   5   6
ENDBRANCH   4   5
ENDBRANCH   1   4
BRANCH   2  17
ATOM     17  C   UNL d   1      44.462  24.711  58.113  0.00  0.00     0.087 A 
ATOM     18  C   UNL d   1      44.741  24.158  58.656  0.00  0.00     0.046 A 
ATOM     19  C   UNL d   1      44.887  23.387  58.422  0.00  0.00     0.124 A 
ATOM     20  O   UNL d   1      45.167  22.833  58.968  0.00  0.00    -0.301 OA
ATOM     21  C   UNL d   1      44.754  23.163  57.636  0.00  0.00     0.123 A 
ATOM     22  C   UNL d   1      45.312  22.054  58.721  0.00  0.00     0.149 A 
ATOM     23  C   UNL d   1      45.179  21.831  57.935  0.00  0.00     0.149 A 
ATOM     24  O   UNL d   1      44.896  22.397  57.389  0.00  0.00    -0.301 OA
ATOM     25  C   UNL d   1      44.474  23.721  57.093  0.00  0.00     0.028 A 
ATOM     26  C   UNL d   1      44.329  24.496  57.333  0.00  0.00     0.021 A 
ENDBRANCH   2  17
TORSDOF 6
ENDMDL
