MODEL 1
REMARK VINA RESULT:      80.5      0.000      0.000
REMARK  4 active torsions:
REMARK  status: ('A' for Active; 'I' for Inactive)
REMARK    1  A    between atoms: C_15  and  C_2 
REMARK    2  A    between atoms: C_5  and  S_13 
REMARK       I    between atoms: C_11  and  N_8 
REMARK    3  A    between atoms: C_18  and  C_11 
REMARK    4  A    between atoms: S_13  and  C_18 
ROOT
ATOM      1  N   UNL d   1      60.378  48.659  50.741  0.00  0.00    -0.272 N 
ATOM      2  C   UNL d   1      59.841  49.194  51.038  0.00  0.00     0.271 C 
ATOM      3  C   UNL d   1      61.457  47.578  50.118  0.00  0.00     0.023 A 
ATOM      4  C   UNL d   1      60.960  48.327  51.218  0.00  0.00     0.083 A 
ATOM      5  C   UNL d   1      60.337  48.446  49.938  0.00  0.00     0.083 A 
ATOM      6  O   UNL d   1      59.872  49.410  51.822  0.00  0.00    -0.266 OA
ATOM      7  C   UNL d   1      61.500  47.785  50.907  0.00  0.00     0.021 A 
ATOM      8  C   UNL d   1      60.882  47.903  49.634  0.00  0.00     0.021 A 
ENDROOT
BRANCH   2   9
ATOM      9  C   UNL d   1      59.258  49.523  50.544  0.00  0.00     0.099 C 
BRANCH   9  10
ATOM     10  S   UNL d   1      58.512  49.700  50.850  0.00  0.00    -0.054 SA
BRANCH  10  11
ATOM     11  C   UNL d   1      57.819  49.416  50.476  0.00  0.00     0.164 A 
ATOM     12  S   UNL d   1      57.506  49.686  49.763  0.00  0.00    -0.039 SA
ATOM     13  C   UNL d   1      56.816  49.246  49.605  0.00  0.00     0.134 A 
ATOM     14  C   UNL d   1      56.322  49.335  48.939  0.00  0.00     0.030 C 
ATOM     15  N   UNL d   1      56.707  48.703  50.228  0.00  0.00    -0.140 NA
ATOM     16  N   UNL d   1      57.332  48.808  50.773  0.00  0.00    -0.134 NA
ENDBRANCH  10  11
ENDBRANCH   9  10
ENDBRANCH   2   9
BRANCH   3  17
ATOM     17  C   UNL d   1      61.988  47.044  49.805  0.00  0.00     0.110 A 
ATOM     18  N   UNL d   1      62.789  47.164  49.720  0.00  0.00    -0.126 NA
ATOM     19  O   UNL d   1      63.121  46.487  49.382  0.00  0.00    -0.211 OA
ATOM     20  C   UNL d   1      62.521  45.954  49.260  0.00  0.00     0.127 A 
ATOM     21  C   UNL d   1      62.507  45.192  48.944  0.00  0.00     0.029 A 
ATOM     22  C   UNL d   1      61.813  46.297  49.523  0.00  0.00     0.047 A 
ATOM     23  C   UNL d   1      61.809  44.782  48.891  0.00  0.00     0.032 A 
ATOM     24  C   UNL d   1      61.094  45.116  49.150  0.00  0.00     0.140 A 
ATOM     25  C   UNL d   1      61.116  45.887  49.469  0.00  0.00     0.033 A 
ATOM     26  F   UNL d   1      60.396  44.706  49.097  0.00  0.00    -0.204 F 
ENDBRANCH   3  17
TORSDOF 4
ENDMDL
MODEL 2
REMARK VINA RESULT:      82.5      2.143      5.230
REMARK  4 active torsions:
REMARK  status: ('A' for Active; 'I' for Inactive)
REMARK    1  A    between atoms: C_15  and  C_2 
REMARK    2  A    between atoms: C_5  and  S_13 
REMARK       I    between atoms: C_11  and  N_8 
REMARK    3  A    between atoms: C_18  and  C_11 
REMARK    4  A    between atoms: S_13  and  C_18 
ROOT
ATOM      1  N   UNL d   1      60.426  48.355  50.387  0.00  0.00    -0.272 N 
ATOM      2  C   UNL d   1      61.147  48.090  50.116  0.00  0.00     0.271 C 
ATOM      3  C   UNL d   1      58.959  48.872  50.938  0.00  0.00     0.023 A 
ATOM      4  C   UNL d   1      60.256  49.160  50.434  0.00  0.00     0.083 A 
ATOM      5  C   UNL d   1      59.850  47.803  50.619  0.00  0.00     0.083 A 
ATOM      6  O   UNL d   1      61.717  48.624  49.886  0.00  0.00    -0.266 OA
ATOM      7  C   UNL d   1      59.523  49.418  50.710  0.00  0.00     0.021 A 
ATOM      8  C   UNL d   1      59.117  48.069  50.894  0.00  0.00     0.021 A 
ENDROOT
BRANCH   2   9
ATOM      9  C   UNL d   1      61.304  47.274  50.073  0.00  0.00     0.099 C 
BRANCH   9  10
ATOM     10  S   UNL d   1      61.818  46.985  49.495  0.00  0.00    -0.054 SA
BRANCH  10  11
ATOM     11  C   UNL d   1      61.954  46.163  49.418  0.00  0.00     0.164 A 
ATOM     12  S   UNL d   1      61.410  45.602  49.155  0.00  0.00    -0.039 SA
ATOM     13  C   UNL d   1      61.784  44.858  49.169  0.00  0.00     0.134 A 
ATOM     14  C   UNL d   1      61.436  44.133  48.946  0.00  0.00     0.030 C 
ATOM     15  N   UNL d   1      62.563  44.965  49.444  0.00  0.00    -0.140 NA
ATOM     16  N   UNL d   1      62.671  45.779  49.600  0.00  0.00    -0.134 NA
ENDBRANCH  10  11
ENDBRANCH   9  10
ENDBRANCH   2   9
BRANCH   3  17
ATOM     17  C   UNL d   1      58.233  49.122  51.211  0.00  0.00     0.110 A 
ATOM     18  N   UNL d   1      58.040  49.262  51.989  0.00  0.00    -0.126 NA
ATOM     19  O   UNL d   1      57.251  49.506  52.025  0.00  0.00    -0.211 OA
ATOM     20  C   UNL d   1      56.963  49.515  51.266  0.00  0.00     0.127 A 
ATOM     21  C   UNL d   1      56.226  49.708  50.951  0.00  0.00     0.029 A 
ATOM     22  C   UNL d   1      57.572  49.277  50.756  0.00  0.00     0.047 A 
ATOM     23  C   UNL d   1      56.096  49.664  50.152  0.00  0.00     0.032 A 
ATOM     24  C   UNL d   1      56.697  49.427  49.631  0.00  0.00     0.140 A 
ATOM     25  C   UNL d   1      57.442  49.233  49.956  0.00  0.00     0.033 A 
ATOM     26  F   UNL d   1      56.567  49.383  48.831  0.00  0.00    -0.204 F 
ENDBRANCH   3  17
TORSDOF 4
ENDMDL
