MODEL 1
REMARK VINA RESULT:      44.1      0.000      0.000
REMARK  4 active torsions:
REMARK  status: ('A' for Active; 'I' for Inactive)
REMARK    1  A    between atoms: C_5  and  N_1 
REMARK    2  A    between atoms: C_7  and  C_3 
REMARK    3  A    between atoms: C_10  and  C_4 
REMARK    4  A    between atoms: N_11  and  C_5 
ROOT
ATOM      1  N   UNL d   1      59.491  49.563  51.731  0.00  0.00    -0.203 N 
ATOM      2  N   UNL d   1      58.668  49.663  51.743  0.00  0.00    -0.163 NA
ATOM      3  C   UNL d   1      59.724  49.395  50.959  0.00  0.00     0.088 A 
ATOM      4  C   UNL d   1      58.390  49.554  50.962  0.00  0.00     0.103 A 
ATOM      5  C   UNL d   1      59.042  49.390  50.483  0.00  0.00     0.040 A 
ENDROOT
BRANCH   3   6
ATOM      6  C   UNL d   1      60.486  49.250  50.665  0.00  0.00     0.028 A 
ATOM      7  C   UNL d   1      60.950  48.674  51.006  0.00  0.00     0.059 A 
ATOM      8 CL   UNL d   1      60.749  48.439  51.375  0.00  0.00    -0.082 Cl
ATOM      9  C   UNL d   1      61.711  48.524  50.718  0.00  0.00     0.011 A 
ATOM     10  C   UNL d   1      62.003  48.956  50.086  0.00  0.00     0.001 A 
ATOM     11  C   UNL d   1      61.520  49.539  49.748  0.00  0.00     0.000 A 
ATOM     12  C   UNL d   1      60.778  49.676  50.039  0.00  0.00     0.002 A 
ENDBRANCH   3   6
BRANCH   1  13
ATOM     13  C   UNL d   1      59.995  49.626  52.407  0.00  0.00     0.222 C 
ATOM     14  S   UNL d   1      59.650  49.694  53.159  0.00  0.00    -0.037 SA
BRANCH  13  15
ATOM     15  N   UNL d   1      60.822  49.620  52.311  0.00  0.00    -0.214 NA
ATOM     16  C   UNL d   1      61.318  49.708  52.985  0.00  0.00     0.122 C 
ENDBRANCH  13  15
ENDBRANCH   1  13
BRANCH   4  17
ATOM     17  C   UNL d   1      57.613  49.605  50.731  0.00  0.00     0.019 A 
ATOM     18  C   UNL d   1      57.430  49.615  49.927  0.00  0.00     0.002 A 
ATOM     19  C   UNL d   1      56.644  49.666  49.680  0.00  0.00     0.000 A 
ATOM     20  C   UNL d   1      56.038  49.708  50.235  0.00  0.00     0.000 A 
ATOM     21  C   UNL d   1      56.213  49.698  51.034  0.00  0.00     0.000 A 
ATOM     22  C   UNL d   1      56.999  49.647  51.281  0.00  0.00     0.002 A 
ENDBRANCH   4  17
TORSDOF 4
ENDMDL
