MODEL 1
REMARK VINA RESULT:      -2.0      0.000      0.000
REMARK  3 active torsions:
REMARK  status: ('A' for Active; 'I' for Inactive)
REMARK    1  A    between atoms: N_7  and  C_1 
REMARK       I    between atoms: C_11  and  N_6 
REMARK       I    between atoms: C_10  and  N_7 
REMARK    2  A    between atoms: C_17  and  C_10 
REMARK    3  A    between atoms: C_14  and  C_17 
ROOT
ATOM      1  C   UNL d   1      32.001  17.396 -23.947  0.00  0.00     0.124 A 
ATOM      2  C   UNL d   1      32.546  17.234 -23.350  0.00  0.00     0.093 A 
ATOM      3  C   UNL d   1      32.223  18.526 -23.255  0.00  0.00     0.049 A 
ATOM      4  C   UNL d   1      32.683  17.931 -22.922  0.00  0.00     0.021 A 
ATOM      5  S   UNL d   1      31.795  18.201 -23.895  0.00  0.00    -0.066 SA
ATOM      6  N   UNL d   1      32.730  19.458 -22.293  0.00  0.00    -0.272 N 
ATOM      7  C   UNL d   1      32.244  19.289 -22.943  0.00  0.00     0.089 A 
ATOM      8  C   UNL d   1      32.894  16.501 -23.204  0.00  0.00     0.103 C 
ATOM      9  C   UNL d   1      32.753  20.226 -21.977  0.00  0.00     0.265 C 
ATOM     10  N   UNL d   1      33.241  15.765 -23.060  0.00  0.00    -0.191 NA
ATOM     11  C   UNL d   1      33.167  18.093 -22.276  0.00  0.00     0.020 A 
ATOM     12  C   UNL d   1      33.191  18.860 -21.959  0.00  0.00     0.083 A 
ATOM     13  O   UNL d   1      32.292  20.824 -22.310  0.00  0.00    -0.267 OA
ATOM     14  C   UNL d   1      33.239  20.395 -21.326  0.00  0.00     0.066 C 
ENDROOT
BRANCH   1  15
ATOM     15  N   UNL d   1      31.706  16.871 -24.501  0.00  0.00    -0.201 NA
ATOM     16  C   UNL d   1      30.898  16.731 -24.531  0.00  0.00     0.280 C 
ATOM     17  O   UNL d   1      30.593  16.196 -25.095  0.00  0.00    -0.265 OA
BRANCH  16  18
ATOM     18  C   UNL d   1      30.380  17.109 -24.017  0.00  0.00     0.062 C 
BRANCH  18  19
ATOM     19  C   UNL d   1      29.638  16.789 -23.856  0.00  0.00     0.005 A 
ATOM     20  C   UNL d   1      28.950  17.241 -23.990  0.00  0.00     0.000 A 
ATOM     21  C   UNL d   1      28.209  16.910 -23.824  0.00  0.00     0.000 A 
ATOM     22  C   UNL d   1      29.020  18.008 -24.283  0.00  0.00     0.000 C 
ATOM     23  C   UNL d   1      28.141  16.146 -23.532  0.00  0.00     0.000 A 
ATOM     24  C   UNL d   1      28.822  15.699 -23.400  0.00  0.00     0.000 A 
ATOM     25  C   UNL d   1      27.406  15.822 -23.370  0.00  0.00     0.000 C 
ATOM     26  C   UNL d   1      29.572  16.015 -23.560  0.00  0.00     0.000 A 
ENDBRANCH  18  19
ENDBRANCH  16  18
ENDBRANCH   1  15
TORSDOF 3
ENDMDL
MODEL 2
REMARK VINA RESULT:      -1.6      2.008      3.393
REMARK  3 active torsions:
REMARK  status: ('A' for Active; 'I' for Inactive)
REMARK    1  A    between atoms: N_7  and  C_1 
REMARK       I    between atoms: C_11  and  N_6 
REMARK       I    between atoms: C_10  and  N_7 
REMARK    2  A    between atoms: C_17  and  C_10 
REMARK    3  A    between atoms: C_14  and  C_17 
ROOT
ATOM      1  C   UNL d   1      33.221  20.265 -23.764  0.00  0.00     0.124 A 
ATOM      2  C   UNL d   1      33.181  21.088 -23.728  0.00  0.00     0.093 A 
ATOM      3  C   UNL d   1      33.207  20.635 -22.472  0.00  0.00     0.049 A 
ATOM      4  C   UNL d   1      33.172  21.316 -22.931  0.00  0.00     0.021 A 
ATOM      5  S   UNL d   1      33.238  19.975 -22.984  0.00  0.00    -0.066 SA
ATOM      6  N   UNL d   1      33.173  21.431 -21.282  0.00  0.00    -0.272 N 
ATOM      7  C   UNL d   1      33.208  20.688 -21.649  0.00  0.00     0.089 A 
ATOM      8  C   UNL d   1      33.153  21.596 -24.376  0.00  0.00     0.103 C 
ATOM      9  C   UNL d   1      33.173  21.488 -20.454  0.00  0.00     0.265 C 
ATOM     10  N   UNL d   1      33.126  22.103 -25.028  0.00  0.00    -0.191 NA
ATOM     11  C   UNL d   1      33.137  22.057 -22.572  0.00  0.00     0.020 A 
ATOM     12  C   UNL d   1      33.137  22.115 -21.744  0.00  0.00     0.083 A 
ATOM     13  O   UNL d   1      33.208  20.804 -19.992  0.00  0.00    -0.267 OA
ATOM     14  C   UNL d   1      33.138  22.231 -20.086  0.00  0.00     0.066 C 
ENDROOT
BRANCH   1  15
ATOM     15  N   UNL d   1      33.241  19.802 -24.438  0.00  0.00    -0.201 NA
ATOM     16  C   UNL d   1      32.945  19.037 -24.409  0.00  0.00     0.280 C 
ATOM     17  O   UNL d   1      32.964  18.561 -25.095  0.00  0.00    -0.265 OA
BRANCH  16  18
ATOM     18  C   UNL d   1      32.629  18.728 -23.716  0.00  0.00     0.062 C 
BRANCH  18  19
ATOM     19  C   UNL d   1      32.135  18.069 -23.735  0.00  0.00     0.005 A 
ATOM     20  C   UNL d   1      32.328  17.389 -23.292  0.00  0.00     0.000 A 
ATOM     21  C   UNL d   1      31.824  16.732 -23.318  0.00  0.00     0.000 A 
ATOM     22  C   UNL d   1      33.014  17.384 -22.836  0.00  0.00     0.000 C 
ATOM     23  C   UNL d   1      31.141  16.739 -23.773  0.00  0.00     0.000 A 
ATOM     24  C   UNL d   1      30.950  17.413 -24.212  0.00  0.00     0.000 A 
ATOM     25  C   UNL d   1      30.645  16.087 -23.796  0.00  0.00     0.000 C 
ATOM     26  C   UNL d   1      31.443  18.079 -24.197  0.00  0.00     0.000 A 
ENDBRANCH  18  19
ENDBRANCH  16  18
ENDBRANCH   1  15
TORSDOF 3
ENDMDL
