MODEL 1
REMARK VINA RESULT:      26.5      0.000      0.000
REMARK  0 active torsions:
REMARK  status: ('A' for Active; 'I' for Inactive)
ROOT
ATOM      1  C   UNL d   1      59.520  49.693  50.047  0.00  0.00     0.267 A 
ATOM      2  N   UNL d   1      58.826  49.694  49.648  0.00  0.00    -0.270 N 
ATOM      3  C   UNL d   1      59.599  49.697  50.725  0.00  0.00     0.081 A 
ATOM      4  C   UNL d   1      59.082  49.702  51.361  0.00  0.00     0.105 A 
ATOM      5  O   UNL d   1      58.376  49.705  51.421  0.00  0.00    -0.305 OA
ATOM      6  C   UNL d   1      58.066  49.698  49.991  0.00  0.00     0.090 A 
ATOM      7  C   UNL d   1      57.857  49.704  50.813  0.00  0.00     0.116 A 
ATOM      8  C   UNL d   1      60.406  49.695  50.854  0.00  0.00     0.028 A 
ATOM      9  O   UNL d   1      60.207  49.688  49.597  0.00  0.00    -0.267 OA
ATOM     10  C   UNL d   1      59.371  49.705  52.125  0.00  0.00     0.026 A 
ATOM     11  C   UNL d   1      60.703  49.698  51.623  0.00  0.00     0.103 A 
ATOM     12  C   UNL d   1      58.865  49.689  48.832  0.00  0.00     0.102 C 
ATOM     13  N   UNL d   1      61.513  49.696  51.748  0.00  0.00    -0.148 N 
ATOM     14  C   UNL d   1      60.185  49.703  52.259  0.00  0.00     0.023 A 
ATOM     15  C   UNL d   1      57.459  49.697  49.400  0.00  0.00     0.020 A 
ATOM     16  C   UNL d   1      57.050  49.708  51.037  0.00  0.00     0.026 A 
ATOM     17  C   UNL d   1      56.647  49.701  49.630  0.00  0.00     0.002 A 
ATOM     18  C   UNL d   1      56.440  49.707  50.455  0.00  0.00     0.002 A 
ENDROOT
TORSDOF 0
ENDMDL
MODEL 2
REMARK VINA RESULT:      28.4      0.883      2.996
REMARK  0 active torsions:
REMARK  status: ('A' for Active; 'I' for Inactive)
ROOT
ATOM      1  C   UNL d   1      58.679  49.678  49.965  0.00  0.00     0.267 A 
ATOM      2  N   UNL d   1      59.443  49.686  50.205  0.00  0.00    -0.270 N 
ATOM      3  C   UNL d   1      58.127  49.675  50.366  0.00  0.00     0.081 A 
ATOM      4  C   UNL d   1      58.010  49.678  51.178  0.00  0.00     0.105 A 
ATOM      5  O   UNL d   1      58.444  49.685  51.737  0.00  0.00    -0.305 OA
ATOM      6  C   UNL d   1      59.706  49.693  50.996  0.00  0.00     0.090 A 
ATOM      7  C   UNL d   1      59.243  49.692  51.707  0.00  0.00     0.116 A 
ATOM      8  C   UNL d   1      57.486  49.666  49.861  0.00  0.00     0.028 A 
ATOM      9  O   UNL d   1      58.544  49.672  49.155  0.00  0.00    -0.267 OA
ATOM     10  C   UNL d   1      57.252  49.673  51.483  0.00  0.00     0.026 A 
ATOM     11  C   UNL d   1      56.719  49.661  50.163  0.00  0.00     0.103 A 
ATOM     12  C   UNL d   1      60.016  49.688  49.623  0.00  0.00     0.102 C 
ATOM     13  N   UNL d   1      56.077  49.652  49.653  0.00  0.00    -0.148 N 
ATOM     14  C   UNL d   1      56.602  49.665  50.975  0.00  0.00     0.023 A 
ATOM     15  C   UNL d   1      60.552  49.700  51.042  0.00  0.00     0.020 A 
ATOM     16  C   UNL d   1      59.625  49.700  52.452  0.00  0.00     0.026 A 
ATOM     17  C   UNL d   1      60.933  49.708  51.795  0.00  0.00     0.002 A 
ATOM     18  C   UNL d   1      60.467  49.708  52.506  0.00  0.00     0.002 A 
ENDROOT
TORSDOF 0
ENDMDL
