MODEL 1
REMARK VINA RESULT:      61.4      0.000      0.000
REMARK  3 active torsions:
REMARK  status: ('A' for Active; 'I' for Inactive)
REMARK    1  A    between atoms: C_13  and  N_6 
REMARK    2  A    between atoms: C_16  and  C_10 
REMARK    3  A    between atoms: O_19  and  C_17 
ROOT
ATOM      1  C   UNL d   1      14.608  14.440  -1.441  0.00  0.00     0.722 A 
ATOM      2  C   UNL d   1      15.080  15.640  -1.130  0.00  0.00     0.191 A 
ATOM      3  N   UNL d   1      14.943  14.897  -0.836  0.00  0.00    -0.042 NA
ATOM      4  N   UNL d   1      14.547  14.913  -2.094  0.00  0.00    -0.131 N 
ATOM      5  C   UNL d   1      14.833  15.650  -1.913  0.00  0.00     0.174 A 
ATOM      6  N   UNL d   1      14.318  13.690  -1.620  0.00  0.00    -0.138 N 
ATOM      7  N   UNL d   1      15.397  16.315  -0.790  0.00  0.00    -0.239 N 
ATOM      8  C   UNL d   1      15.472  17.012  -1.236  0.00  0.00     0.358 A 
ATOM      9  N   UNL d   1      15.226  17.022  -2.019  0.00  0.00    -0.152 NA
ATOM     10  C   UNL d   1      14.076  13.689  -2.380  0.00  0.00     0.100 A 
ATOM     11  C   UNL d   1      14.901  16.335  -2.369  0.00  0.00     0.303 A 
ATOM     12  C   UNL d   1      14.209  14.444  -2.698  0.00  0.00     0.116 A 
ATOM     13  O   UNL d   1      15.790  17.688  -0.896  0.00  0.00    -0.244 OA
ATOM     14  O   UNL d   1      14.658  16.345  -3.142  0.00  0.00    -0.263 OA
ATOM     15  C   UNL d   1      15.640  16.305  -0.019  0.00  0.00     0.105 C 
ENDROOT
BRANCH   6  16
ATOM     16  C   UNL d   1      14.287  13.051  -1.097  0.00  0.00     0.103 A 
ATOM     17  C   UNL d   1      14.904  12.500  -1.077  0.00  0.00     0.111 A 
ATOM     18  C   UNL d   1      14.871  11.876  -0.563  0.00  0.00     0.026 A 
ATOM     19  C   UNL d   1      14.231  11.779  -0.058  0.00  0.00     0.002 A 
ATOM     20  C   UNL d   1      13.614  12.331  -0.079  0.00  0.00     0.002 A 
ATOM     21  C   UNL d   1      13.645  12.969  -0.602  0.00  0.00     0.020 A 
BRANCH  17  22
ATOM     22  O   UNL d   1      15.624  12.335  -1.428  0.00  0.00    -0.327 OA
ATOM     23  C   UNL d   1      16.172  11.842  -1.058  0.00  0.00     0.181 C 
ENDBRANCH  17  22
ENDBRANCH   6  16
BRANCH  10  24
ATOM     24  C   UNL d   1      13.746  13.049  -2.793  0.00  0.00     0.018 A 
ATOM     25  C   UNL d   1      13.346  12.450  -2.389  0.00  0.00     0.002 A 
ATOM     26  C   UNL d   1      13.024  11.825  -2.795  0.00  0.00     0.000 A 
ATOM     27  C   UNL d   1      13.092  11.780  -3.621  0.00  0.00     0.000 A 
ATOM     28  C   UNL d   1      13.491  12.379  -4.025  0.00  0.00     0.000 A 
ATOM     29  C   UNL d   1      13.821  13.018  -3.612  0.00  0.00     0.002 A 
ENDBRANCH  10  24
TORSDOF 3
ENDMDL
