MODEL 1
REMARK VINA RESULT:      -0.3      0.000      0.000
REMARK  4 active torsions:
REMARK  status: ('A' for Active; 'I' for Inactive)
REMARK    1  A    between atoms: C_2  and  C_1 
REMARK       I    between atoms: N_7  and  C_1 
REMARK    2  A    between atoms: N_6  and  C_5 
REMARK    3  A    between atoms: C_12  and  N_7 
REMARK    4  A    between atoms: C_8  and  C_9 
ROOT
ATOM      1  C   UNL d   1     -41.482-121.633 -50.990  0.00  0.00     0.021 A 
ATOM      2  C   UNL d   1     -41.296-121.713 -52.404  0.00  0.00     0.085 A 
ATOM      3  C   UNL d   1     -41.477-122.076 -51.686  0.00  0.00     0.021 A 
ATOM      4  C   UNL d   1     -41.306-120.827 -51.012  0.00  0.00     0.002 A 
ATOM      5  C   UNL d   1     -41.127-120.471 -51.727  0.00  0.00     0.002 A 
ATOM      6  C   UNL d   1     -41.123-120.914 -52.423  0.00  0.00     0.019 A 
ENDROOT
BRANCH   1   7
ATOM      7  C   UNL d   1     -41.665-122.003 -50.266  0.00  0.00     0.103 A 
ATOM      8  N   UNL d   1     -42.356-122.433 -50.190  0.00  0.00    -0.147 NA
ATOM      9  N   UNL d   1     -42.534-122.798 -49.471  0.00  0.00    -0.130 NA
ATOM     10  C   UNL d   1     -42.014-122.728 -48.833  0.00  0.00     0.170 A 
ATOM     11  C   UNL d   1     -41.315-122.291 -48.917  0.00  0.00     0.041 A 
ATOM     12  C   UNL d   1     -41.145-121.933 -49.628  0.00  0.00     0.024 A 
BRANCH  10  13
ATOM     13  N   UNL d   1     -42.187-123.088 -48.120  0.00  0.00    -0.284 N 
ATOM     14  C   UNL d   1     -42.962-123.319 -47.954  0.00  0.00     0.108 A 
ATOM     15  C   UNL d   1     -43.140-123.682 -47.235  0.00  0.00     0.142 A 
ATOM     16  O   UNL d   1     -42.543-123.816 -46.682  0.00  0.00    -0.300 OA
ATOM     17  C   UNL d   1     -41.768-123.586 -46.847  0.00  0.00     0.142 A 
ATOM     18  C   UNL d   1     -41.590-123.222 -47.567  0.00  0.00     0.108 A 
ENDBRANCH  10  13
ENDBRANCH   1   7
BRANCH   2  19
ATOM     19  N   UNL d   1     -41.292-122.156 -53.100  0.00  0.00    -0.208 NA
ATOM     20  C   UNL d   1     -41.949-122.167 -53.587  0.00  0.00     0.280 C 
ATOM     21  O   UNL d   1     -42.619-121.733 -53.378  0.00  0.00    -0.265 OA
BRANCH  20  22
ATOM     22  C   UNL d   1     -41.945-122.608 -54.278  0.00  0.00     0.069 A 
ATOM     23  C   UNL d   1     -42.244-122.292 -54.971  0.00  0.00     0.062 A 
ATOM     24 CL   UNL d   1     -42.557-121.520 -54.975  0.00  0.00    -0.082 Cl
ATOM     25  C   UNL d   1     -42.240-122.736 -55.667  0.00  0.00     0.012 A 
ATOM     26  C   UNL d   1     -41.935-123.494 -55.670  0.00  0.00     0.001 A 
ATOM     27  C   UNL d   1     -41.632-123.817 -54.974  0.00  0.00     0.000 A 
ATOM     28  C   UNL d   1     -41.636-123.374 -54.278  0.00  0.00     0.006 A 
ENDBRANCH  20  22
ENDBRANCH   2  19
TORSDOF 4
ENDMDL
