MODEL 1
REMARK VINA RESULT:      -4.6      0.000      0.000
REMARK  5 active torsions:
REMARK  status: ('A' for Active; 'I' for Inactive)
REMARK       I    between atoms: N_2  and  C_1 
REMARK       I    between atoms: N_4  and  C_1 
REMARK    1  A    between atoms: C_8  and  N_2 
REMARK    2  A    between atoms: C_3  and  C_5 
REMARK    3  A    between atoms: O_11  and  C_3 
REMARK    4  A    between atoms: C_14  and  N_4 
REMARK    5  A    between atoms: C_15  and  N_4 
ROOT
ATOM      1  C   UNL d   1     -41.640-122.975 -50.336  0.00  0.00     0.063 A 
ATOM      2  C   UNL d   1     -41.426-123.019 -51.972  0.00  0.00     0.086 A 
ATOM      3  C   UNL d   1     -41.397-122.295 -50.741  0.00  0.00     0.007 A 
ATOM      4  C   UNL d   1     -41.775-123.671 -50.744  0.00  0.00     0.007 A 
ATOM      5  C   UNL d   1     -41.290-122.323 -51.564  0.00  0.00     0.019 A 
ATOM      6  C   UNL d   1     -41.669-123.695 -51.562  0.00  0.00     0.019 A 
ENDROOT
BRANCH   2   7
ATOM      7  N   UNL d   1     -41.320-123.045 -52.785  0.00  0.00    -0.192 NA
ATOM      8  C   UNL d   1     -41.800-122.578 -53.270  0.00  0.00     0.354 C 
ATOM      9  N   UNL d   1     -41.703-122.597 -54.081  0.00  0.00    -0.256 N 
ATOM     10  O   UNL d   1     -42.381-122.088 -52.936  0.00  0.00    -0.244 OA
BRANCH   9  11
ATOM     11  C   UNL d   1     -41.123-123.087 -54.410  0.00  0.00     0.085 C 
ATOM     12  C   UNL d   1     -41.341-123.717 -54.899  0.00  0.00     0.021 C 
ENDBRANCH   9  11
BRANCH   9  13
ATOM     13  C   UNL d   1     -42.186-122.128 -54.562  0.00  0.00     0.085 C 
ATOM     14  C   UNL d   1     -41.902-121.873 -55.295  0.00  0.00     0.021 C 
ENDBRANCH   9  13
ENDBRANCH   2   7
BRANCH   1  15
ATOM     15  C   UNL d   1     -41.747-122.955 -49.526  0.00  0.00     0.296 C 
ATOM     16  O   UNL d   1     -41.134-123.158 -49.023  0.00  0.00    -0.259 OA
BRANCH  15  17
ATOM     17  O   UNL d   1     -42.478-122.729 -49.215  0.00  0.00    -0.296 OA
ATOM     18  C   UNL d   1     -42.634-122.856 -48.422  0.00  0.00     0.185 C 
ENDBRANCH  15  17
ENDBRANCH   1  15
TORSDOF 5
ENDMDL
MODEL 2
REMARK VINA RESULT:      -3.8      1.225      1.847
REMARK  5 active torsions:
REMARK  status: ('A' for Active; 'I' for Inactive)
REMARK       I    between atoms: N_2  and  C_1 
REMARK       I    between atoms: N_4  and  C_1 
REMARK    1  A    between atoms: C_8  and  N_2 
REMARK    2  A    between atoms: C_3  and  C_5 
REMARK    3  A    between atoms: O_11  and  C_3 
REMARK    4  A    between atoms: C_14  and  N_4 
REMARK    5  A    between atoms: C_15  and  N_4 
ROOT
ATOM      1  C   UNL d   1     -42.047-123.266 -48.667  0.00  0.00     0.063 A 
ATOM      2  C   UNL d   1     -41.756-123.407 -50.285  0.00  0.00     0.086 A 
ATOM      3  C   UNL d   1     -42.525-122.866 -49.211  0.00  0.00     0.007 A 
ATOM      4  C   UNL d   1     -41.429-123.733 -48.928  0.00  0.00     0.007 A 
ATOM      5  C   UNL d   1     -42.375-122.940 -50.024  0.00  0.00     0.019 A 
ATOM      6  C   UNL d   1     -41.281-123.805 -49.737  0.00  0.00     0.019 A 
ENDROOT
BRANCH   2   7
ATOM      7  N   UNL d   1     -41.608-123.481 -51.089  0.00  0.00    -0.192 NA
ATOM      8  C   UNL d   1     -41.459-122.801 -51.536  0.00  0.00     0.354 C 
ATOM      9  N   UNL d   1     -41.310-122.864 -52.337  0.00  0.00    -0.256 N 
ATOM     10  O   UNL d   1     -41.461-122.055 -51.174  0.00  0.00    -0.244 OA
BRANCH   9  11
ATOM     11  C   UNL d   1     -41.309-123.611 -52.694  0.00  0.00     0.085 C 
ATOM     12  C   UNL d   1     -41.137-123.685 -53.499  0.00  0.00     0.021 C 
ENDBRANCH   9  11
BRANCH   9  13
ATOM     13  C   UNL d   1     -41.163-122.181 -52.780  0.00  0.00     0.085 C 
ATOM     14  C   UNL d   1     -41.627-122.020 -53.444  0.00  0.00     0.021 C 
ENDBRANCH   9  13
ENDBRANCH   2   7
BRANCH   1  15
ATOM     15  C   UNL d   1     -42.190-123.197 -47.865  0.00  0.00     0.296 C 
ATOM     16  O   UNL d   1     -41.808-122.622 -47.425  0.00  0.00    -0.259 OA
BRANCH  15  17
ATOM     17  O   UNL d   1     -42.722-123.712 -47.499  0.00  0.00    -0.296 OA
ATOM     18  C   UNL d   1     -42.857-123.644 -46.694  0.00  0.00     0.185 C 
ENDBRANCH  15  17
ENDBRANCH   1  15
TORSDOF 5
ENDMDL
