MODEL 1
REMARK VINA RESULT:      -3.4      0.000      0.000
REMARK  4 active torsions:
REMARK  status: ('A' for Active; 'I' for Inactive)
REMARK    1  A    between atoms: N_5  and  C_1 
REMARK    2  A    between atoms: N_8  and  C_3 
REMARK    3  A    between atoms: C_14  and  N_8 
REMARK    4  A    between atoms: C_16  and  C_14 
ROOT
ATOM      1  C   UNL d   1      58.188  -0.457  30.425  0.00  0.00     0.737 A 
ATOM      2  N   UNL d   1      58.245  -1.166  29.997  0.00  0.00    -0.041 NA
ATOM      3  C   UNL d   1      58.841  -1.262  29.426  0.00  0.00     0.182 A 
ATOM      4  N   UNL d   1      58.726   0.161  30.284  0.00  0.00    -0.060 NA
ATOM      5  C   UNL d   1      59.380  -0.648  29.283  0.00  0.00     0.055 A 
ATOM      6  C   UNL d   1      59.326   0.059  29.706  0.00  0.00     0.103 A 
ATOM      7  C   UNL d   1      59.975  -0.744  28.713  0.00  0.00     0.005 A 
ATOM      8  C   UNL d   1      59.867   0.681  29.565  0.00  0.00     0.020 A 
ATOM      9  C   UNL d   1      60.510  -0.136  28.570  0.00  0.00     0.000 A 
ATOM     10  C   UNL d   1      60.457   0.579  28.997  0.00  0.00     0.002 A 
ENDROOT
BRANCH   3  11
ATOM     11  N   UNL d   1      58.901  -1.999  28.982  0.00  0.00    -0.225 NA
BRANCH  11  12
ATOM     12  C   UNL d   1      58.450  -2.601  29.100  0.00  0.00     0.101 C 
BRANCH  12  13
ATOM     13  C   UNL d   1      58.686  -3.290  28.885  0.00  0.00     0.019 A 
ATOM     14  C   UNL d   1      58.172  -3.816  28.708  0.00  0.00     0.002 A 
ATOM     15  C   UNL d   1      58.395  -4.498  28.495  0.00  0.00     0.000 A 
ATOM     16  C   UNL d   1      59.141  -4.664  28.455  0.00  0.00     0.000 A 
ATOM     17  C   UNL d   1      59.647  -4.136  28.632  0.00  0.00     0.000 A 
ATOM     18  C   UNL d   1      59.425  -3.446  28.849  0.00  0.00     0.002 A 
ENDBRANCH  12  13
ENDBRANCH  11  12
ENDBRANCH   3  11
BRANCH   1  19
ATOM     19  N   UNL d   1      57.580  -0.355  31.009  0.00  0.00    -0.134 N 
ATOM     20  C   UNL d   1      57.250  -1.035  31.408  0.00  0.00     0.117 A 
ATOM     21  C   UNL d   1      56.638  -0.924  31.995  0.00  0.00     0.100 A 
ATOM     22  N   UNL d   1      56.358  -0.147  32.184  0.00  0.00    -0.299 N 
ATOM     23  C   UNL d   1      56.687   0.533  31.786  0.00  0.00     0.100 A 
ATOM     24  C   UNL d   1      55.747  -0.043  32.771  0.00  0.00     0.100 C 
ATOM     25  C   UNL d   1      57.297   0.435  31.199  0.00  0.00     0.117 A 
ENDBRANCH   1  19
TORSDOF 4
ENDMDL
