MODEL 1
REMARK VINA RESULT:      45.4      0.000      0.000
REMARK  8 active torsions:
REMARK  status: ('A' for Active; 'I' for Inactive)
REMARK    1  A    between atoms: C_6  and  C_1 
REMARK    2  A    between atoms: C_8  and  N_3 
REMARK    3  A    between atoms: C_7  and  C_6 
REMARK    4  A    between atoms: C_9  and  C_7 
REMARK    5  A    between atoms: C_14  and  C_8 
REMARK    6  A    between atoms: C_17  and  C_14 
REMARK    7  A    between atoms: C_15  and  C_16 
REMARK    8  A    between atoms: C_16  and  C_17 
ROOT
ATOM      1  C   UNL d   1      44.123 -16.731  38.613  0.00  0.00     0.148 A 
ATOM      2  N   UNL d   1      43.199 -16.611  38.620  0.00  0.00    -0.227 NA
ATOM      3  N   UNL d   1      44.445 -16.293  37.864  0.00  0.00    -0.289 N 
ATOM      4  C   UNL d   1      43.738 -15.908  37.409  0.00  0.00     0.083 A 
ATOM      5  C   UNL d   1      42.949 -16.109  37.888  0.00  0.00     0.099 A 
ATOM      6  C   UNL d   1      43.698 -15.402  36.628  0.00  0.00     0.019 A 
ATOM      7  C   UNL d   1      42.145 -15.798  37.571  0.00  0.00     0.021 A 
ATOM      8  C   UNL d   1      42.879 -15.103  36.333  0.00  0.00     0.002 A 
ATOM      9  C   UNL d   1      42.090 -15.304  36.812  0.00  0.00     0.002 A 
ENDROOT
BRANCH   1  10
ATOM     10  C   UNL d   1      44.803 -16.996  38.884  0.00  0.00     0.037 C 
BRANCH  10  11
ATOM     11  C   UNL d   1      44.919 -17.753  39.170  0.00  0.00     0.003 C 
BRANCH  11  12
ATOM     12  C   UNL d   1      45.365 -17.924  39.848  0.00  0.00     0.000 A 
ATOM     13  C   UNL d   1      45.009 -18.195  40.532  0.00  0.00     0.000 A 
ATOM     14  C   UNL d   1      45.454 -18.364  41.200  0.00  0.00     0.000 A 
ATOM     15  C   UNL d   1      46.280 -18.257  41.180  0.00  0.00     0.000 A 
ATOM     16  C   UNL d   1      46.636 -17.985  40.493  0.00  0.00     0.000 A 
ATOM     17  C   UNL d   1      46.190 -17.817  39.828  0.00  0.00     0.000 A 
ENDBRANCH  11  12
ENDBRANCH  10  11
ENDBRANCH   1  10
BRANCH   3  18
ATOM     18  C   UNL d   1      44.808 -15.941  37.237  0.00  0.00     0.082 C 
BRANCH  18  19
ATOM     19  C   UNL d   1      45.625 -15.906  37.202  0.00  0.00     0.019 C 
BRANCH  19  20
ATOM     20  C   UNL d   1      45.999 -15.540  36.575  0.00  0.00     0.002 C 
BRANCH  20  21
ATOM     21  C   UNL d   1      46.009 -14.718  36.509  0.00  0.00     0.000 C 
BRANCH  21  22
ATOM     22  C   UNL d   1      46.645 -14.277  36.787  0.00  0.00     0.000 C 
ATOM     23  C   UNL d   1      46.630 -13.452  36.776  0.00  0.00     0.000 C 
ENDBRANCH  21  22
ENDBRANCH  20  21
ENDBRANCH  19  20
ENDBRANCH  18  19
ENDBRANCH   3  18
TORSDOF 8
ENDMDL
MODEL 2
REMARK VINA RESULT:      45.5      2.405      5.705
REMARK  8 active torsions:
REMARK  status: ('A' for Active; 'I' for Inactive)
REMARK    1  A    between atoms: C_6  and  C_1 
REMARK    2  A    between atoms: C_8  and  N_3 
REMARK    3  A    between atoms: C_7  and  C_6 
REMARK    4  A    between atoms: C_9  and  C_7 
REMARK    5  A    between atoms: C_14  and  C_8 
REMARK    6  A    between atoms: C_17  and  C_14 
REMARK    7  A    between atoms: C_15  and  C_16 
REMARK    8  A    between atoms: C_16  and  C_17 
ROOT
ATOM      1  C   UNL d   1      46.144 -18.234  40.758  0.00  0.00     0.148 A 
ATOM      2  N   UNL d   1      46.110 -19.164  40.803  0.00  0.00    -0.227 NA
ATOM      3  N   UNL d   1      46.333 -17.930  41.611  0.00  0.00    -0.289 N 
ATOM      4  C   UNL d   1      46.416 -18.654  42.181  0.00  0.00     0.083 A 
ATOM      5  C   UNL d   1      46.275 -19.435  41.669  0.00  0.00     0.099 A 
ATOM      6  C   UNL d   1      46.601 -18.715  43.092  0.00  0.00     0.019 A 
ATOM      7  C   UNL d   1      46.323 -20.253  42.084  0.00  0.00     0.021 A 
ATOM      8  C   UNL d   1      46.642 -19.548  43.482  0.00  0.00     0.002 A 
ATOM      9  C   UNL d   1      46.501 -20.328  42.971  0.00  0.00     0.002 A 
ENDROOT
BRANCH   1  10
ATOM     10  C   UNL d   1      46.103 -17.542  40.403  0.00  0.00     0.037 C 
BRANCH  10  11
ATOM     11  C   UNL d   1      46.251 -17.425  39.608  0.00  0.00     0.003 C 
BRANCH  11  12
ATOM     12  C   UNL d   1      45.734 -17.026  39.098  0.00  0.00     0.000 A 
ATOM     13  C   UNL d   1      44.925 -17.133  39.146  0.00  0.00     0.000 A 
ATOM     14  C   UNL d   1      44.417 -16.735  38.639  0.00  0.00     0.000 A 
ATOM     15  C   UNL d   1      44.730 -16.216  38.068  0.00  0.00     0.000 A 
ATOM     16  C   UNL d   1      45.542 -16.110  38.021  0.00  0.00     0.000 A 
ATOM     17  C   UNL d   1      46.048 -16.507  38.527  0.00  0.00     0.000 A 
ENDBRANCH  11  12
ENDBRANCH  10  11
ENDBRANCH   1  10
BRANCH   3  18
ATOM     18  C   UNL d   1      46.494 -17.581  42.319  0.00  0.00     0.082 C 
BRANCH  18  19
ATOM     19  C   UNL d   1      45.903 -17.193  42.730  0.00  0.00     0.019 C 
BRANCH  19  20
ATOM     20  C   UNL d   1      46.068 -16.514  43.153  0.00  0.00     0.002 C 
BRANCH  20  21
ATOM     21  C   UNL d   1      45.497 -16.169  43.639  0.00  0.00     0.000 C 
BRANCH  21  22
ATOM     22  C   UNL d   1      45.702 -15.605  44.202  0.00  0.00     0.000 C 
ATOM     23  C   UNL d   1      45.124 -15.181  44.611  0.00  0.00     0.000 C 
ENDBRANCH  21  22
ENDBRANCH  20  21
ENDBRANCH  19  20
ENDBRANCH  18  19
ENDBRANCH   3  18
TORSDOF 8
ENDMDL
