MODEL 1
REMARK VINA RESULT:      -5.7      0.000      0.000
REMARK  1 active torsions:
REMARK  status: ('A' for Active; 'I' for Inactive)
REMARK    1  A    between atoms: C_7  and  C_1 
ROOT
ATOM      1  C   UNL d   1      57.598  -0.059  30.756  0.00  0.00     0.102 A 
ATOM      2  C   UNL d   1      57.509  -0.865  30.781  0.00  0.00     0.303 A 
ATOM      3  C   UNL d   1      57.208   0.417  31.312  0.00  0.00     0.011 A 
ATOM      4  O   UNL d   1      57.029  -1.211  31.361  0.00  0.00    -0.273 OA
ATOM      5  C   UNL d   1      56.642  -0.736  31.914  0.00  0.00     0.106 A 
ATOM      6  C   UNL d   1      56.730   0.071  31.890  0.00  0.00     0.023 A 
ATOM      7  C   UNL d   1      56.162  -1.082  32.494  0.00  0.00     0.067 A 
ATOM      8  O   UNL d   1      57.894  -1.340  30.231  0.00  0.00    -0.259 OA
ATOM      9  C   UNL d   1      56.341   0.546  32.445  0.00  0.00     0.005 A 
ATOM     10  C   UNL d   1      55.772  -0.606  33.050  0.00  0.00     0.198 A 
ATOM     11  C   UNL d   1      55.860   0.200  33.026  0.00  0.00     0.042 A 
ATOM     12  O   UNL d   1      55.277  -0.866  33.659  0.00  0.00    -0.286 OA
ENDROOT
BRANCH   1  13
ATOM     13  C   UNL d   1      58.073   0.288  30.182  0.00  0.00     0.201 C 
ATOM     14  O   UNL d   1      57.762   0.465  29.436  0.00  0.00    -0.286 OA
ATOM     15  C   UNL d   1      58.847   0.457  30.340  0.00  0.00     0.045 C 
ENDBRANCH   1  13
TORSDOF 1
ENDMDL
MODEL 2
REMARK VINA RESULT:      -5.7      0.682      3.096
REMARK  1 active torsions:
REMARK  status: ('A' for Active; 'I' for Inactive)
REMARK    1  A    between atoms: C_7  and  C_1 
ROOT
ATOM      1  C   UNL d   1      56.056  -0.306  32.781  0.00  0.00     0.102 A 
ATOM      2  C   UNL d   1      56.159  -1.086  32.579  0.00  0.00     0.303 A 
ATOM      3  C   UNL d   1      56.429   0.288  32.340  0.00  0.00     0.011 A 
ATOM      4  O   UNL d   1      56.637  -1.285  31.933  0.00  0.00    -0.273 OA
ATOM      5  C   UNL d   1      57.009  -0.692  31.494  0.00  0.00     0.106 A 
ATOM      6  C   UNL d   1      56.905   0.088  31.696  0.00  0.00     0.023 A 
ATOM      7  C   UNL d   1      57.487  -0.892  30.848  0.00  0.00     0.067 A 
ATOM      8  O   UNL d   1      55.790  -1.677  33.014  0.00  0.00    -0.259 OA
ATOM      9  C   UNL d   1      57.279   0.681  31.255  0.00  0.00     0.005 A 
ATOM     10  C   UNL d   1      57.861  -0.298  30.406  0.00  0.00     0.198 A 
ATOM     11  C   UNL d   1      57.757   0.482  30.608  0.00  0.00     0.042 A 
ATOM     12  O   UNL d   1      58.352  -0.406  29.750  0.00  0.00    -0.286 OA
ENDROOT
BRANCH   1  13
ATOM     13  C   UNL d   1      55.582  -0.105  33.422  0.00  0.00     0.201 C 
ATOM     14  O   UNL d   1      54.759  -0.074  33.337  0.00  0.00    -0.286 OA
ATOM     15  C   UNL d   1      55.914   0.064  34.138  0.00  0.00     0.045 C 
ENDBRANCH   1  13
TORSDOF 1
ENDMDL
MODEL 3
REMARK VINA RESULT:      -4.6      1.105      3.336
REMARK  1 active torsions:
REMARK  status: ('A' for Active; 'I' for Inactive)
REMARK    1  A    between atoms: C_7  and  C_1 
ROOT
ATOM      1  C   UNL d   1      56.479  -0.221  32.648  0.00  0.00     0.102 A 
ATOM      2  C   UNL d   1      56.965   0.314  33.017  0.00  0.00     0.303 A 
ATOM      3  C   UNL d   1      56.643  -0.464  31.874  0.00  0.00     0.011 A 
ATOM      4  O   UNL d   1      57.625   0.616  32.617  0.00  0.00    -0.273 OA
ATOM      5  C   UNL d   1      57.787   0.374  31.845  0.00  0.00     0.106 A 
ATOM      6  C   UNL d   1      57.301  -0.162  31.476  0.00  0.00     0.023 A 
ATOM      7  C   UNL d   1      58.447   0.676  31.445  0.00  0.00     0.067 A 
ATOM      8  O   UNL d   1      56.805   0.557  33.786  0.00  0.00    -0.259 OA
ATOM      9  C   UNL d   1      57.465  -0.405  30.702  0.00  0.00     0.005 A 
ATOM     10  C   UNL d   1      58.612   0.433  30.669  0.00  0.00     0.198 A 
ATOM     11  C   UNL d   1      58.125  -0.103  30.301  0.00  0.00     0.042 A 
ATOM     12  O   UNL d   1      59.245   0.682  30.199  0.00  0.00    -0.286 OA
ENDROOT
BRANCH   1  13
ATOM     13  C   UNL d   1      55.823  -0.523  33.043  0.00  0.00     0.201 C 
ATOM     14  O   UNL d   1      55.170  -0.038  33.196  0.00  0.00    -0.286 OA
ATOM     15  C   UNL d   1      55.810  -1.294  33.284  0.00  0.00     0.045 C 
ENDBRANCH   1  13
TORSDOF 1
ENDMDL
MODEL 4
REMARK VINA RESULT:      -3.7      1.100      1.820
REMARK  1 active torsions:
REMARK  status: ('A' for Active; 'I' for Inactive)
REMARK    1  A    between atoms: C_7  and  C_1 
ROOT
ATOM      1  C   UNL d   1      58.317  -0.548  29.835  0.00  0.00     0.102 A 
ATOM      2  C   UNL d   1      58.330   0.264  29.843  0.00  0.00     0.303 A 
ATOM      3  C   UNL d   1      57.877  -0.960  30.403  0.00  0.00     0.011 A 
ATOM      4  O   UNL d   1      57.904   0.678  30.420  0.00  0.00    -0.273 OA
ATOM      5  C   UNL d   1      57.466   0.266  30.987  0.00  0.00     0.106 A 
ATOM      6  C   UNL d   1      57.453  -0.546  30.978  0.00  0.00     0.023 A 
ATOM      7  C   UNL d   1      57.040   0.680  31.564  0.00  0.00     0.067 A 
ATOM      8  O   UNL d   1      58.765   0.676  29.280  0.00  0.00    -0.259 OA
ATOM      9  C   UNL d   1      57.014  -0.958  31.547  0.00  0.00     0.005 A 
ATOM     10  C   UNL d   1      56.601   0.268  32.134  0.00  0.00     0.198 A 
ATOM     11  C   UNL d   1      56.588  -0.544  32.125  0.00  0.00     0.042 A 
ATOM     12  O   UNL d   1      56.149   0.599  32.742  0.00  0.00    -0.286 OA
ENDROOT
BRANCH   1  13
ATOM     13  C   UNL d   1      58.738  -0.962  29.263  0.00  0.00     0.201 C 
ATOM     14  O   UNL d   1      58.366  -1.201  28.563  0.00  0.00    -0.286 OA
ATOM     15  C   UNL d   1      59.518  -1.139  29.378  0.00  0.00     0.045 C 
ENDBRANCH   1  13
TORSDOF 1
ENDMDL
MODEL 5
REMARK VINA RESULT:      -3.3      1.280      3.483
REMARK  1 active torsions:
REMARK  status: ('A' for Active; 'I' for Inactive)
REMARK    1  A    between atoms: C_7  and  C_1 
ROOT
ATOM      1  C   UNL d   1      57.230   0.198  31.807  0.00  0.00     0.102 A 
ATOM      2  C   UNL d   1      57.878   0.488  32.202  0.00  0.00     0.303 A 
ATOM      3  C   UNL d   1      57.269   0.065  30.991  0.00  0.00     0.011 A 
ATOM      4  O   UNL d   1      58.576   0.649  31.786  0.00  0.00    -0.273 OA
ATOM      5  C   UNL d   1      58.614   0.515  30.972  0.00  0.00     0.106 A 
ATOM      6  C   UNL d   1      57.966   0.226  30.578  0.00  0.00     0.023 A 
ATOM      7  C   UNL d   1      59.312   0.676  30.557  0.00  0.00     0.067 A 
ATOM      8  O   UNL d   1      57.842   0.621  33.012  0.00  0.00    -0.259 OA
ATOM      9  C   UNL d   1      58.005   0.093  29.761  0.00  0.00     0.005 A 
ATOM     10  C   UNL d   1      59.352   0.543  29.740  0.00  0.00     0.198 A 
ATOM     11  C   UNL d   1      58.703   0.254  29.345  0.00  0.00     0.042 A 
ATOM     12  O   UNL d   1      60.004   0.675  29.250  0.00  0.00    -0.286 OA
ENDROOT
BRANCH   1  13
ATOM     13  C   UNL d   1      56.535   0.038  32.216  0.00  0.00     0.201 C 
ATOM     14  O   UNL d   1      56.370  -0.733  32.469  0.00  0.00    -0.286 OA
ATOM     15  C   UNL d   1      56.008   0.629  32.375  0.00  0.00     0.045 C 
ENDBRANCH   1  13
TORSDOF 1
ENDMDL
