MODEL 1
REMARK VINA RESULT:       6.3      0.000      0.000
REMARK  2 active torsions:
REMARK  status: ('A' for Active; 'I' for Inactive)
REMARK    1  A    between atoms: CA_2  and  C_1 
REMARK    2  A    between atoms: C_3  and  CA_2 
ROOT
ATOM      1  C   UNL d   1      13.865  11.980  -1.626  0.00  0.00     0.025 A 
ATOM      2  C   UNL d   1      14.407  12.163  -2.228  0.00  0.00     0.003 A 
ATOM      3  C   UNL d   1      13.078  11.788  -1.820  0.00  0.00     0.003 A 
ATOM      4  C   UNL d   1      13.380  11.963  -3.210  0.00  0.00     0.058 A 
ATOM      5  C   UNL d   1      14.159  12.153  -3.017  0.00  0.00     0.011 A 
ATOM      6  C   UNL d   1      12.841  11.781  -2.616  0.00  0.00     0.011 A 
ATOM      7 CL   UNL d   1      13.141  11.955  -3.998  0.00  0.00    -0.082 Cl
ENDROOT
BRANCH   1   8
ATOM      8  CA  UNL d   1      14.105  11.988  -0.837  0.00  0.00     0.167 C 
ATOM      9  N   UNL d   1      13.577  11.781  -0.240  0.00  0.00    -0.142 N 
BRANCH   8  10
ATOM     10  C   UNL d   1      14.879  12.205  -0.651  0.00  0.00     0.231 C 
ATOM     11  O   UNL d   1      15.518  11.820  -0.999  0.00  0.00    -0.643 OA
ATOM     12  OXT UNL d   1      15.015  12.815  -0.111  0.00  0.00    -0.643 OA
ENDBRANCH   8  10
ENDBRANCH   1   8
TORSDOF 2
ENDMDL
