MODEL 1
REMARK VINA RESULT:      -3.6      0.000      0.000
REMARK  0 active torsions:
REMARK  status: ('A' for Active; 'I' for Inactive)
ROOT
ATOM      1  C   UNL d   1      31.153  16.240 -23.641  0.00  0.00     0.166 A 
ATOM      2  C   UNL d   1      30.983  16.957 -24.016  0.00  0.00     0.117 A 
ATOM      3  N   UNL d   1      31.979  16.158 -23.590  0.00  0.00    -0.288 N 
ATOM      4  C   UNL d   1      31.703  17.322 -24.197  0.00  0.00     0.037 A 
ATOM      5  N   UNL d   1      30.548  15.737 -23.386  0.00  0.00    -0.225 NA
ATOM      6  C   UNL d   1      32.301  16.826 -23.934  0.00  0.00     0.067 A 
ATOM      7  N   UNL d   1      30.202  17.173 -24.135  0.00  0.00    -0.241 NA
ATOM      8  C   UNL d   1      29.766  15.953 -23.507  0.00  0.00     0.101 A 
ATOM      9  C   UNL d   1      29.594  16.675 -23.883  0.00  0.00     0.099 A 
ATOM     10  C   UNL d   1      33.098  17.061 -24.048  0.00  0.00     0.018 A 
ATOM     11  C   UNL d   1      31.868  18.052 -24.574  0.00  0.00     0.003 A 
ATOM     12  C   UNL d   1      32.677  15.761 -23.377  0.00  0.00     0.101 C 
ATOM     13  C   UNL d   1      32.640  18.270 -24.680  0.00  0.00     0.000 A 
ATOM     14  C   UNL d   1      33.236  17.784 -24.421  0.00  0.00     0.002 A 
ATOM     15  C   UNL d   1      28.830  16.864 -23.989  0.00  0.00     0.021 A 
ATOM     16  C   UNL d   1      29.158  15.454 -23.254  0.00  0.00     0.021 A 
ATOM     17  C   UNL d   1      32.873  18.931 -25.021  0.00  0.00     0.000 C 
ATOM     18  C   UNL d   1      28.210  16.385 -23.747  0.00  0.00     0.002 A 
ATOM     19  C   UNL d   1      28.380  15.669 -23.373  0.00  0.00     0.002 A 
ENDROOT
TORSDOF 0
ENDMDL
MODEL 2
REMARK VINA RESULT:      -3.3      4.791      6.144
REMARK  0 active torsions:
REMARK  status: ('A' for Active; 'I' for Inactive)
ROOT
ATOM      1  C   UNL d   1      33.205  21.591 -22.327  0.00  0.00     0.166 A 
ATOM      2  C   UNL d   1      33.191  21.329 -21.543  0.00  0.00     0.117 A 
ATOM      3  N   UNL d   1      33.201  22.422 -22.328  0.00  0.00    -0.288 N 
ATOM      4  C   UNL d   1      33.177  21.998 -21.056  0.00  0.00     0.037 A 
ATOM      5  N   UNL d   1      33.222  21.054 -22.957  0.00  0.00    -0.225 NA
ATOM      6  C   UNL d   1      33.183  22.656 -21.544  0.00  0.00     0.067 A 
ATOM      7  N   UNL d   1      33.192  20.525 -21.388  0.00  0.00    -0.241 NA
ATOM      8  C   UNL d   1      33.223  20.249 -22.801  0.00  0.00     0.101 A 
ATOM      9  C   UNL d   1      33.208  19.985 -22.012  0.00  0.00     0.099 A 
ATOM     10  C   UNL d   1      33.171  23.418 -21.194  0.00  0.00     0.018 A 
ATOM     11  C   UNL d   1      33.159  22.067 -20.221  0.00  0.00     0.003 A 
ATOM     12  C   UNL d   1      33.204  23.168 -22.695  0.00  0.00     0.101 C 
ATOM     13  C   UNL d   1      33.148  22.806 -19.892  0.00  0.00     0.000 A 
ATOM     14  C   UNL d   1      33.154  23.462 -20.370  0.00  0.00     0.002 A 
ATOM     15  C   UNL d   1      33.210  19.202 -21.884  0.00  0.00     0.021 A 
ATOM     16  C   UNL d   1      33.239  19.709 -23.426  0.00  0.00     0.021 A 
ATOM     17  C   UNL d   1      33.131  22.952 -19.127  0.00  0.00     0.000 C 
ATOM     18  C   UNL d   1      33.226  18.647 -22.489  0.00  0.00     0.002 A 
ATOM     19  C   UNL d   1      33.241  18.908 -23.271  0.00  0.00     0.002 A 
ENDROOT
TORSDOF 0
ENDMDL
MODEL 3
REMARK VINA RESULT:      -3.2      3.086      4.793
REMARK  0 active torsions:
REMARK  status: ('A' for Active; 'I' for Inactive)
ROOT
ATOM      1  C   UNL d   1      33.234  19.930 -23.227  0.00  0.00     0.166 A 
ATOM      2  C   UNL d   1      33.226  19.310 -22.679  0.00  0.00     0.117 A 
ATOM      3  N   UNL d   1      33.236  19.605 -23.992  0.00  0.00    -0.288 N 
ATOM      4  C   UNL d   1      33.223  18.601 -23.104  0.00  0.00     0.037 A 
ATOM      5  N   UNL d   1      33.239  20.719 -22.979  0.00  0.00    -0.225 NA
ATOM      6  C   UNL d   1      33.229  18.793 -23.901  0.00  0.00     0.067 A 
ATOM      7  N   UNL d   1      33.223  19.482 -21.878  0.00  0.00    -0.241 NA
ATOM      8  C   UNL d   1      33.236  20.891 -22.177  0.00  0.00     0.101 A 
ATOM      9  C   UNL d   1      33.228  20.268 -21.625  0.00  0.00     0.099 A 
ATOM     10  C   UNL d   1      33.227  18.173 -24.464  0.00  0.00     0.018 A 
ATOM     11  C   UNL d   1      33.215  17.805 -22.841  0.00  0.00     0.003 A 
ATOM     12  C   UNL d   1      33.241  19.652 -24.821  0.00  0.00     0.101 C 
ATOM     13  C   UNL d   1      33.213  17.213 -23.392  0.00  0.00     0.000 A 
ATOM     14  C   UNL d   1      33.219  17.397 -24.183  0.00  0.00     0.002 A 
ATOM     15  C   UNL d   1      33.225  20.457 -20.854  0.00  0.00     0.021 A 
ATOM     16  C   UNL d   1      33.241  21.678 -21.924  0.00  0.00     0.021 A 
ATOM     17  C   UNL d   1      33.206  16.451 -23.228  0.00  0.00     0.000 C 
ATOM     18  C   UNL d   1      33.230  21.230 -20.580  0.00  0.00     0.002 A 
ATOM     19  C   UNL d   1      33.238  21.849 -21.127  0.00  0.00     0.002 A 
ENDROOT
TORSDOF 0
ENDMDL
MODEL 4
REMARK VINA RESULT:      -3.1      3.838      5.135
REMARK  0 active torsions:
REMARK  status: ('A' for Active; 'I' for Inactive)
ROOT
ATOM      1  C   UNL d   1      33.235  20.180 -21.823  0.00  0.00     0.166 A 
ATOM      2  C   UNL d   1      33.235  20.676 -22.485  0.00  0.00     0.117 A 
ATOM      3  N   UNL d   1      33.237  20.652 -21.139  0.00  0.00    -0.288 N 
ATOM      4  C   UNL d   1      33.237  21.457 -22.212  0.00  0.00     0.037 A 
ATOM      5  N   UNL d   1      33.233  19.357 -21.907  0.00  0.00    -0.225 NA
ATOM      6  C   UNL d   1      33.238  21.430 -21.392  0.00  0.00     0.067 A 
ATOM      7  N   UNL d   1      33.233  20.347 -23.235  0.00  0.00    -0.241 NA
ATOM      8  C   UNL d   1      33.232  19.027 -22.658  0.00  0.00     0.101 A 
ATOM      9  C   UNL d   1      33.232  19.526 -23.324  0.00  0.00     0.099 A 
ATOM     10  C   UNL d   1      33.240  22.151 -20.965  0.00  0.00     0.018 A 
ATOM     11  C   UNL d   1      33.238  22.184 -22.630  0.00  0.00     0.003 A 
ATOM     12  C   UNL d   1      33.239  20.774 -20.317  0.00  0.00     0.101 C 
ATOM     13  C   UNL d   1      33.240  22.875 -22.209  0.00  0.00     0.000 A 
ATOM     14  C   UNL d   1      33.241  22.854 -21.398  0.00  0.00     0.002 A 
ATOM     15  C   UNL d   1      33.230  19.186 -24.041  0.00  0.00     0.021 A 
ATOM     16  C   UNL d   1      33.230  18.206 -22.746  0.00  0.00     0.021 A 
ATOM     17  C   UNL d   1      33.241  23.588 -22.524  0.00  0.00     0.000 C 
ATOM     18  C   UNL d   1      33.228  18.373 -24.153  0.00  0.00     0.002 A 
ATOM     19  C   UNL d   1      33.228  17.877 -23.493  0.00  0.00     0.002 A 
ENDROOT
TORSDOF 0
ENDMDL
MODEL 5
REMARK VINA RESULT:      -3.0      5.054      6.535
REMARK  0 active torsions:
REMARK  status: ('A' for Active; 'I' for Inactive)
ROOT
ATOM      1  C   UNL d   1      33.239  22.077 -21.873  0.00  0.00     0.166 A 
ATOM      2  C   UNL d   1      33.237  21.384 -21.421  0.00  0.00     0.117 A 
ATOM      3  N   UNL d   1      33.239  21.868 -22.677  0.00  0.00    -0.288 N 
ATOM      4  C   UNL d   1      33.236  20.744 -21.945  0.00  0.00     0.037 A 
ATOM      5  N   UNL d   1      33.240  22.822 -21.512  0.00  0.00    -0.225 NA
ATOM      6  C   UNL d   1      33.238  21.050 -22.706  0.00  0.00     0.067 A 
ATOM      7  N   UNL d   1      33.237  21.437 -20.604  0.00  0.00    -0.241 NA
ATOM      8  C   UNL d   1      33.240  22.875 -20.694  0.00  0.00     0.101 A 
ATOM      9  C   UNL d   1      33.238  22.178 -20.239  0.00  0.00     0.099 A 
ATOM     10  C   UNL d   1      33.237  20.519 -23.354  0.00  0.00     0.018 A 
ATOM     11  C   UNL d   1      33.235  19.918 -21.801  0.00  0.00     0.003 A 
ATOM     12  C   UNL d   1      33.240  22.035 -23.491  0.00  0.00     0.101 C 
ATOM     13  C   UNL d   1      33.234  19.413 -22.433  0.00  0.00     0.000 A 
ATOM     14  C   UNL d   1      33.236  19.711 -23.188  0.00  0.00     0.002 A 
ATOM     15  C   UNL d   1      33.237  22.252 -19.449  0.00  0.00     0.021 A 
ATOM     16  C   UNL d   1      33.241  23.616 -20.329  0.00  0.00     0.021 A 
ATOM     17  C   UNL d   1      33.233  18.636 -22.382  0.00  0.00     0.000 C 
ATOM     18  C   UNL d   1      33.238  22.977 -19.065  0.00  0.00     0.002 A 
ATOM     19  C   UNL d   1      33.240  23.669 -19.515  0.00  0.00     0.002 A 
ENDROOT
TORSDOF 0
ENDMDL
MODEL 6
REMARK VINA RESULT:      -2.8      0.795      3.860
REMARK  0 active torsions:
REMARK  status: ('A' for Active; 'I' for Inactive)
ROOT
ATOM      1  C   UNL d   1      30.424  17.262 -24.587  0.00  0.00     0.166 A 
ATOM      2  C   UNL d   1      30.399  16.608 -24.082  0.00  0.00     0.117 A 
ATOM      3  N   UNL d   1      29.652  17.557 -24.677  0.00  0.00    -0.288 N 
ATOM      4  C   UNL d   1      29.611  16.496 -23.857  0.00  0.00     0.037 A 
ATOM      5  N   UNL d   1      31.139  17.522 -24.913  0.00  0.00    -0.225 NA
ATOM      6  C   UNL d   1      29.166  17.079 -24.225  0.00  0.00     0.067 A 
ATOM      7  N   UNL d   1      31.093  16.212 -23.902  0.00  0.00    -0.241 NA
ATOM      8  C   UNL d   1      31.834  17.126 -24.733  0.00  0.00     0.101 A 
ATOM      9  C   UNL d   1      31.809  16.468 -24.224  0.00  0.00     0.099 A 
ATOM     10  C   UNL d   1      28.339  17.098 -24.093  0.00  0.00     0.018 A 
ATOM     11  C   UNL d   1      29.260  15.923 -23.356  0.00  0.00     0.003 A 
ATOM     12  C   UNL d   1      29.085  18.083 -24.979  0.00  0.00     0.101 C 
ATOM     13  C   UNL d   1      28.461  15.949 -23.234  0.00  0.00     0.000 A 
ATOM     14  C   UNL d   1      28.016  16.524 -23.596  0.00  0.00     0.002 A 
ATOM     15  C   UNL d   1      32.493  16.099 -24.063  0.00  0.00     0.021 A 
ATOM     16  C   UNL d   1      32.550  17.382 -25.056  0.00  0.00     0.021 A 
ATOM     17  C   UNL d   1      28.063  15.453 -22.784  0.00  0.00     0.000 C 
ATOM     18  C   UNL d   1      33.215  16.335 -24.372  0.00  0.00     0.002 A 
ATOM     19  C   UNL d   1      33.241  16.988 -24.876  0.00  0.00     0.002 A 
ENDROOT
TORSDOF 0
ENDMDL
MODEL 7
REMARK VINA RESULT:      -2.5      6.771      7.773
REMARK  0 active torsions:
REMARK  status: ('A' for Active; 'I' for Inactive)
ROOT
ATOM      1  C   UNL d   1      32.310  23.078 -19.827  0.00  0.00     0.166 A 
ATOM      2  C   UNL d   1      32.684  22.340 -19.794  0.00  0.00     0.117 A 
ATOM      3  N   UNL d   1      32.107  23.235 -20.618  0.00  0.00    -0.288 N 
ATOM      4  C   UNL d   1      32.713  22.040 -20.565  0.00  0.00     0.037 A 
ATOM      5  N   UNL d   1      32.193  23.528 -19.143  0.00  0.00    -0.225 NA
ATOM      6  C   UNL d   1      32.359  22.593 -21.056  0.00  0.00     0.067 A 
ATOM      7  N   UNL d   1      32.942  22.052 -19.072  0.00  0.00    -0.241 NA
ATOM      8  C   UNL d   1      32.451  23.239 -18.420  0.00  0.00     0.101 A 
ATOM      9  C   UNL d   1      32.827  22.498 -18.387  0.00  0.00     0.099 A 
ATOM     10  C   UNL d   1      32.311  22.430 -21.877  0.00  0.00     0.018 A 
ATOM     11  C   UNL d   1      33.025  21.321 -20.861  0.00  0.00     0.003 A 
ATOM     12  C   UNL d   1      31.780  23.698 -21.226  0.00  0.00     0.101 C 
ATOM     13  C   UNL d   1      32.975  21.172 -21.654  0.00  0.00     0.000 A 
ATOM     14  C   UNL d   1      32.626  21.715 -22.146  0.00  0.00     0.002 A 
ATOM     15  C   UNL d   1      33.069  22.237 -17.677  0.00  0.00     0.021 A 
ATOM     16  C   UNL d   1      32.337  23.686 -17.735  0.00  0.00     0.021 A 
ATOM     17  C   UNL d   1      33.241  20.529 -22.004  0.00  0.00     0.000 C 
ATOM     18  C   UNL d   1      32.966  22.663 -16.983  0.00  0.00     0.002 A 
ATOM     19  C   UNL d   1      32.593  23.399 -17.015  0.00  0.00     0.002 A 
ENDROOT
TORSDOF 0
ENDMDL
MODEL 8
REMARK VINA RESULT:      -2.0      2.407      3.158
REMARK  0 active torsions:
REMARK  status: ('A' for Active; 'I' for Inactive)
ROOT
ATOM      1  C   UNL d   1      32.912  18.262 -23.173  0.00  0.00     0.166 A 
ATOM      2  C   UNL d   1      32.899  18.488 -23.969  0.00  0.00     0.117 A 
ATOM      3  N   UNL d   1      33.030  18.941 -22.708  0.00  0.00    -0.288 N 
ATOM      4  C   UNL d   1      33.010  19.308 -23.998  0.00  0.00     0.037 A 
ATOM      5  N   UNL d   1      32.815  17.471 -22.953  0.00  0.00    -0.225 NA
ATOM      6  C   UNL d   1      33.088  19.572 -23.225  0.00  0.00     0.067 A 
ATOM      7  N   UNL d   1      32.790  17.919 -24.547  0.00  0.00    -0.241 NA
ATOM      8  C   UNL d   1      32.706  16.900 -23.532  0.00  0.00     0.101 A 
ATOM      9  C   UNL d   1      32.693  17.127 -24.332  0.00  0.00     0.099 A 
ATOM     10  C   UNL d   1      33.208  20.390 -23.089  0.00  0.00     0.018 A 
ATOM     11  C   UNL d   1      33.047  19.833 -24.650  0.00  0.00     0.003 A 
ATOM     12  C   UNL d   1      33.125  19.344 -21.987  0.00  0.00     0.101 C 
ATOM     13  C   UNL d   1      33.162  20.621 -24.509  0.00  0.00     0.000 A 
ATOM     14  C   UNL d   1      33.240  20.888 -23.747  0.00  0.00     0.002 A 
ATOM     15  C   UNL d   1      32.586  16.559 -24.876  0.00  0.00     0.021 A 
ATOM     16  C   UNL d   1      32.609  16.109 -23.316  0.00  0.00     0.021 A 
ATOM     17  C   UNL d   1      33.207  21.170 -25.060  0.00  0.00     0.000 C 
ATOM     18  C   UNL d   1      32.488  15.767 -24.686  0.00  0.00     0.002 A 
ATOM     19  C   UNL d   1      32.500  15.541 -23.892  0.00  0.00     0.002 A 
ENDROOT
TORSDOF 0
ENDMDL
