MODEL 1
REMARK VINA RESULT:      25.9      0.000      0.000
REMARK  4 active torsions:
REMARK  status: ('A' for Active; 'I' for Inactive)
REMARK    1  A    between atoms: C_2  and  N_1 
REMARK       I    between atoms: C_3  and  N_1 
REMARK    2  A    between atoms: N_5  and  C_2 
REMARK    3  A    between atoms: C_4  and  C_3 
REMARK    4  A    between atoms: C_7  and  N_5 
ROOT
ATOM      1  C   UNL d   1      58.683  49.609  50.606  0.00  0.00     0.224 C 
ATOM      2  S   UNL d   1      58.849  49.557  49.798  0.00  0.00    -0.037 SA
ENDROOT
BRANCH   1   3
ATOM      3  N   UNL d   1      59.297  49.687  51.151  0.00  0.00    -0.177 NA
ATOM      4  C   UNL d   1      60.071  49.494  50.938  0.00  0.00     0.304 C 
ATOM      5  O   UNL d   1      60.227  49.222  50.174  0.00  0.00    -0.263 OA
BRANCH   4   6
ATOM      6  C   UNL d   1      60.686  49.571  51.483  0.00  0.00     0.158 A 
ATOM      7  O   UNL d   1      60.596  49.591  52.308  0.00  0.00    -0.300 OA
ATOM      8  C   UNL d   1      61.358  49.675  52.631  0.00  0.00     0.123 A 
ATOM      9  C   UNL d   1      61.901  49.706  52.011  0.00  0.00     0.029 A 
ATOM     10  C   UNL d   1      61.485  49.641  51.302  0.00  0.00     0.032 A 
ENDBRANCH   4   6
ENDBRANCH   1   3
BRANCH   1  11
ATOM     11  N   UNL d   1      57.894  49.583  50.864  0.00  0.00    -0.215 NA
BRANCH  11  12
ATOM     12  C   UNL d   1      57.290  49.373  50.342  0.00  0.00     0.112 A 
ATOM     13  C   UNL d   1      56.706  48.825  50.577  0.00  0.00     0.156 A 
ATOM     14  N   UNL d   1      56.102  48.616  50.055  0.00  0.00    -0.231 NA
ATOM     15 CL   UNL d   1      56.735  48.492  51.339  0.00  0.00    -0.060 Cl
ATOM     16  C   UNL d   1      56.077  48.949  49.301  0.00  0.00     0.100 A 
ATOM     17  C   UNL d   1      56.656  49.491  49.068  0.00  0.00     0.022 A 
ATOM     18  C   UNL d   1      57.265  49.706  49.587  0.00  0.00     0.023 A 
ENDBRANCH  11  12
ENDBRANCH   1  11
TORSDOF 4
ENDMDL
