MODEL 1
REMARK VINA RESULT:      -1.2      0.000      0.000
REMARK  9 active torsions:
REMARK  status: ('A' for Active; 'I' for Inactive)
REMARK    1  A    between atoms: C_10  and  N_1 
REMARK    2  A    between atoms: S_13  and  C_2 
REMARK    3  A    between atoms: C_6  and  N_11 
REMARK    4  A    between atoms: C_24  and  C_10 
REMARK       I    between atoms: N_11  and  C_15 
REMARK    5  A    between atoms: C_21  and  S_13 
REMARK    6  A    between atoms: C_15  and  C_21 
REMARK    7  A    between atoms: O_27  and  C_17 
REMARK    8  A    between atoms: O_28  and  C_18 
REMARK    9  A    between atoms: C_23  and  C_24 
ROOT
ATOM      1  N   UNL d   1      58.465  -0.569  30.488  0.00  0.00    -0.253 N 
ATOM      2  C   UNL d   1      58.592  -1.039  29.834  0.00  0.00     0.182 A 
ATOM      3  C   UNL d   1      59.036  -0.012  30.725  0.00  0.00     0.268 A 
ATOM      4  N   UNL d   1      59.294  -0.966  29.399  0.00  0.00    -0.222 NA
ATOM      5  C   UNL d   1      59.736   0.056  30.285  0.00  0.00     0.074 A 
ATOM      6  C   UNL d   1      59.863  -0.415  29.631  0.00  0.00     0.088 A 
ATOM      7  O   UNL d   1      58.910   0.457  31.378  0.00  0.00    -0.267 OA
ATOM      8  C   UNL d   1      60.311   0.614  30.522  0.00  0.00     0.006 A 
ATOM      9  C   UNL d   1      60.569  -0.340  29.195  0.00  0.00     0.019 A 
ATOM     10  C   UNL d   1      61.006   0.680  30.083  0.00  0.00     0.000 A 
ATOM     11  C   UNL d   1      61.133   0.209  29.429  0.00  0.00     0.002 A 
ENDROOT
BRANCH   1  12
ATOM     12  C   UNL d   1      57.757  -0.641  30.929  0.00  0.00     0.085 C 
BRANCH  12  13
ATOM     13  C   UNL d   1      57.369   0.033  31.207  0.00  0.00     0.019 C 
BRANCH  13  14
ATOM     14  C   UNL d   1      56.767  -0.039  31.768  0.00  0.00     0.004 A 
ATOM     15  C   UNL d   1      56.447  -0.781  31.938  0.00  0.00     0.026 A 
ATOM     16  C   UNL d   1      55.851  -0.857  32.492  0.00  0.00     0.116 A 
ATOM     17  C   UNL d   1      55.565  -0.183  32.888  0.00  0.00     0.116 A 
ATOM     18  C   UNL d   1      55.893   0.561  32.711  0.00  0.00     0.026 A 
ATOM     19  C   UNL d   1      56.492   0.628  32.152  0.00  0.00     0.002 A 
BRANCH  16  20
ATOM     20  O   UNL d   1      55.533  -1.595  32.661  0.00  0.00    -0.326 OA
ATOM     21  C   UNL d   1      55.846  -2.049  33.262  0.00  0.00     0.181 C 
ENDBRANCH  16  20
BRANCH  17  22
ATOM     22  O   UNL d   1      54.973  -0.250  33.440  0.00  0.00    -0.326 OA
ATOM     23  C   UNL d   1      54.601   0.420  33.749  0.00  0.00     0.181 C 
ENDBRANCH  17  22
ENDBRANCH  13  14
ENDBRANCH  12  13
ENDBRANCH   1  12
BRANCH   2  24
ATOM     24  S   UNL d   1      58.016  -1.600  29.595  0.00  0.00    -0.044 SA
BRANCH  24  25
ATOM     25  C   UNL d   1      58.037  -1.927  28.834  0.00  0.00     0.101 C 
BRANCH  25  26
ATOM     26  C   UNL d   1      58.254  -2.715  28.735  0.00  0.00     0.287 C 
ATOM     27  N   UNL d   1      59.039  -2.931  28.753  0.00  0.00    -0.186 NA
ATOM     28  O   UNL d   1      57.671  -3.287  28.617  0.00  0.00    -0.265 OA
BRANCH  27  29
ATOM     29  C   UNL d   1      59.255  -3.717  28.654  0.00  0.00     0.194 A 
ATOM     30  N   UNL d   1      58.743  -4.363  28.564  0.00  0.00    -0.107 NA
ATOM     31  O   UNL d   1      59.193  -5.045  28.482  0.00  0.00    -0.210 OA
ATOM     32  C   UNL d   1      59.991  -4.835  28.519  0.00  0.00     0.128 A 
ATOM     33  C   UNL d   1      60.028  -4.018  28.626  0.00  0.00     0.068 A 
ATOM     34  C   UNL d   1      60.625  -5.349  28.462  0.00  0.00     0.029 C 
ENDBRANCH  27  29
ENDBRANCH  25  26
ENDBRANCH  24  25
ENDBRANCH   2  24
TORSDOF 9
ENDMDL
