MODEL 1
REMARK VINA RESULT:      -6.0      0.000      0.000
REMARK  0 active torsions:
REMARK  status: ('A' for Active; 'I' for Inactive)
ROOT
ATOM      1  N   UNL d   1      56.931  -1.106  31.607  0.00  0.00    -0.242 NA
ATOM      2  N   UNL d   1      56.929   0.525  31.731  0.00  0.00    -0.242 NA
ATOM      3  C   UNL d   1      57.382   0.156  31.140  0.00  0.00     0.101 A 
ATOM      4  C   UNL d   1      57.383  -0.652  31.078  0.00  0.00     0.101 A 
ATOM      5  C   UNL d   1      57.821   0.611  30.627  0.00  0.00     0.043 A 
ATOM      6  C   UNL d   1      57.823  -1.029  30.502  0.00  0.00     0.043 A 
ATOM      7  C   UNL d   1      58.275  -0.584  29.973  0.00  0.00     0.124 A 
ATOM      8  C   UNL d   1      58.274   0.242  30.036  0.00  0.00     0.124 A 
ATOM      9  C   UNL d   1      56.481   0.069  32.255  0.00  0.00     0.099 A 
ATOM     10  C   UNL d   1      56.482  -0.738  32.193  0.00  0.00     0.099 A 
ATOM     11  N   UNL d   1      58.715  -0.943  29.398  0.00  0.00    -0.146 N 
ATOM     12  N   UNL d   1      58.704   0.682  29.533  0.00  0.00    -0.146 N 
ATOM     13  C   UNL d   1      56.035  -1.192  32.716  0.00  0.00     0.021 A 
ATOM     14  C   UNL d   1      56.033   0.439  32.841  0.00  0.00     0.021 A 
ATOM     15  C   UNL d   1      55.581  -0.017  33.369  0.00  0.00     0.002 A 
ATOM     16  C   UNL d   1      55.582  -0.825  33.307  0.00  0.00     0.002 A 
ENDROOT
TORSDOF 0
ENDMDL
MODEL 2
REMARK VINA RESULT:      -6.0      0.010      1.293
REMARK  0 active torsions:
REMARK  status: ('A' for Active; 'I' for Inactive)
ROOT
ATOM      1  N   UNL d   1      56.930   0.520  31.724  0.00  0.00    -0.242 NA
ATOM      2  N   UNL d   1      56.930  -1.112  31.611  0.00  0.00    -0.242 NA
ATOM      3  C   UNL d   1      57.383  -0.661  31.081  0.00  0.00     0.101 A 
ATOM      4  C   UNL d   1      57.383   0.147  31.137  0.00  0.00     0.101 A 
ATOM      5  C   UNL d   1      57.824  -1.036  30.508  0.00  0.00     0.043 A 
ATOM      6  C   UNL d   1      57.824   0.605  30.622  0.00  0.00     0.043 A 
ATOM      7  C   UNL d   1      58.278   0.242  30.035  0.00  0.00     0.124 A 
ATOM      8  C   UNL d   1      58.278  -0.584  29.978  0.00  0.00     0.124 A 
ATOM      9  C   UNL d   1      56.480  -0.738  32.194  0.00  0.00     0.099 A 
ATOM     10  C   UNL d   1      56.480   0.070  32.250  0.00  0.00     0.099 A 
ATOM     11  N   UNL d   1      58.718   0.682  29.519  0.00  0.00    -0.146 N 
ATOM     12  N   UNL d   1      58.710  -0.946  29.417  0.00  0.00    -0.146 N 
ATOM     13  C   UNL d   1      56.031   0.443  32.833  0.00  0.00     0.021 A 
ATOM     14  C   UNL d   1      56.031  -1.190  32.719  0.00  0.00     0.021 A 
ATOM     15  C   UNL d   1      55.578  -0.815  33.307  0.00  0.00     0.002 A 
ATOM     16  C   UNL d   1      55.577  -0.007  33.363  0.00  0.00     0.002 A 
ENDROOT
TORSDOF 0
ENDMDL
MODEL 3
REMARK VINA RESULT:      -5.5      0.935      3.518
REMARK  0 active torsions:
REMARK  status: ('A' for Active; 'I' for Inactive)
ROOT
ATOM      1  N   UNL d   1      57.300   0.557  31.378  0.00  0.00    -0.242 NA
ATOM      2  N   UNL d   1      57.241  -1.061  31.144  0.00  0.00    -0.242 NA
ATOM      3  C   UNL d   1      56.798  -0.715  31.757  0.00  0.00     0.101 A 
ATOM      4  C   UNL d   1      56.828   0.086  31.872  0.00  0.00     0.101 A 
ATOM      5  C   UNL d   1      56.339  -1.186  32.236  0.00  0.00     0.043 A 
ATOM      6  C   UNL d   1      56.398   0.441  32.471  0.00  0.00     0.043 A 
ATOM      7  C   UNL d   1      55.926  -0.021  32.967  0.00  0.00     0.124 A 
ATOM      8  C   UNL d   1      55.896  -0.840  32.849  0.00  0.00     0.124 A 
ATOM      9  C   UNL d   1      57.710  -0.589  30.654  0.00  0.00     0.099 A 
ATOM     10  C   UNL d   1      57.739   0.212  30.770  0.00  0.00     0.099 A 
ATOM     11  N   UNL d   1      55.495   0.317  33.563  0.00  0.00    -0.146 N 
ATOM     12  N   UNL d   1      55.446  -1.295  33.319  0.00  0.00    -0.146 N 
ATOM     13  C   UNL d   1      58.207   0.682  30.280  0.00  0.00     0.021 A 
ATOM     14  C   UNL d   1      58.148  -0.936  30.047  0.00  0.00     0.021 A 
ATOM     15  C   UNL d   1      58.620  -0.464  29.552  0.00  0.00     0.002 A 
ATOM     16  C   UNL d   1      58.649   0.338  29.668  0.00  0.00     0.002 A 
ENDROOT
TORSDOF 0
ENDMDL
MODEL 4
REMARK VINA RESULT:      -4.7      0.956      3.320
REMARK  0 active torsions:
REMARK  status: ('A' for Active; 'I' for Inactive)
ROOT
ATOM      1  N   UNL d   1      57.621  -0.877  30.660  0.00  0.00    -0.242 NA
ATOM      2  N   UNL d   1      58.021   0.677  30.976  0.00  0.00    -0.242 NA
ATOM      3  C   UNL d   1      57.478   0.281  31.466  0.00  0.00     0.101 A 
ATOM      4  C   UNL d   1      57.281  -0.488  31.309  0.00  0.00     0.101 A 
ATOM      5  C   UNL d   1      57.150   0.672  32.100  0.00  0.00     0.043 A 
ATOM      6  C   UNL d   1      56.748  -0.891  31.782  0.00  0.00     0.043 A 
ATOM      7  C   UNL d   1      56.405  -0.510  32.430  0.00  0.00     0.124 A 
ATOM      8  C   UNL d   1      56.608   0.277  32.590  0.00  0.00     0.124 A 
ATOM      9  C   UNL d   1      58.358   0.286  30.331  0.00  0.00     0.099 A 
ATOM     10  C   UNL d   1      58.160  -0.484  30.174  0.00  0.00     0.099 A 
ATOM     11  N   UNL d   1      55.878  -0.895  32.906  0.00  0.00    -0.146 N 
ATOM     12  N   UNL d   1      56.285   0.654  33.210  0.00  0.00    -0.146 N 
ATOM     13  C   UNL d   1      58.497  -0.873  29.530  0.00  0.00     0.021 A 
ATOM     14  C   UNL d   1      58.896   0.682  29.846  0.00  0.00     0.021 A 
ATOM     15  C   UNL d   1      59.236   0.291  29.196  0.00  0.00     0.002 A 
ATOM     16  C   UNL d   1      59.039  -0.479  29.040  0.00  0.00     0.002 A 
ENDROOT
TORSDOF 0
ENDMDL
MODEL 5
REMARK VINA RESULT:      -4.4      1.902      4.010
REMARK  0 active torsions:
REMARK  status: ('A' for Active; 'I' for Inactive)
ROOT
ATOM      1  N   UNL d   1      57.174   0.674  33.464  0.00  0.00    -0.242 NA
ATOM      2  N   UNL d   1      56.023   0.653  32.301  0.00  0.00    -0.242 NA
ATOM      3  C   UNL d   1      55.802   0.661  33.102  0.00  0.00     0.101 A 
ATOM      4  C   UNL d   1      56.372   0.671  33.678  0.00  0.00     0.101 A 
ATOM      5  C   UNL d   1      55.012   0.657  33.301  0.00  0.00     0.043 A 
ATOM      6  C   UNL d   1      56.169   0.678  34.470  0.00  0.00     0.043 A 
ATOM      7  C   UNL d   1      55.374   0.675  34.691  0.00  0.00     0.124 A 
ATOM      8  C   UNL d   1      54.791   0.665  34.103  0.00  0.00     0.124 A 
ATOM      9  C   UNL d   1      56.822   0.657  32.092  0.00  0.00     0.099 A 
ATOM     10  C   UNL d   1      57.392   0.667  32.668  0.00  0.00     0.099 A 
ATOM     11  N   UNL d   1      55.159   0.682  35.471  0.00  0.00    -0.146 N 
ATOM     12  N   UNL d   1      54.021   0.661  34.302  0.00  0.00    -0.146 N 
ATOM     13  C   UNL d   1      58.189   0.670  32.458  0.00  0.00     0.021 A 
ATOM     14  C   UNL d   1      57.039   0.649  31.296  0.00  0.00     0.021 A 
ATOM     15  C   UNL d   1      57.842   0.653  31.083  0.00  0.00     0.002 A 
ATOM     16  C   UNL d   1      58.412   0.663  31.658  0.00  0.00     0.002 A 
ENDROOT
TORSDOF 0
ENDMDL
MODEL 6
REMARK VINA RESULT:      -4.3      1.534      2.189
REMARK  0 active torsions:
REMARK  status: ('A' for Active; 'I' for Inactive)
ROOT
ATOM      1  N   UNL d   1      56.857   0.681  33.807  0.00  0.00    -0.242 NA
ATOM      2  N   UNL d   1      55.659   0.680  32.694  0.00  0.00    -0.242 NA
ATOM      3  C   UNL d   1      56.453   0.681  32.448  0.00  0.00     0.101 A 
ATOM      4  C   UNL d   1      57.046   0.681  32.999  0.00  0.00     0.101 A 
ATOM      5  C   UNL d   1      56.626   0.681  31.652  0.00  0.00     0.043 A 
ATOM      6  C   UNL d   1      57.832   0.681  32.772  0.00  0.00     0.043 A 
ATOM      7  C   UNL d   1      58.027   0.681  31.969  0.00  0.00     0.124 A 
ATOM      8  C   UNL d   1      57.420   0.681  31.406  0.00  0.00     0.124 A 
ATOM      9  C   UNL d   1      55.475   0.680  33.500  0.00  0.00     0.099 A 
ATOM     10  C   UNL d   1      56.069   0.680  34.051  0.00  0.00     0.099 A 
ATOM     11  N   UNL d   1      58.799   0.681  31.730  0.00  0.00    -0.146 N 
ATOM     12  N   UNL d   1      57.595   0.681  30.630  0.00  0.00    -0.146 N 
ATOM     13  C   UNL d   1      55.885   0.680  34.854  0.00  0.00     0.021 A 
ATOM     14  C   UNL d   1      54.686   0.680  33.741  0.00  0.00     0.021 A 
ATOM     15  C   UNL d   1      54.499   0.680  34.551  0.00  0.00     0.002 A 
ATOM     16  C   UNL d   1      55.092   0.680  35.102  0.00  0.00     0.002 A 
ENDROOT
TORSDOF 0
ENDMDL
