MODEL 1
REMARK VINA RESULT:       7.0      0.000      0.000
REMARK  6 active torsions:
REMARK  status: ('A' for Active; 'I' for Inactive)
REMARK    1  A    between atoms: C_9  and  C_2 
REMARK    2  A    between atoms: C_13  and  C_8 
REMARK       I    between atoms: N_10  and  C_9 
REMARK    3  A    between atoms: C_15  and  N_10 
REMARK    4  A    between atoms: N_14  and  C_12 
REMARK    5  A    between atoms: C_21  and  N_14 
REMARK    6  A    between atoms: C_22  and  N_14 
ROOT
ATOM      1  C   UNL d   1     -42.191-122.033 -53.350  0.00  0.00     0.180 A 
ATOM      2  C   UNL d   1     -41.887-122.686 -52.234  0.00  0.00     0.106 A 
ATOM      3  N   UNL d   1     -41.749-122.707 -53.560  0.00  0.00    -0.283 N 
ATOM      4  S   UNL d   1     -42.268-122.033 -52.532  0.00  0.00    -0.044 SA
ATOM      5  N   UNL d   1     -42.377-121.633 -54.043  0.00  0.00    -0.221 NA
ATOM      6  C   UNL d   1     -41.563-123.107 -52.867  0.00  0.00     0.077 A 
ATOM      7  C   UNL d   1     -41.671-122.707 -54.378  0.00  0.00     0.101 A 
ATOM      8  C   UNL d   1     -42.062-122.040 -54.671  0.00  0.00     0.101 A 
ATOM      9  C   UNL d   1     -41.123-123.816 -52.821  0.00  0.00     0.020 C 
ENDROOT
BRANCH   2  10
ATOM     10  C   UNL d   1     -41.837-122.887 -51.427  0.00  0.00     0.287 C 
ATOM     11  N   UNL d   1     -42.130-122.368 -50.856  0.00  0.00    -0.208 NA
ATOM     12  O   UNL d   1     -41.497-123.598 -51.212  0.00  0.00    -0.265 OA
BRANCH  11  13
ATOM     13  C   UNL d   1     -42.077-122.575 -50.060  0.00  0.00     0.085 A 
ATOM     14  C   UNL d   1     -42.756-122.582 -49.580  0.00  0.00     0.021 A 
ATOM     15  C   UNL d   1     -42.707-122.787 -48.788  0.00  0.00     0.019 A 
ATOM     16  C   UNL d   1     -41.966-122.988 -48.473  0.00  0.00     0.064 A 
ATOM     17  C   UNL d   1     -41.287-122.984 -48.940  0.00  0.00     0.019 A 
ATOM     18  C   UNL d   1     -41.349-122.777 -49.730  0.00  0.00     0.021 A 
BRANCH  16  19
ATOM     19  N   UNL d   1     -41.895-123.197 -47.679  0.00  0.00    -0.304 N 
BRANCH  19  20
ATOM     20  C   UNL d   1     -41.183-123.077 -47.290  0.00  0.00     0.080 C 
ATOM     21  C   UNL d   1     -41.139-122.527 -46.675  0.00  0.00     0.021 C 
ENDBRANCH  19  20
BRANCH  19  22
ATOM     22  C   UNL d   1     -42.530-123.525 -47.274  0.00  0.00     0.080 C 
ATOM     23  C   UNL d   1     -42.920-123.097 -46.687  0.00  0.00     0.021 C 
ENDBRANCH  19  22
ENDBRANCH  16  19
ENDBRANCH  11  13
ENDBRANCH   2  10
BRANCH   8  24
ATOM     24  C   UNL d   1     -42.140-121.798 -55.446  0.00  0.00     0.019 A 
ATOM     25  C   UNL d   1     -42.840-121.928 -55.860  0.00  0.00     0.002 A 
ATOM     26  C   UNL d   1     -42.919-121.683 -56.644  0.00  0.00     0.000 A 
ATOM     27  C   UNL d   1     -42.284-121.299 -57.026  0.00  0.00     0.000 A 
ATOM     28  C   UNL d   1     -41.585-121.169 -56.612  0.00  0.00     0.000 A 
ATOM     29  C   UNL d   1     -41.506-121.415 -55.825  0.00  0.00     0.002 A 
ENDBRANCH   8  24
TORSDOF 6
ENDMDL
