MODEL 1
REMARK VINA RESULT:      16.8      0.000      0.000
REMARK  1 active torsions:
REMARK  status: ('A' for Active; 'I' for Inactive)
REMARK    1  A    between atoms: C_10  and  C_5 
ROOT
ATOM      1  C   UNL d   1     -51.838  25.756  33.311  0.00  0.00     0.118 A 
ATOM      2  C   UNL d   1     -51.070  25.491  33.309  0.00  0.00     0.088 A 
ATOM      3  N   UNL d   1     -52.472  25.200  33.313  0.00  0.00    -0.219 NA
ATOM      4  C   UNL d   1     -50.941  24.672  33.309  0.00  0.00     0.303 A 
ATOM      5  C   UNL d   1     -52.318  24.399  33.312  0.00  0.00     0.162 A 
ATOM      6  O   UNL d   1     -51.554  24.138  33.310  0.00  0.00    -0.259 OA
ATOM      7  S   UNL d   1     -51.823  26.596  33.312  0.00  0.00    -0.068 SA
ATOM      8  C   UNL d   1     -50.583  26.150  33.309  0.00  0.00     0.013 A 
ATOM      9  C   UNL d   1     -51.041  26.803  33.310  0.00  0.00     0.031 A 
ATOM     10  O   UNL d   1     -50.171  24.364  33.307  0.00  0.00    -0.259 OA
ATOM     11  C   UNL d   1     -49.764  26.208  33.307  0.00  0.00     0.001 A 
ATOM     12  C   UNL d   1     -50.728  27.567  33.310  0.00  0.00     0.006 A 
ATOM     13  C   UNL d   1     -49.436  26.984  33.306  0.00  0.00     0.000 A 
ATOM     14  C   UNL d   1     -49.883  27.632  33.308  0.00  0.00     0.001 A 
ENDROOT
BRANCH   5  15
ATOM     15  C   UNL d   1     -52.976  23.873  33.313  0.00  0.00     0.058 C 
ATOM     16  C   UNL d   1     -53.476  24.531  33.308  0.00  0.00     0.008 C 
ATOM     17  C   UNL d   1     -53.640  23.388  33.314  0.00  0.00     0.008 C 
ATOM     18  C   UNL d   1     -52.480  23.211  33.319  0.00  0.00     0.008 C 
ENDBRANCH   5  15
TORSDOF 1
ENDMDL
