MODEL 1
REMARK VINA RESULT:      -4.8      0.000      0.000
REMARK  3 active torsions:
REMARK  status: ('A' for Active; 'I' for Inactive)
REMARK    1  A    between atoms: S_6  and  C_2 
REMARK    2  A    between atoms: C_9  and  S_6 
REMARK    3  A    between atoms: C_7  and  C_9 
ROOT
ATOM      1  N   UNL d   1     -41.123-122.327 -52.960  0.00  0.00    -0.196 NA
ATOM      2  C   UNL d   1     -41.410-122.812 -53.574  0.00  0.00     0.213 A 
ATOM      3  N   UNL d   1     -41.444-123.519 -52.432  0.00  0.00    -0.123 NA
ATOM      4  N   UNL d   1     -41.607-123.545 -53.246  0.00  0.00    -0.120 NA
ATOM      5  C   UNL d   1     -41.147-122.772 -52.255  0.00  0.00     0.224 A 
ENDROOT
BRANCH   2   6
ATOM      6  S   UNL d   1     -41.482-122.595 -54.365  0.00  0.00    -0.062 SA
BRANCH   6   7
ATOM      7  C   UNL d   1     -42.123-122.130 -54.614  0.00  0.00     0.162 C 
BRANCH   7   8
ATOM      8  C   UNL d   1     -42.188-121.893 -55.402  0.00  0.00     0.197 C 
ATOM      9  O   UNL d   1     -42.918-121.969 -55.795  0.00  0.00    -0.647 OA
ATOM     10  O   UNL d   1     -41.534-121.581 -55.796  0.00  0.00    -0.647 OA
ENDBRANCH   7   8
ENDBRANCH   6   7
ENDBRANCH   2   6
TORSDOF 3
ENDMDL
MODEL 2
REMARK VINA RESULT:      -4.3      2.291      2.960
REMARK  3 active torsions:
REMARK  status: ('A' for Active; 'I' for Inactive)
REMARK    1  A    between atoms: S_6  and  C_2 
REMARK    2  A    between atoms: C_9  and  S_6 
REMARK    3  A    between atoms: C_7  and  C_9 
ROOT
ATOM      1  N   UNL d   1     -41.473-122.259 -55.154  0.00  0.00    -0.196 NA
ATOM      2  C   UNL d   1     -41.925-122.354 -54.460  0.00  0.00     0.213 A 
ATOM      3  N   UNL d   1     -42.610-121.560 -55.300  0.00  0.00    -0.123 NA
ATOM      4  N   UNL d   1     -42.624-121.923 -54.552  0.00  0.00    -0.120 NA
ATOM      5  C   UNL d   1     -41.905-121.766 -55.670  0.00  0.00     0.224 A 
ENDROOT
BRANCH   2   6
ATOM      6  S   UNL d   1     -41.709-122.799 -53.802  0.00  0.00    -0.062 SA
BRANCH   6   7
ATOM      7  C   UNL d   1     -41.324-122.439 -53.161  0.00  0.00     0.162 C 
BRANCH   7   8
ATOM      8  C   UNL d   1     -41.229-122.843 -52.448  0.00  0.00     0.197 C 
ATOM      9  O   UNL d   1     -41.122-122.412 -51.743  0.00  0.00    -0.647 OA
ATOM     10  O   UNL d   1     -41.239-123.667 -52.433  0.00  0.00    -0.647 OA
ENDBRANCH   7   8
ENDBRANCH   6   7
ENDBRANCH   2   6
TORSDOF 3
ENDMDL
MODEL 3
REMARK VINA RESULT:      -3.6      1.360      1.691
REMARK  3 active torsions:
REMARK  status: ('A' for Active; 'I' for Inactive)
REMARK    1  A    between atoms: S_6  and  C_2 
REMARK    2  A    between atoms: C_9  and  S_6 
REMARK    3  A    between atoms: C_7  and  C_9 
ROOT
ATOM      1  N   UNL d   1     -41.748-122.048 -51.649  0.00  0.00    -0.196 NA
ATOM      2  C   UNL d   1     -41.429-122.702 -52.056  0.00  0.00     0.213 A 
ATOM      3  N   UNL d   1     -41.823-123.116 -50.840  0.00  0.00    -0.123 NA
ATOM      4  N   UNL d   1     -41.476-123.358 -51.555  0.00  0.00    -0.120 NA
ATOM      5  C   UNL d   1     -41.990-122.313 -50.896  0.00  0.00     0.224 A 
ENDROOT
BRANCH   2   6
ATOM      6  S   UNL d   1     -41.123-122.691 -52.820  0.00  0.00    -0.062 SA
BRANCH   6   7
ATOM      7  C   UNL d   1     -41.632-122.671 -53.474  0.00  0.00     0.162 C 
BRANCH   7   8
ATOM      8  C   UNL d   1     -41.331-122.714 -54.242  0.00  0.00     0.197 C 
ATOM      9  O   UNL d   1     -41.123-123.453 -54.561  0.00  0.00    -0.647 OA
ATOM     10  O   UNL d   1     -41.239-122.027 -54.689  0.00  0.00    -0.647 OA
ENDBRANCH   7   8
ENDBRANCH   6   7
ENDBRANCH   2   6
TORSDOF 3
ENDMDL
MODEL 4
REMARK VINA RESULT:      -3.6      2.671      3.317
REMARK  3 active torsions:
REMARK  status: ('A' for Active; 'I' for Inactive)
REMARK    1  A    between atoms: S_6  and  C_2 
REMARK    2  A    between atoms: C_9  and  S_6 
REMARK    3  A    between atoms: C_7  and  C_9 
ROOT
ATOM      1  N   UNL d   1     -41.279-123.382 -53.416  0.00  0.00    -0.196 NA
ATOM      2  C   UNL d   1     -41.225-122.688 -52.957  0.00  0.00     0.213 A 
ATOM      3  N   UNL d   1     -41.264-122.330 -54.251  0.00  0.00    -0.123 NA
ATOM      4  N   UNL d   1     -41.216-122.043 -53.473  0.00  0.00    -0.120 NA
ATOM      5  C   UNL d   1     -41.302-123.152 -54.218  0.00  0.00     0.224 A 
ENDROOT
BRANCH   2   6
ATOM      6  S   UNL d   1     -41.188-122.657 -52.134  0.00  0.00    -0.062 SA
BRANCH   6   7
ATOM      7  C   UNL d   1     -41.884-122.663 -51.684  0.00  0.00     0.162 C 
BRANCH   7   8
ATOM      8  C   UNL d   1     -41.860-122.520 -50.871  0.00  0.00     0.197 C 
ATOM      9  O   UNL d   1     -41.127-122.516 -50.476  0.00  0.00    -0.647 OA
ATOM     10  O   UNL d   1     -42.558-122.384 -50.454  0.00  0.00    -0.647 OA
ENDBRANCH   7   8
ENDBRANCH   6   7
ENDBRANCH   2   6
TORSDOF 3
ENDMDL
MODEL 5
REMARK VINA RESULT:      -3.3      3.968      4.627
REMARK  3 active torsions:
REMARK  status: ('A' for Active; 'I' for Inactive)
REMARK    1  A    between atoms: S_6  and  C_2 
REMARK    2  A    between atoms: C_9  and  S_6 
REMARK    3  A    between atoms: C_7  and  C_9 
ROOT
ATOM      1  N   UNL d   1     -41.275-121.993 -51.037  0.00  0.00    -0.196 NA
ATOM      2  C   UNL d   1     -41.695-122.673 -50.799  0.00  0.00     0.213 A 
ATOM      3  N   UNL d   1     -41.560-122.711 -52.136  0.00  0.00    -0.123 NA
ATOM      4  N   UNL d   1     -41.869-123.113 -51.477  0.00  0.00    -0.120 NA
ATOM      5  C   UNL d   1     -41.196-122.024 -51.867  0.00  0.00     0.224 A 
ENDROOT
BRANCH   2   6
ATOM      6  S   UNL d   1     -41.898-122.867 -50.025  0.00  0.00    -0.062 SA
BRANCH   6   7
ATOM      7  C   UNL d   1     -42.667-122.729 -49.747  0.00  0.00     0.162 C 
BRANCH   7   8
ATOM      8  C   UNL d   1     -42.883-122.949 -48.982  0.00  0.00     0.197 C 
ATOM      9  O   UNL d   1     -42.720-122.437 -48.345  0.00  0.00    -0.647 OA
ATOM     10  O   UNL d   1     -43.258-123.671 -48.848  0.00  0.00    -0.647 OA
ENDBRANCH   7   8
ENDBRANCH   6   7
ENDBRANCH   2   6
TORSDOF 3
ENDMDL
