MODEL 1
REMARK VINA RESULT:      45.4      0.000      0.000
REMARK  11 active torsions:
REMARK  status: ('A' for Active; 'I' for Inactive)
REMARK    1  A    between atoms: C_3  and  C_1 
REMARK    2  A    between atoms: N_4  and  C_1 
REMARK    3  A    between atoms: C_5  and  C_1 
REMARK       I    between atoms: C_2  and  N_4 
REMARK    4  A    between atoms: O_10  and  C_2 
REMARK    5  A    between atoms: O_7  and  C_3 
REMARK    6  A    between atoms: C_12  and  C_5 
REMARK    7  A    between atoms: C_6  and  C_12 
REMARK    8  A    between atoms: C_13  and  O_7 
REMARK    9  A    between atoms: C_15  and  O_10 
REMARK   10  A    between atoms: C_16  and  C_13 
REMARK   11  A    between atoms: C_17  and  C_15 
ROOT
ATOM      1  C   UNL d   1     -55.100-100.346 -44.241  0.00  0.00     0.150 C 
ENDROOT
BRANCH   1   2
ATOM      2  C   UNL d   1     -54.969-100.072 -43.475  0.00  0.00     0.318 C 
ATOM      3  O   UNL d   1     -54.936 -99.259 -43.326  0.00  0.00    -0.257 OA
BRANCH   2   4
ATOM      4  O   UNL d   1     -54.869-100.611 -42.849  0.00  0.00    -0.270 OA
BRANCH   4   5
ATOM      5  C   UNL d   1     -54.755-101.381 -42.570  0.00  0.00     0.126 C 
BRANCH   5   6
ATOM      6  C   UNL d   1     -54.765-101.523 -41.758  0.00  0.00     0.025 A 
ATOM      7  C   UNL d   1     -54.711-102.290 -41.475  0.00  0.00     0.002 A 
ATOM      8  C   UNL d   1     -54.720-102.437 -40.674  0.00  0.00     0.000 A 
ATOM      9  C   UNL d   1     -54.784-101.809 -40.133  0.00  0.00     0.000 A 
ATOM     10  C   UNL d   1     -54.838-101.029 -40.424  0.00  0.00     0.000 A 
ATOM     11  C   UNL d   1     -54.828-100.892 -41.230  0.00  0.00     0.002 A 
ENDBRANCH   5   6
ENDBRANCH   4   5
ENDBRANCH   2   4
ENDBRANCH   1   2
BRANCH   1  12
ATOM     12  N   UNL d   1     -55.138 -99.812 -44.869  0.00  0.00    -0.180 NA
ATOM     13  C   UNL d   1     -55.829 -99.377 -45.001  0.00  0.00     0.393 C 
ATOM     14  O   UNL d   1     -55.866 -98.841 -45.631  0.00  0.00    -0.236 OA
BRANCH  13  15
ATOM     15  O   UNL d   1     -56.481 -99.477 -44.505  0.00  0.00    -0.256 OA
BRANCH  15  16
ATOM     16  C   UNL d   1     -56.918 -98.820 -44.259  0.00  0.00     0.128 C 
BRANCH  16  17
ATOM     17  C   UNL d   1     -57.737 -98.882 -44.186  0.00  0.00     0.025 A 
ATOM     18  C   UNL d   1     -58.089 -98.758 -43.449  0.00  0.00     0.002 A 
ATOM     19  C   UNL d   1     -58.917 -98.820 -43.370  0.00  0.00     0.000 A 
ATOM     20  C   UNL d   1     -59.382 -99.005 -44.026  0.00  0.00     0.000 A 
ATOM     21  C   UNL d   1     -59.020 -99.127 -44.764  0.00  0.00     0.000 A 
ATOM     22  C   UNL d   1     -58.199 -99.066 -44.840  0.00  0.00     0.002 A 
ENDBRANCH  16  17
ENDBRANCH  15  16
ENDBRANCH  13  15
ENDBRANCH   1  12
BRANCH   1  23
ATOM     23  C   UNL d   1     -55.194-101.156 -44.381  0.00  0.00     0.031 C 
BRANCH  23  24
ATOM     24  C   UNL d   1     -55.880-101.437 -44.743  0.00  0.00     0.072 C 
BRANCH  24  25
ATOM     25  C   UNL d   1     -55.842-102.077 -45.264  0.00  0.00     0.211 C 
ATOM     26  O   UNL d   1     -55.159-102.214 -45.714  0.00  0.00    -0.644 OA
ATOM     27  O   UNL d   1     -56.485-102.595 -45.345  0.00  0.00    -0.644 OA
ENDBRANCH  24  25
ENDBRANCH  23  24
ENDBRANCH   1  23
TORSDOF 11
ENDMDL
