MODEL 1
REMARK VINA RESULT:       6.6      0.000      0.000
REMARK  6 active torsions:
REMARK  status: ('A' for Active; 'I' for Inactive)
REMARK       I    between atoms: C_8  and  N_1 
REMARK    1  A    between atoms: C_10  and  C_3 
REMARK    2  A    between atoms: C_4  and  S_14 
REMARK    3  A    between atoms: C_15  and  C_6 
REMARK    4  A    between atoms: C_16  and  C_8 
REMARK    5  A    between atoms: S_14  and  C_16 
REMARK    6  A    between atoms: O_26  and  C_23 
ROOT
ATOM      1  N   UNL d   1      57.671  -1.421  30.269  0.00  0.00    -0.195 N 
ATOM      2  N   UNL d   1      57.037  -1.563  30.744  0.00  0.00    -0.162 NA
ATOM      3  C   UNL d   1      57.031  -0.993  31.349  0.00  0.00     0.109 A 
ATOM      4  C   UNL d   1      58.074  -0.757  30.567  0.00  0.00     0.088 A 
ATOM      5  C   UNL d   1      57.667  -0.514  31.224  0.00  0.00     0.041 A 
ATOM      6  C   UNL d   1      57.957  -1.784  29.605  0.00  0.00     0.275 C 
ATOM      7  O   UNL d   1      58.643  -1.506  29.221  0.00  0.00    -0.266 OA
ENDROOT
BRANCH   4   8
ATOM      8  C   UNL d   1      58.745  -0.397  30.284  0.00  0.00     0.018 A 
ATOM      9  C   UNL d   1      59.008   0.307  30.618  0.00  0.00     0.004 A 
ATOM     10  C   UNL d   1      59.697   0.671  30.322  0.00  0.00     0.024 A 
ATOM     11  C   UNL d   1      60.111   0.331  29.702  0.00  0.00     0.094 A 
ATOM     12  C   UNL d   1      59.844  -0.375  29.369  0.00  0.00     0.024 A 
ATOM     13  C   UNL d   1      59.158  -0.745  29.658  0.00  0.00     0.004 A 
BRANCH  11  14
ATOM     14  O   UNL d   1      60.800   0.681  29.395  0.00  0.00    -0.328 OA
ATOM     15  C   UNL d   1      61.127   0.421  28.683  0.00  0.00     0.181 C 
ENDBRANCH  11  14
ENDBRANCH   4   8
BRANCH   6  16
ATOM     16  C   UNL d   1      57.562  -2.453  29.293  0.00  0.00     0.128 C 
BRANCH  16  17
ATOM     17  S   UNL d   1      57.818  -2.796  28.582  0.00  0.00    -0.069 SA
BRANCH  17  18
ATOM     18  C   UNL d   1      58.070  -3.590  28.563  0.00  0.00     0.140 A 
ATOM     19  N   UNL d   1      57.569  -4.239  28.580  0.00  0.00    -0.232 NA
ATOM     20  C   UNL d   1      58.038  -4.916  28.552  0.00  0.00     0.088 A 
ATOM     21  C   UNL d   1      57.840  -5.722  28.553  0.00  0.00     0.020 A 
ATOM     22  C   UNL d   1      58.822  -4.687  28.518  0.00  0.00     0.049 A 
ATOM     23  C   UNL d   1      58.434  -6.294  28.521  0.00  0.00     0.002 A 
ATOM     24  C   UNL d   1      59.232  -6.051  28.486  0.00  0.00     0.001 A 
ATOM     25  C   UNL d   1      59.417  -5.249  28.485  0.00  0.00     0.008 A 
ATOM     26  S   UNL d   1      58.850  -3.858  28.524  0.00  0.00    -0.060 SA
ENDBRANCH  17  18
ENDBRANCH  16  17
ENDBRANCH   6  16
BRANCH   3  27
ATOM     27  C   UNL d   1      56.465  -0.952  31.949  0.00  0.00     0.049 A 
ATOM     28  S   UNL d   1      56.022  -1.493  32.367  0.00  0.00    -0.085 SA
ATOM     29  C   UNL d   1      55.554  -1.072  32.899  0.00  0.00     0.035 A 
ATOM     30  C   UNL d   1      55.702  -0.281  32.814  0.00  0.00     0.007 A 
ATOM     31  C   UNL d   1      56.274  -0.192  32.219  0.00  0.00     0.009 A 
ENDBRANCH   3  27
TORSDOF 6
ENDMDL
