MODEL 1
REMARK VINA RESULT:      -9.4      0.000      0.000
REMARK  5 active torsions:
REMARK  status: ('A' for Active; 'I' for Inactive)
REMARK    1  A    between atoms: C_4  and  C_1 
REMARK    2  A    between atoms: C_3  and  N_8 
REMARK       I    between atoms: N_8  and  C_4 
REMARK    3  A    between atoms: C_13  and  C_6 
REMARK    4  A    between atoms: C_14  and  C_10 
REMARK    5  A    between atoms: C_20  and  C_14 
ROOT
ATOM      1  C   UNL d   1      51.588  33.762  53.139  0.00  0.00     0.083 A 
ATOM      2  C   UNL d   1      50.813  33.721  52.840  0.00  0.00     0.032 A 
ATOM      3  C   UNL d   1      50.554  34.487  52.707  0.00  0.00     0.100 A 
ATOM      4  C   UNL d   1      51.792  34.567  53.185  0.00  0.00     0.105 A 
ATOM      5  O   UNL d   1      51.148  35.010  52.917  0.00  0.00    -0.307 OA
ATOM      6  C   UNL d   1      52.516  34.858  53.455  0.00  0.00     0.027 C 
ENDROOT
BRANCH   1   7
ATOM      7  C   UNL d   1      52.069  33.124  53.353  0.00  0.00     0.283 C 
ATOM      8  N   UNL d   1      52.413  32.660  52.776  0.00  0.00    -0.181 NA
ATOM      9  O   UNL d   1      52.193  32.965  54.152  0.00  0.00    -0.265 OA
BRANCH   8  10
ATOM     10  C   UNL d   1      52.892  32.025  52.991  0.00  0.00     0.216 A 
ATOM     11  N   UNL d   1      52.717  31.236  52.878  0.00  0.00    -0.200 NA
ATOM     12  C   UNL d   1      53.338  30.793  53.171  0.00  0.00     0.175 A 
ATOM     13  N   UNL d   1      53.902  31.317  53.468  0.00  0.00    -0.187 NA
ATOM     14  S   UNL d   1      53.621  32.076  53.355  0.00  0.00     0.054 SA
BRANCH  12  15
ATOM     15  C   UNL d   1      53.395  29.979  53.171  0.00  0.00     0.082 C 
BRANCH  15  16
ATOM     16  C   UNL d   1      52.964  29.538  53.717  0.00  0.00     0.199 C 
ATOM     17  O   UNL d   1      52.166  29.387  53.591  0.00  0.00    -0.286 OA
ATOM     18  C   UNL d   1      53.333  29.249  54.392  0.00  0.00     0.045 C 
ENDBRANCH  15  16
ENDBRANCH  12  15
ENDBRANCH   8  10
ENDBRANCH   1   7
BRANCH   3  19
ATOM     19  C   UNL d   1      49.819  34.698  52.413  0.00  0.00     0.024 A 
ATOM     20  C   UNL d   1      49.301  35.144  52.880  0.00  0.00     0.014 A 
ATOM     21  C   UNL d   1      48.560  35.354  52.577  0.00  0.00     0.068 A 
ATOM     22 CL   UNL d   1      48.047  35.798  53.044  0.00  0.00    -0.082 Cl
ATOM     23  C   UNL d   1      48.334  35.123  51.817  0.00  0.00     0.068 A 
ATOM     24  C   UNL d   1      48.846  34.680  51.351  0.00  0.00     0.012 A 
ATOM     25 CL   UNL d   1      47.587  35.340  51.525  0.00  0.00    -0.082 Cl
ATOM     26  C   UNL d   1      49.591  34.464  51.644  0.00  0.00     0.003 A 
ENDBRANCH   3  19
TORSDOF 5
ENDMDL
MODEL 2
REMARK VINA RESULT:      -8.7      2.926      5.590
REMARK  5 active torsions:
REMARK  status: ('A' for Active; 'I' for Inactive)
REMARK    1  A    between atoms: C_4  and  C_1 
REMARK    2  A    between atoms: C_3  and  N_8 
REMARK       I    between atoms: N_8  and  C_4 
REMARK    3  A    between atoms: C_13  and  C_6 
REMARK    4  A    between atoms: C_14  and  C_10 
REMARK    5  A    between atoms: C_20  and  C_14 
ROOT
ATOM      1  C   UNL d   1      51.758  33.796  52.863  0.00  0.00     0.083 A 
ATOM      2  C   UNL d   1      51.834  32.970  52.924  0.00  0.00     0.032 A 
ATOM      3  C   UNL d   1      52.592  32.806  53.189  0.00  0.00     0.100 A 
ATOM      4  C   UNL d   1      52.484  34.128  53.096  0.00  0.00     0.105 A 
ATOM      5  O   UNL d   1      52.995  33.510  53.296  0.00  0.00    -0.307 OA
ATOM      6  C   UNL d   1      52.650  34.936  53.118  0.00  0.00     0.027 C 
ENDROOT
BRANCH   1   7
ATOM      7  C   UNL d   1      51.087  34.212  52.618  0.00  0.00     0.283 C 
ATOM      8  N   UNL d   1      50.426  34.244  53.097  0.00  0.00    -0.181 NA
ATOM      9  O   UNL d   1      51.096  34.593  51.886  0.00  0.00    -0.265 OA
BRANCH   8  10
ATOM     10  C   UNL d   1      49.759  34.660  52.849  0.00  0.00     0.216 A 
ATOM     11  N   UNL d   1      49.427  35.298  53.232  0.00  0.00    -0.200 NA
ATOM     12  C   UNL d   1      48.776  35.543  52.802  0.00  0.00     0.175 A 
ATOM     13  N   UNL d   1      48.710  35.048  52.145  0.00  0.00    -0.187 NA
ATOM     14  S   UNL d   1      49.319  34.504  52.179  0.00  0.00     0.054 SA
BRANCH  12  15
ATOM     15  C   UNL d   1      48.279  36.164  52.984  0.00  0.00     0.082 C 
BRANCH  15  16
ATOM     16  C   UNL d   1      47.587  36.024  53.408  0.00  0.00     0.199 C 
ATOM     17  O   UNL d   1      47.616  35.892  54.219  0.00  0.00    -0.286 OA
ATOM     18  C   UNL d   1      46.864  36.015  53.019  0.00  0.00     0.045 C 
ENDBRANCH  15  16
ENDBRANCH  12  15
ENDBRANCH   8  10
ENDBRANCH   1   7
BRANCH   3  19
ATOM     19  C   UNL d   1      52.899  32.059  53.325  0.00  0.00     0.024 A 
ATOM     20  C   UNL d   1      52.586  31.406  52.922  0.00  0.00     0.014 A 
ATOM     21  C   UNL d   1      52.900  30.653  53.063  0.00  0.00     0.068 A 
ATOM     22 CL   UNL d   1      52.588  30.006  52.662  0.00  0.00    -0.082 Cl
ATOM     23  C   UNL d   1      53.519  30.548  53.600  0.00  0.00     0.068 A 
ATOM     24  C   UNL d   1      53.832  31.195  54.002  0.00  0.00     0.012 A 
ATOM     25 CL   UNL d   1      53.826  29.787  53.733  0.00  0.00    -0.082 Cl
ATOM     26  C   UNL d   1      53.525  31.953  53.868  0.00  0.00     0.003 A 
ENDBRANCH   3  19
TORSDOF 5
ENDMDL
MODEL 3
REMARK VINA RESULT:      -8.2      3.428      5.810
REMARK  5 active torsions:
REMARK  status: ('A' for Active; 'I' for Inactive)
REMARK    1  A    between atoms: C_4  and  C_1 
REMARK    2  A    between atoms: C_3  and  N_8 
REMARK       I    between atoms: N_8  and  C_4 
REMARK    3  A    between atoms: C_13  and  C_6 
REMARK    4  A    between atoms: C_14  and  C_10 
REMARK    5  A    between atoms: C_20  and  C_14 
ROOT
ATOM      1  C   UNL d   1      50.655  34.413  52.788  0.00  0.00     0.083 A 
ATOM      2  C   UNL d   1      51.132  34.338  53.465  0.00  0.00     0.032 A 
ATOM      3  C   UNL d   1      51.880  34.106  53.222  0.00  0.00     0.100 A 
ATOM      4  C   UNL d   1      51.128  34.222  52.131  0.00  0.00     0.105 A 
ATOM      5  O   UNL d   1      51.884  34.034  52.406  0.00  0.00    -0.307 OA
ATOM      6  C   UNL d   1      50.872  34.225  51.346  0.00  0.00     0.027 C 
ENDROOT
BRANCH   1   7
ATOM      7  C   UNL d   1      49.859  34.636  52.768  0.00  0.00     0.283 C 
ATOM      8  N   UNL d   1      49.640  35.393  52.982  0.00  0.00    -0.181 NA
ATOM      9  O   UNL d   1      49.294  34.085  52.530  0.00  0.00    -0.265 OA
BRANCH   8  10
ATOM     10  C   UNL d   1      48.845  35.612  52.962  0.00  0.00     0.216 A 
ATOM     11  N   UNL d   1      48.426  35.819  52.294  0.00  0.00    -0.200 NA
ATOM     12  C   UNL d   1      47.660  35.996  52.519  0.00  0.00     0.175 A 
ATOM     13  N   UNL d   1      47.610  35.896  53.336  0.00  0.00    -0.187 NA
ATOM     14  S   UNL d   1      48.345  35.658  53.604  0.00  0.00     0.054 SA
BRANCH  12  15
ATOM     15  C   UNL d   1      47.052  36.230  52.028  0.00  0.00     0.082 C 
BRANCH  15  16
ATOM     16  C   UNL d   1      46.481  35.684  51.795  0.00  0.00     0.199 C 
ATOM     17  O   UNL d   1      46.639  35.150  51.190  0.00  0.00    -0.286 OA
ATOM     18  C   UNL d   1      45.750  35.673  52.168  0.00  0.00     0.045 C 
ENDBRANCH  15  16
ENDBRANCH  12  15
ENDBRANCH   8  10
ENDBRANCH   1   7
BRANCH   3  19
ATOM     19  C   UNL d   1      52.520  33.969  53.713  0.00  0.00     0.024 A 
ATOM     20  C   UNL d   1      52.831  33.204  53.781  0.00  0.00     0.014 A 
ATOM     21  C   UNL d   1      53.478  33.071  54.279  0.00  0.00     0.068 A 
ATOM     22 CL   UNL d   1      53.785  32.310  54.344  0.00  0.00    -0.082 Cl
ATOM     23  C   UNL d   1      53.816  33.692  54.707  0.00  0.00     0.068 A 
ATOM     24  C   UNL d   1      53.509  34.453  54.642  0.00  0.00     0.012 A 
ATOM     25 CL   UNL d   1      54.465  33.545  55.204  0.00  0.00    -0.082 Cl
ATOM     26  C   UNL d   1      52.861  34.597  54.146  0.00  0.00     0.003 A 
ENDBRANCH   3  19
TORSDOF 5
ENDMDL
MODEL 4
REMARK VINA RESULT:      -7.8      1.700      2.410
REMARK  5 active torsions:
REMARK  status: ('A' for Active; 'I' for Inactive)
REMARK    1  A    between atoms: C_4  and  C_1 
REMARK    2  A    between atoms: C_3  and  N_8 
REMARK       I    between atoms: N_8  and  C_4 
REMARK    3  A    between atoms: C_13  and  C_6 
REMARK    4  A    between atoms: C_14  and  C_10 
REMARK    5  A    between atoms: C_20  and  C_14 
ROOT
ATOM      1  C   UNL d   1      50.348  34.470  52.784  0.00  0.00     0.083 A 
ATOM      2  C   UNL d   1      49.717  34.904  53.109  0.00  0.00     0.032 A 
ATOM      3  C   UNL d   1      49.177  35.049  52.510  0.00  0.00     0.100 A 
ATOM      4  C   UNL d   1      50.178  34.355  51.978  0.00  0.00     0.105 A 
ATOM      5  O   UNL d   1      49.453  34.716  51.816  0.00  0.00    -0.307 OA
ATOM      6  C   UNL d   1      50.661  33.950  51.445  0.00  0.00     0.027 C 
ENDROOT
BRANCH   1   7
ATOM      7  C   UNL d   1      51.019  34.200  53.185  0.00  0.00     0.283 C 
ATOM      8  N   UNL d   1      51.702  34.648  53.187  0.00  0.00    -0.181 NA
ATOM      9  O   UNL d   1      50.988  33.477  53.580  0.00  0.00    -0.265 OA
BRANCH   8  10
ATOM     10  C   UNL d   1      52.369  34.377  53.587  0.00  0.00     0.216 A 
ATOM     11  N   UNL d   1      52.873  33.790  53.330  0.00  0.00    -0.200 NA
ATOM     12  C   UNL d   1      53.460  33.695  53.891  0.00  0.00     0.175 A 
ATOM     13  N   UNL d   1      53.314  34.231  54.500  0.00  0.00    -0.187 NA
ATOM     14  S   UNL d   1      52.639  34.650  54.307  0.00  0.00     0.054 SA
BRANCH  12  15
ATOM     15  C   UNL d   1      54.081  33.166  53.858  0.00  0.00     0.082 C 
BRANCH  15  16
ATOM     16  C   UNL d   1      54.015  32.433  54.230  0.00  0.00     0.199 C 
ATOM     17  O   UNL d   1      54.034  32.380  55.050  0.00  0.00    -0.286 OA
ATOM     18  C   UNL d   1      53.928  31.753  53.779  0.00  0.00     0.045 C 
ENDBRANCH  15  16
ENDBRANCH  12  15
ENDBRANCH   8  10
ENDBRANCH   1   7
BRANCH   3  19
ATOM     19  C   UNL d   1      48.473  35.461  52.592  0.00  0.00     0.024 A 
ATOM     20  C   UNL d   1      47.912  35.442  51.983  0.00  0.00     0.014 A 
ATOM     21  C   UNL d   1      47.203  35.860  52.071  0.00  0.00     0.068 A 
ATOM     22 CL   UNL d   1      46.647  35.839  51.465  0.00  0.00    -0.082 Cl
ATOM     23  C   UNL d   1      47.051  36.293  52.758  0.00  0.00     0.068 A 
ATOM     24  C   UNL d   1      47.607  36.314  53.365  0.00  0.00     0.012 A 
ATOM     25 CL   UNL d   1      46.336  36.709  52.834  0.00  0.00    -0.082 Cl
ATOM     26  C   UNL d   1      48.320  35.899  53.287  0.00  0.00     0.003 A 
ENDBRANCH   3  19
TORSDOF 5
ENDMDL
