MODEL 1
REMARK VINA RESULT:      -8.7      0.000      0.000
REMARK  6 active torsions:
REMARK  status: ('A' for Active; 'I' for Inactive)
REMARK    1  A    between atoms: C_6  and  N_1 
REMARK    2  A    between atoms: C_12  and  C_6 
REMARK    3  A    between atoms: O_18  and  C_7 
REMARK    4  A    between atoms: O_19  and  C_10 
REMARK    5  A    between atoms: C_21  and  O_19 
REMARK    6  A    between atoms: C_23  and  C_21 
ROOT
ATOM      1  C   UNL d   1     -46.525  12.598  23.146  0.00  0.00     0.117 A 
ATOM      2  C   UNL d   1     -46.271  11.849  23.394  0.00  0.00     0.122 A 
ATOM      3  C   UNL d   1     -47.323  12.784  23.178  0.00  0.00     0.028 A 
ATOM      4  C   UNL d   1     -47.863  12.236  23.452  0.00  0.00     0.020 A 
ATOM      5  C   UNL d   1     -46.817  11.299  23.669  0.00  0.00     0.027 A 
ATOM      6  C   UNL d   1     -47.618  11.496  23.697  0.00  0.00     0.004 A 
ENDROOT
BRANCH   4   7
ATOM      7  C   UNL d   1     -48.664  12.432  23.481  0.00  0.00     0.085 C 
BRANCH   7   8
ATOM      8  N   UNL d   1     -49.096  12.497  22.780  0.00  0.00    -0.251 N 
ATOM      9  C   UNL d   1     -49.228  11.920  22.191  0.00  0.00     0.378 A 
ATOM     10  O   UNL d   1     -49.696  12.260  21.599  0.00  0.00    -0.258 OA
ATOM     11  O   UNL d   1     -48.940  11.150  22.205  0.00  0.00    -0.237 OA
ATOM     12  C   UNL d   1     -49.854  13.044  21.818  0.00  0.00     0.121 A 
ATOM     13  C   UNL d   1     -49.483  13.191  22.547  0.00  0.00     0.092 A 
ATOM     14  C   UNL d   1     -50.286  13.650  21.455  0.00  0.00     0.026 A 
ATOM     15  C   UNL d   1     -49.542  13.927  22.906  0.00  0.00     0.020 A 
ATOM     16  C   UNL d   1     -49.975  14.524  22.535  0.00  0.00     0.002 A 
ATOM     17  C   UNL d   1     -50.345  14.386  21.813  0.00  0.00     0.002 A 
ATOM     18  C   UNL d   1     -50.032  15.266  22.901  0.00  0.00     0.000 C 
ENDBRANCH   7   8
ENDBRANCH   4   7
BRANCH   1  19
ATOM     19  O   UNL d   1     -45.981  13.143  22.873  0.00  0.00    -0.326 OA
ATOM     20  C   UNL d   1     -46.196  13.855  23.231  0.00  0.00     0.181 C 
ENDBRANCH   1  19
BRANCH   2  21
ATOM     21  O   UNL d   1     -45.472  11.658  23.363  0.00  0.00    -0.303 OA
BRANCH  21  22
ATOM     22  C   UNL d   1     -45.228  10.902  23.556  0.00  0.00     0.123 C 
BRANCH  22  23
ATOM     23  C   UNL d   1     -44.436  10.687  23.465  0.00  0.00     0.027 C 
ATOM     24  C   UNL d   1     -44.181   9.940  23.698  0.00  0.00     0.002 C 
ENDBRANCH  22  23
ENDBRANCH  21  22
ENDBRANCH   2  21
TORSDOF 6
ENDMDL
MODEL 2
REMARK VINA RESULT:      -8.1      1.516      2.257
REMARK  6 active torsions:
REMARK  status: ('A' for Active; 'I' for Inactive)
REMARK    1  A    between atoms: C_6  and  N_1 
REMARK    2  A    between atoms: C_12  and  C_6 
REMARK    3  A    between atoms: O_18  and  C_7 
REMARK    4  A    between atoms: O_19  and  C_10 
REMARK    5  A    between atoms: C_21  and  O_19 
REMARK    6  A    between atoms: C_23  and  C_21 
ROOT
ATOM      1  C   UNL d   1     -46.161  12.492  23.185  0.00  0.00     0.117 A 
ATOM      2  C   UNL d   1     -45.684  12.932  22.669  0.00  0.00     0.122 A 
ATOM      3  C   UNL d   1     -46.888  12.792  23.417  0.00  0.00     0.028 A 
ATOM      4  C   UNL d   1     -47.140  13.519  23.142  0.00  0.00     0.020 A 
ATOM      5  C   UNL d   1     -45.940  13.663  22.394  0.00  0.00     0.027 A 
ATOM      6  C   UNL d   1     -46.674  13.957  22.633  0.00  0.00     0.004 A 
ENDROOT
BRANCH   4   7
ATOM      7  C   UNL d   1     -47.873  13.814  23.380  0.00  0.00     0.085 C 
BRANCH   7   8
ATOM      8  N   UNL d   1     -48.440  14.010  22.814  0.00  0.00    -0.251 N 
ATOM      9  C   UNL d   1     -48.472  14.678  22.314  0.00  0.00     0.378 A 
ATOM     10  O   UNL d   1     -49.152  14.617  21.845  0.00  0.00    -0.258 OA
ATOM     11  O   UNL d   1     -47.918  15.287  22.296  0.00  0.00    -0.237 OA
ATOM     12  C   UNL d   1     -49.541  13.915  22.053  0.00  0.00     0.121 A 
ATOM     13  C   UNL d   1     -49.102  13.540  22.651  0.00  0.00     0.092 A 
ATOM     14  C   UNL d   1     -50.238  13.561  21.781  0.00  0.00     0.026 A 
ATOM     15  C   UNL d   1     -49.354  12.826  22.970  0.00  0.00     0.020 A 
ATOM     16  C   UNL d   1     -50.051  12.482  22.691  0.00  0.00     0.002 A 
ATOM     17  C   UNL d   1     -50.491  12.848  22.099  0.00  0.00     0.002 A 
ATOM     18  C   UNL d   1     -50.301  11.762  23.016  0.00  0.00     0.000 C 
ENDBRANCH   7   8
ENDBRANCH   4   7
BRANCH   1  19
ATOM     19  O   UNL d   1     -45.906  11.765  23.457  0.00  0.00    -0.326 OA
ATOM     20  C   UNL d   1     -46.592  11.375  23.698  0.00  0.00     0.181 C 
ENDBRANCH   1  19
BRANCH   2  21
ATOM     21  O   UNL d   1     -44.955  12.634  22.434  0.00  0.00    -0.303 OA
BRANCH  21  22
ATOM     22  C   UNL d   1     -44.533  13.013  21.846  0.00  0.00     0.123 C 
BRANCH  22  23
ATOM     23  C   UNL d   1     -43.885  12.640  21.495  0.00  0.00     0.027 C 
ATOM     24  C   UNL d   1     -43.160  13.026  21.452  0.00  0.00     0.002 C 
ENDBRANCH  22  23
ENDBRANCH  21  22
ENDBRANCH   2  21
TORSDOF 6
ENDMDL
