MODEL 1
REMARK VINA RESULT:      33.7      0.000      0.000
REMARK  4 active torsions:
REMARK  status: ('A' for Active; 'I' for Inactive)
REMARK    1  A    between atoms: N_5  and  C_1 
REMARK    2  A    between atoms: N_8  and  C_3 
REMARK    3  A    between atoms: C_14  and  N_8 
REMARK    4  A    between atoms: C_16  and  C_14 
ROOT
ATOM      1  C   UNL d   1      46.106 -17.141  43.995  0.00  0.00     0.737 A 
ATOM      2  N   UNL d   1      46.263 -17.337  43.204  0.00  0.00    -0.041 NA
ATOM      3  C   UNL d   1      46.430 -18.124  42.994  0.00  0.00     0.182 A 
ATOM      4  N   UNL d   1      46.115 -17.731  44.581  0.00  0.00    -0.060 NA
ATOM      5  C   UNL d   1      46.439 -18.714  43.576  0.00  0.00     0.055 A 
ATOM      6  C   UNL d   1      46.284 -18.524  44.363  0.00  0.00     0.103 A 
ATOM      7  C   UNL d   1      46.606 -19.499  43.365  0.00  0.00     0.005 A 
ATOM      8  C   UNL d   1      46.293 -19.117  44.954  0.00  0.00     0.020 A 
ATOM      9  C   UNL d   1      46.616 -20.087  43.942  0.00  0.00     0.000 A 
ATOM     10  C   UNL d   1      46.460 -19.895  44.738  0.00  0.00     0.002 A 
ENDROOT
BRANCH   3  11
ATOM     11  N   UNL d   1      46.592 -18.327  42.171  0.00  0.00    -0.225 NA
BRANCH  11  12
ATOM     12  C   UNL d   1      46.139 -18.134  41.590  0.00  0.00     0.101 C 
BRANCH  12  13
ATOM     13  C   UNL d   1      46.211 -18.495  40.927  0.00  0.00     0.019 A 
ATOM     14  C   UNL d   1      46.571 -19.161  40.909  0.00  0.00     0.002 A 
ATOM     15  C   UNL d   1      46.647 -19.526  40.259  0.00  0.00     0.000 A 
ATOM     16  C   UNL d   1      46.362 -19.227  39.615  0.00  0.00     0.000 A 
ATOM     17  C   UNL d   1      46.007 -18.564  39.641  0.00  0.00     0.000 A 
ATOM     18  C   UNL d   1      45.928 -18.194  40.295  0.00  0.00     0.002 A 
ENDBRANCH  12  13
ENDBRANCH  11  12
ENDBRANCH   3  11
BRANCH   1  19
ATOM     19  N   UNL d   1      45.935 -16.339  44.214  0.00  0.00    -0.134 N 
ATOM     20  C   UNL d   1      45.255 -16.163  44.701  0.00  0.00     0.117 A 
ATOM     21  C   UNL d   1      45.090 -15.352  44.917  0.00  0.00     0.100 A 
ATOM     22  N   UNL d   1      45.593 -14.724  44.653  0.00  0.00    -0.299 N 
ATOM     23  C   UNL d   1      46.273 -14.900  44.167  0.00  0.00     0.100 A 
ATOM     24  C   UNL d   1      45.423 -13.917  44.872  0.00  0.00     0.100 C 
ATOM     25  C   UNL d   1      46.448 -15.703  43.945  0.00  0.00     0.117 A 
ENDBRANCH   1  19
TORSDOF 4
ENDMDL
