MODEL 1
REMARK VINA RESULT:      -7.4      0.000      0.000
REMARK  2 active torsions:
REMARK  status: ('A' for Active; 'I' for Inactive)
REMARK    1  A    between atoms: C_6  and  C_3 
REMARK    2  A    between atoms: C_9  and  C_6 
ROOT
ATOM      1  C   UNL d   1     -47.633  13.614  22.897  0.00  0.00     0.011 C 
ENDROOT
BRANCH   1   2
ATOM      2  C   UNL d   1     -46.959  13.140  23.045  0.00  0.00     0.092 A 
ATOM      3  C   UNL d   1     -46.190  13.319  22.934  0.00  0.00     0.288 A 
ATOM      4  N   UNL d   1     -45.743  12.693  23.154  0.00  0.00    -0.163 NA
ATOM      5  O   UNL d   1     -45.905  14.072  22.625  0.00  0.00    -0.265 OA
ATOM      6  C   UNL d   1     -46.287  12.106  23.412  0.00  0.00     0.313 A 
ATOM      7  S   UNL d   1     -47.023  12.419  23.329  0.00  0.00    -0.021 SA
ATOM      8  O   UNL d   1     -46.073  11.341  23.698  0.00  0.00    -0.258 OA
ENDBRANCH   1   2
BRANCH   1   9
ATOM      9  C   UNL d   1     -48.306  13.348  22.498  0.00  0.00     0.001 A 
ATOM     10  C   UNL d   1     -48.323  13.179  21.691  0.00  0.00     0.001 A 
ATOM     11  C   UNL d   1     -48.998  12.922  21.340  0.00  0.00     0.011 A 
ATOM     12  C   UNL d   1     -49.708  12.818  21.792  0.00  0.00     0.058 A 
ATOM     13  C   UNL d   1     -49.691  12.987  22.599  0.00  0.00     0.011 A 
ATOM     14 CL   UNL d   1     -50.411  12.555  21.447  0.00  0.00    -0.082 Cl
ATOM     15  C   UNL d   1     -48.982  13.256  22.961  0.00  0.00     0.001 A 
ENDBRANCH   1   9
TORSDOF 2
ENDMDL
MODEL 2
REMARK VINA RESULT:      -7.1      1.698      2.156
REMARK  2 active torsions:
REMARK  status: ('A' for Active; 'I' for Inactive)
REMARK    1  A    between atoms: C_6  and  C_3 
REMARK    2  A    between atoms: C_9  and  C_6 
ROOT
ATOM      1  C   UNL d   1     -48.521  13.083  22.402  0.00  0.00     0.011 C 
ENDROOT
BRANCH   1   2
ATOM      2  C   UNL d   1     -47.901  12.684  22.799  0.00  0.00     0.092 A 
ATOM      3  C   UNL d   1     -47.866  11.920  23.028  0.00  0.00     0.288 A 
ATOM      4  N   UNL d   1     -47.165  11.789  23.389  0.00  0.00    -0.163 NA
ATOM      5  O   UNL d   1     -48.494  11.344  22.897  0.00  0.00    -0.265 OA
ATOM      6  C   UNL d   1     -46.760  12.526  23.372  0.00  0.00     0.313 A 
ATOM      7  S   UNL d   1     -47.246  13.050  23.002  0.00  0.00    -0.021 SA
ATOM      8  O   UNL d   1     -45.990  12.663  23.691  0.00  0.00    -0.258 OA
ENDBRANCH   1   2
BRANCH   1   9
ATOM      9  C   UNL d   1     -48.895  13.759  22.692  0.00  0.00     0.001 A 
ATOM     10  C   UNL d   1     -49.431  13.752  23.319  0.00  0.00     0.001 A 
ATOM     11  C   UNL d   1     -49.775  14.433  23.572  0.00  0.00     0.011 A 
ATOM     12  C   UNL d   1     -49.595  15.173  23.200  0.00  0.00     0.058 A 
ATOM     13  C   UNL d   1     -49.059  15.180  22.573  0.00  0.00     0.011 A 
ATOM     14 CL   UNL d   1     -49.939  15.882  23.448  0.00  0.00    -0.082 Cl
ATOM     15  C   UNL d   1     -48.702  14.465  22.312  0.00  0.00     0.001 A 
ENDBRANCH   1   9
TORSDOF 2
ENDMDL
MODEL 3
REMARK VINA RESULT:      -6.8      2.460      3.390
REMARK  2 active torsions:
REMARK  status: ('A' for Active; 'I' for Inactive)
REMARK    1  A    between atoms: C_6  and  C_3 
REMARK    2  A    between atoms: C_9  and  C_6 
ROOT
ATOM      1  C   UNL d   1     -48.330  12.747  23.503  0.00  0.00     0.011 C 
ENDROOT
BRANCH   1   2
ATOM      2  C   UNL d   1     -48.970  12.475  23.036  0.00  0.00     0.092 A 
ATOM      3  C   UNL d   1     -49.380  11.794  23.103  0.00  0.00     0.288 A 
ATOM      4  N   UNL d   1     -49.943  11.773  22.535  0.00  0.00    -0.163 NA
ATOM      5  O   UNL d   1     -49.227  11.189  23.698  0.00  0.00    -0.265 OA
ATOM      6  C   UNL d   1     -49.858  12.491  22.106  0.00  0.00     0.313 A 
ATOM      7  S   UNL d   1     -49.250  12.894  22.444  0.00  0.00    -0.021 SA
ATOM      8  O   UNL d   1     -50.334  12.721  21.447  0.00  0.00    -0.258 OA
ENDBRANCH   1   2
BRANCH   1   9
ATOM      9  C   UNL d   1     -47.614  13.016  23.191  0.00  0.00     0.001 A 
ATOM     10  C   UNL d   1     -47.500  13.779  22.900  0.00  0.00     0.001 A 
ATOM     11  C   UNL d   1     -46.788  14.003  22.605  0.00  0.00     0.011 A 
ATOM     12  C   UNL d   1     -46.137  13.460  22.586  0.00  0.00     0.058 A 
ATOM     13  C   UNL d   1     -46.251  12.697  22.878  0.00  0.00     0.011 A 
ATOM     14 CL   UNL d   1     -45.397  13.674  22.286  0.00  0.00    -0.082 Cl
ATOM     15  C   UNL d   1     -46.998  12.468  23.186  0.00  0.00     0.001 A 
ENDBRANCH   1   9
TORSDOF 2
ENDMDL
MODEL 4
REMARK VINA RESULT:      -6.6      2.799      3.586
REMARK  2 active torsions:
REMARK  status: ('A' for Active; 'I' for Inactive)
REMARK    1  A    between atoms: C_6  and  C_3 
REMARK    2  A    between atoms: C_9  and  C_6 
ROOT
ATOM      1  C   UNL d   1     -48.781  13.864  21.991  0.00  0.00     0.011 C 
ENDROOT
BRANCH   1   2
ATOM      2  C   UNL d   1     -49.353  14.368  22.336  0.00  0.00     0.092 A 
ATOM      3  C   UNL d   1     -50.139  14.398  22.198  0.00  0.00     0.288 A 
ATOM      4  N   UNL d   1     -50.462  14.968  22.657  0.00  0.00    -0.163 NA
ATOM      5  O   UNL d   1     -50.555  13.889  21.640  0.00  0.00    -0.265 OA
ATOM      6  C   UNL d   1     -49.823  15.296  23.094  0.00  0.00     0.313 A 
ATOM      7  S   UNL d   1     -49.159  14.900  22.869  0.00  0.00    -0.021 SA
ATOM      8  O   UNL d   1     -49.892  15.921  23.657  0.00  0.00    -0.258 OA
ENDBRANCH   1   2
BRANCH   1   9
ATOM      9  C   UNL d   1     -48.262  13.390  22.425  0.00  0.00     0.001 A 
ATOM     10  C   UNL d   1     -48.496  12.719  22.843  0.00  0.00     0.001 A 
ATOM     11  C   UNL d   1     -47.960  12.284  23.253  0.00  0.00     0.011 A 
ATOM     12  C   UNL d   1     -47.142  12.506  23.267  0.00  0.00     0.058 A 
ATOM     13  C   UNL d   1     -46.908  13.177  22.849  0.00  0.00     0.011 A 
ATOM     14 CL   UNL d   1     -46.577  12.070  23.684  0.00  0.00    -0.082 Cl
ATOM     15  C   UNL d   1     -47.473  13.629  22.421  0.00  0.00     0.001 A 
ENDBRANCH   1   9
TORSDOF 2
ENDMDL
