MODEL 1
REMARK VINA RESULT:      -2.9      0.000      0.000
REMARK  3 active torsions:
REMARK  status: ('A' for Active; 'I' for Inactive)
REMARK    1  A    between atoms: C_11  and  C_6 
REMARK    2  A    between atoms: O_20  and  C_11 
REMARK    3  A    between atoms: C_22  and  O_20 
ROOT
ATOM      1  C   UNL d   1      59.626  -9.524  32.124  0.00  0.00     0.155 A 
ATOM      2  C   UNL d   1      58.928  -9.483  32.562  0.00  0.00     0.091 A 
ATOM      3  N   UNL d   1      59.595  -9.617  31.307  0.00  0.00    -0.210 NA
ATOM      4  N   UNL d   1      58.169  -9.626  31.364  0.00  0.00    -0.258 N 
ATOM      5  N   UNL d   1      60.354  -9.474  32.505  0.00  0.00    -0.272 N 
ATOM      6  C   UNL d   1      59.692  -9.339  33.767  0.00  0.00     0.100 A 
ATOM      7  C   UNL d   1      58.871  -9.666  30.933  0.00  0.00     0.152 A 
ATOM      8  C   UNL d   1      58.199  -9.533  32.182  0.00  0.00     0.269 A 
ATOM      9  C   UNL d   1      60.390  -9.380  33.329  0.00  0.00     0.176 A 
ATOM     10  C   UNL d   1      58.955  -9.390  33.382  0.00  0.00     0.016 A 
ATOM     11  C   UNL d   1      58.836  -9.759  30.110  0.00  0.00     0.035 A 
ATOM     12  C   UNL d   1      57.440  -9.676  30.985  0.00  0.00     0.084 A 
ATOM     13  N   UNL d   1      61.120  -9.329  33.712  0.00  0.00    -0.128 N 
ATOM     14  O   UNL d   1      57.501  -9.492  32.620  0.00  0.00    -0.266 OA
ATOM     15  C   UNL d   1      57.415  -9.768  30.174  0.00  0.00     0.019 A 
ATOM     16  C   UNL d   1      58.113  -9.809  29.737  0.00  0.00     0.005 A 
ATOM     17  C   UNL d   1      61.053  -9.515  32.067  0.00  0.00     0.102 C 
ATOM     18  C   UNL d   1      59.535  -9.801  29.672  0.00  0.00     0.003 C 
ENDROOT
BRANCH   6  19
ATOM     19  C   UNL d   1      59.724  -9.246  34.588  0.00  0.00     0.303 C 
ATOM     20  O   UNL d   1      60.111  -9.808  35.051  0.00  0.00    -0.259 OA
BRANCH  19  21
ATOM     21  O   UNL d   1      59.368  -8.592  34.942  0.00  0.00    -0.271 OA
BRANCH  21  22
ATOM     22  C   UNL d   1      59.513  -8.428  35.735  0.00  0.00     0.126 C 
ATOM     23  C   UNL d   1      59.076  -7.844  36.119  0.00  0.00     0.029 C 
ENDBRANCH  21  22
ENDBRANCH  19  21
ENDBRANCH   6  19
TORSDOF 3
ENDMDL
MODEL 2
REMARK VINA RESULT:      -2.7      8.834      9.747
REMARK  3 active torsions:
REMARK  status: ('A' for Active; 'I' for Inactive)
REMARK    1  A    between atoms: C_11  and  C_6 
REMARK    2  A    between atoms: O_20  and  C_11 
REMARK    3  A    between atoms: C_22  and  O_20 
ROOT
ATOM      1  C   UNL d   1      57.723  -0.161  31.833  0.00  0.00     0.155 A 
ATOM      2  C   UNL d   1      57.252  -0.723  31.455  0.00  0.00     0.091 A 
ATOM      3  N   UNL d   1      57.513   0.120  32.577  0.00  0.00    -0.210 NA
ATOM      4  N   UNL d   1      56.360  -0.723  32.566  0.00  0.00    -0.258 N 
ATOM      5  N   UNL d   1      58.405   0.120  31.466  0.00  0.00    -0.272 N 
ATOM      6  C   UNL d   1      58.150  -0.723  30.337  0.00  0.00     0.100 A 
ATOM      7  C   UNL d   1      56.836  -0.161  32.938  0.00  0.00     0.152 A 
ATOM      8  C   UNL d   1      56.571  -1.005  31.821  0.00  0.00     0.269 A 
ATOM      9  C   UNL d   1      58.621  -0.161  30.715  0.00  0.00     0.176 A 
ATOM     10  C   UNL d   1      57.461  -1.007  30.708  0.00  0.00     0.016 A 
ATOM     11  C   UNL d   1      56.621   0.120  33.689  0.00  0.00     0.035 A 
ATOM     12  C   UNL d   1      55.679  -1.005  32.932  0.00  0.00     0.084 A 
ATOM     13  N   UNL d   1      59.304   0.120  30.346  0.00  0.00    -0.128 N 
ATOM     14  O   UNL d   1      56.100  -1.567  31.443  0.00  0.00    -0.266 OA
ATOM     15  C   UNL d   1      55.474  -0.723  33.671  0.00  0.00     0.019 A 
ATOM     16  C   UNL d   1      55.945  -0.161  34.049  0.00  0.00     0.005 A 
ATOM     17  C   UNL d   1      58.876   0.682  31.844  0.00  0.00     0.102 C 
ATOM     18  C   UNL d   1      57.091   0.682  34.067  0.00  0.00     0.003 C 
ENDROOT
BRANCH   6  19
ATOM     19  C   UNL d   1      58.363  -1.005  29.590  0.00  0.00     0.303 C 
ATOM     20  O   UNL d   1      58.287  -0.517  28.929  0.00  0.00    -0.259 OA
BRANCH  19  21
ATOM     21  O   UNL d   1      58.650  -1.772  29.506  0.00  0.00    -0.271 OA
BRANCH  21  22
ATOM     22  C   UNL d   1      58.792  -2.076  28.754  0.00  0.00     0.126 C 
ATOM     23  C   UNL d   1      59.159  -2.809  28.671  0.00  0.00     0.029 C 
ENDBRANCH  21  22
ENDBRANCH  19  21
ENDBRANCH   6  19
TORSDOF 3
ENDMDL
MODEL 3
REMARK VINA RESULT:      -2.1      9.642     10.009
REMARK  3 active torsions:
REMARK  status: ('A' for Active; 'I' for Inactive)
REMARK    1  A    between atoms: C_11  and  C_6 
REMARK    2  A    between atoms: O_20  and  C_11 
REMARK    3  A    between atoms: C_22  and  O_20 
ROOT
ATOM      1  C   UNL d   1      58.739   0.366  31.391  0.00  0.00     0.155 A 
ATOM      2  C   UNL d   1      58.108   0.169  30.898  0.00  0.00     0.091 A 
ATOM      3  N   UNL d   1      59.497   0.444  31.080  0.00  0.00    -0.210 NA
ATOM      4  N   UNL d   1      58.993   0.128  29.782  0.00  0.00    -0.258 N 
ATOM      5  N   UNL d   1      58.612   0.484  32.196  0.00  0.00    -0.272 N 
ATOM      6  C   UNL d   1      57.218   0.209  32.022  0.00  0.00     0.100 A 
ATOM      7  C   UNL d   1      59.619   0.326  30.281  0.00  0.00     0.152 A 
ATOM      8  C   UNL d   1      58.234   0.050  30.093  0.00  0.00     0.269 A 
ATOM      9  C   UNL d   1      57.849   0.406  32.515  0.00  0.00     0.176 A 
ATOM     10  C   UNL d   1      57.346   0.089  31.207  0.00  0.00     0.016 A 
ATOM     11  C   UNL d   1      60.381   0.404  29.963  0.00  0.00     0.035 A 
ATOM     12  C   UNL d   1      59.118   0.010  28.977  0.00  0.00     0.084 A 
ATOM     13  N   UNL d   1      57.720   0.525  33.322  0.00  0.00    -0.128 N 
ATOM     14  O   UNL d   1      57.603  -0.147  29.600  0.00  0.00    -0.266 OA
ATOM     15  C   UNL d   1      59.872   0.088  28.672  0.00  0.00     0.019 A 
ATOM     16  C   UNL d   1      60.503   0.285  29.165  0.00  0.00     0.005 A 
ATOM     17  C   UNL d   1      59.244   0.681  32.689  0.00  0.00     0.102 C 
ATOM     18  C   UNL d   1      61.013   0.601  30.456  0.00  0.00     0.003 C 
ENDROOT
BRANCH   6  19
ATOM     19  C   UNL d   1      56.457   0.131  32.336  0.00  0.00     0.303 C 
ATOM     20  O   UNL d   1      55.874   0.682  32.145  0.00  0.00    -0.259 OA
BRANCH  19  21
ATOM     21  O   UNL d   1      56.283  -0.498  32.839  0.00  0.00    -0.271 OA
BRANCH  21  22
ATOM     22  C   UNL d   1      55.501  -0.729  32.949  0.00  0.00     0.126 C 
ATOM     23  C   UNL d   1      55.334  -1.434  33.342  0.00  0.00     0.029 C 
ENDBRANCH  21  22
ENDBRANCH  19  21
ENDBRANCH   6  19
TORSDOF 3
ENDMDL
MODEL 4
REMARK VINA RESULT:      -1.7      1.337      3.942
REMARK  3 active torsions:
REMARK  status: ('A' for Active; 'I' for Inactive)
REMARK    1  A    between atoms: C_11  and  C_6 
REMARK    2  A    between atoms: O_20  and  C_11 
REMARK    3  A    between atoms: C_22  and  O_20 
ROOT
ATOM      1  C   UNL d   1      59.868  -9.800  32.195  0.00  0.00     0.155 A 
ATOM      2  C   UNL d   1      59.044  -9.807  32.161  0.00  0.00     0.091 A 
ATOM      3  N   UNL d   1      60.250  -9.795  32.924  0.00  0.00    -0.210 NA
ATOM      4  N   UNL d   1      58.984  -9.803  33.585  0.00  0.00    -0.258 N 
ATOM      5  N   UNL d   1      60.309  -9.798  31.500  0.00  0.00    -0.272 N 
ATOM      6  C   UNL d   1      59.104  -9.810  30.728  0.00  0.00     0.100 A 
ATOM      7  C   UNL d   1      59.808  -9.797  33.611  0.00  0.00     0.152 A 
ATOM      8  C   UNL d   1      58.601  -9.808  32.855  0.00  0.00     0.269 A 
ATOM      9  C   UNL d   1      59.928  -9.803  30.763  0.00  0.00     0.176 A 
ATOM     10  C   UNL d   1      58.657  -9.812  31.431  0.00  0.00     0.016 A 
ATOM     11  C   UNL d   1      60.190  -9.792  34.348  0.00  0.00     0.035 A 
ATOM     12  C   UNL d   1      58.541  -9.805  34.279  0.00  0.00     0.084 A 
ATOM     13  N   UNL d   1      60.369  -9.801  30.065  0.00  0.00    -0.128 N 
ATOM     14  O   UNL d   1      57.777  -9.815  32.820  0.00  0.00    -0.266 OA
ATOM     15  C   UNL d   1      58.925  -9.800  34.999  0.00  0.00     0.019 A 
ATOM     16  C   UNL d   1      59.749  -9.793  35.034  0.00  0.00     0.005 A 
ATOM     17  C   UNL d   1      61.133  -9.791  31.535  0.00  0.00     0.102 C 
ATOM     18  C   UNL d   1      61.014  -9.785  34.382  0.00  0.00     0.003 C 
ENDROOT
BRANCH   6  19
ATOM     19  C   UNL d   1      58.721  -9.815  29.995  0.00  0.00     0.303 C 
ATOM     20  O   UNL d   1      59.163  -9.817  29.299  0.00  0.00    -0.259 OA
BRANCH  19  21
ATOM     21  O   UNL d   1      57.898  -9.818  29.962  0.00  0.00    -0.271 OA
BRANCH  21  22
ATOM     22  C   UNL d   1      57.518  -9.795  29.231  0.00  0.00     0.126 C 
ATOM     23  C   UNL d   1      56.695  -9.802  29.197  0.00  0.00     0.029 C 
ENDBRANCH  21  22
ENDBRANCH  19  21
ENDBRANCH   6  19
TORSDOF 3
ENDMDL
MODEL 5
REMARK VINA RESULT:      -1.3     10.242     10.908
REMARK  3 active torsions:
REMARK  status: ('A' for Active; 'I' for Inactive)
REMARK    1  A    between atoms: C_11  and  C_6 
REMARK    2  A    between atoms: O_20  and  C_11 
REMARK    3  A    between atoms: C_22  and  O_20 
ROOT
ATOM      1  C   UNL d   1      57.340   0.677  33.211  0.00  0.00     0.155 A 
ATOM      2  C   UNL d   1      56.842   0.676  32.553  0.00  0.00     0.091 A 
ATOM      3  N   UNL d   1      57.020   0.678  33.969  0.00  0.00    -0.210 NA
ATOM      4  N   UNL d   1      55.705   0.678  33.412  0.00  0.00    -0.258 N 
ATOM      5  N   UNL d   1      58.157   0.676  33.110  0.00  0.00    -0.272 N 
ATOM      6  C   UNL d   1      57.986   0.674  31.688  0.00  0.00     0.100 A 
ATOM      7  C   UNL d   1      56.209   0.678  34.065  0.00  0.00     0.152 A 
ATOM      8  C   UNL d   1      56.025   0.677  32.652  0.00  0.00     0.269 A 
ATOM      9  C   UNL d   1      58.484   0.675  32.346  0.00  0.00     0.176 A 
ATOM     10  C   UNL d   1      57.159   0.675  31.790  0.00  0.00     0.016 A 
ATOM     11  C   UNL d   1      55.883   0.680  34.828  0.00  0.00     0.035 A 
ATOM     12  C   UNL d   1      54.888   0.679  33.512  0.00  0.00     0.084 A 
ATOM     13  N   UNL d   1      59.303   0.674  32.243  0.00  0.00    -0.128 N 
ATOM     14  O   UNL d   1      55.528   0.676  31.994  0.00  0.00    -0.266 OA
ATOM     15  C   UNL d   1      54.576   0.680  34.266  0.00  0.00     0.019 A 
ATOM     16  C   UNL d   1      55.073   0.680  34.924  0.00  0.00     0.005 A 
ATOM     17  C   UNL d   1      58.654   0.677  33.768  0.00  0.00     0.102 C 
ATOM     18  C   UNL d   1      56.381   0.680  35.486  0.00  0.00     0.003 C 
ENDROOT
BRANCH   6  19
ATOM     19  C   UNL d   1      58.308   0.673  30.927  0.00  0.00     0.303 C 
ATOM     20  O   UNL d   1      59.127   0.676  30.826  0.00  0.00    -0.259 OA
BRANCH  19  21
ATOM     21  O   UNL d   1      57.811   0.669  30.270  0.00  0.00    -0.271 OA
BRANCH  21  22
ATOM     22  C   UNL d   1      58.132   0.617  29.514  0.00  0.00     0.126 C 
ATOM     23  C   UNL d   1      57.636   0.628  28.856  0.00  0.00     0.029 C 
ENDBRANCH  21  22
ENDBRANCH  19  21
ENDBRANCH   6  19
TORSDOF 3
ENDMDL
MODEL 6
REMARK VINA RESULT:      -0.7     10.244     10.564
REMARK  3 active torsions:
REMARK  status: ('A' for Active; 'I' for Inactive)
REMARK    1  A    between atoms: C_11  and  C_6 
REMARK    2  A    between atoms: O_20  and  C_11 
REMARK    3  A    between atoms: C_22  and  O_20 
ROOT
ATOM      1  C   UNL d   1      57.385   0.631  32.784  0.00  0.00     0.155 A 
ATOM      2  C   UNL d   1      56.642   0.646  32.428  0.00  0.00     0.091 A 
ATOM      3  N   UNL d   1      58.065   0.631  32.321  0.00  0.00    -0.210 NA
ATOM      4  N   UNL d   1      57.258   0.661  31.143  0.00  0.00    -0.258 N 
ATOM      5  N   UNL d   1      57.448   0.617  33.605  0.00  0.00    -0.272 N 
ATOM      6  C   UNL d   1      56.021   0.632  33.720  0.00  0.00     0.100 A 
ATOM      7  C   UNL d   1      57.998   0.646  31.507  0.00  0.00     0.152 A 
ATOM      8  C   UNL d   1      56.577   0.661  31.607  0.00  0.00     0.269 A 
ATOM      9  C   UNL d   1      56.765   0.617  34.077  0.00  0.00     0.176 A 
ATOM     10  C   UNL d   1      55.957   0.646  32.890  0.00  0.00     0.016 A 
ATOM     11  C   UNL d   1      58.681   0.646  31.036  0.00  0.00     0.035 A 
ATOM     12  C   UNL d   1      57.194   0.675  30.322  0.00  0.00     0.084 A 
ATOM     13  N   UNL d   1      56.827   0.602  34.901  0.00  0.00    -0.128 N 
ATOM     14  O   UNL d   1      55.833   0.675  31.250  0.00  0.00    -0.266 OA
ATOM     15  C   UNL d   1      57.871   0.675  29.866  0.00  0.00     0.019 A 
ATOM     16  C   UNL d   1      58.614   0.660  30.223  0.00  0.00     0.005 A 
ATOM     17  C   UNL d   1      58.192   0.602  33.962  0.00  0.00     0.102 C 
ATOM     18  C   UNL d   1      59.425   0.631  31.393  0.00  0.00     0.003 C 
ENDROOT
BRANCH   6  19
ATOM     19  C   UNL d   1      55.339   0.632  34.187  0.00  0.00     0.303 C 
ATOM     20  O   UNL d   1      55.402   0.682  35.008  0.00  0.00    -0.259 OA
BRANCH  19  21
ATOM     21  O   UNL d   1      54.597   0.582  33.832  0.00  0.00    -0.271 OA
BRANCH  21  22
ATOM     22  C   UNL d   1      53.918   0.673  34.288  0.00  0.00     0.126 C 
ATOM     23  C   UNL d   1      53.177   0.591  33.939  0.00  0.00     0.029 C 
ENDBRANCH  21  22
ENDBRANCH  19  21
ENDBRANCH   6  19
TORSDOF 3
ENDMDL
MODEL 7
REMARK VINA RESULT:      -0.7     10.183     10.787
REMARK  3 active torsions:
REMARK  status: ('A' for Active; 'I' for Inactive)
REMARK    1  A    between atoms: C_11  and  C_6 
REMARK    2  A    between atoms: O_20  and  C_11 
REMARK    3  A    between atoms: C_22  and  O_20 
ROOT
ATOM      1  C   UNL d   1      56.722   0.577  32.383  0.00  0.00     0.155 A 
ATOM      2  C   UNL d   1      57.416   0.595  32.829  0.00  0.00     0.091 A 
ATOM      3  N   UNL d   1      55.990   0.589  32.759  0.00  0.00    -0.210 NA
ATOM      4  N   UNL d   1      56.645   0.638  34.026  0.00  0.00    -0.258 N 
ATOM      5  N   UNL d   1      56.761   0.547  31.561  0.00  0.00    -0.272 N 
ATOM      6  C   UNL d   1      58.192   0.552  31.623  0.00  0.00     0.100 A 
ATOM      7  C   UNL d   1      55.956   0.620  33.574  0.00  0.00     0.152 A 
ATOM      8  C   UNL d   1      57.378   0.626  33.650  0.00  0.00     0.269 A 
ATOM      9  C   UNL d   1      57.498   0.534  31.177  0.00  0.00     0.176 A 
ATOM     10  C   UNL d   1      58.152   0.583  32.455  0.00  0.00     0.016 A 
ATOM     11  C   UNL d   1      55.220   0.632  33.956  0.00  0.00     0.035 A 
ATOM     12  C   UNL d   1      56.607   0.668  34.848  0.00  0.00     0.084 A 
ATOM     13  N   UNL d   1      57.539   0.504  30.353  0.00  0.00    -0.128 N 
ATOM     14  O   UNL d   1      58.072   0.644  34.096  0.00  0.00    -0.266 OA
ATOM     15  C   UNL d   1      55.879   0.680  35.217  0.00  0.00     0.019 A 
ATOM     16  C   UNL d   1      55.185   0.662  34.771  0.00  0.00     0.005 A 
ATOM     17  C   UNL d   1      56.067   0.528  31.115  0.00  0.00     0.102 C 
ATOM     18  C   UNL d   1      54.526   0.614  33.510  0.00  0.00     0.003 C 
ENDROOT
BRANCH   6  19
ATOM     19  C   UNL d   1      58.926   0.540  31.245  0.00  0.00     0.303 C 
ATOM     20  O   UNL d   1      58.970   0.399  30.433  0.00  0.00    -0.259 OA
BRANCH  19  21
ATOM     21  O   UNL d   1      59.615   0.668  31.679  0.00  0.00    -0.271 OA
BRANCH  21  22
ATOM     22  C   UNL d   1      60.346   0.650  31.301  0.00  0.00     0.126 C 
ATOM     23  C   UNL d   1      61.038   0.682  31.747  0.00  0.00     0.029 C 
ENDBRANCH  21  22
ENDBRANCH  19  21
ENDBRANCH   6  19
TORSDOF 3
ENDMDL
