MODEL 1
REMARK VINA RESULT:       2.0      0.000      0.000
REMARK  5 active torsions:
REMARK  status: ('A' for Active; 'I' for Inactive)
REMARK    1  A    between atoms: C_13  and  C_2 
REMARK       I    between atoms: N_7  and  C_10 
REMARK    2  A    between atoms: S_14  and  C_8 
REMARK    3  A    between atoms: C_20  and  N_9 
REMARK    4  A    between atoms: C_10  and  C_19 
REMARK    5  A    between atoms: C_19  and  S_14 
ROOT
ATOM      1  S   UNL d   1      56.209   0.139  32.348  0.00  0.00    -0.061 SA
ENDROOT
BRANCH   1   2
ATOM      2  C   UNL d   1      56.114   0.248  33.162  0.00  0.00     0.131 A 
ATOM      3  N   UNL d   1      55.359   0.341  33.482  0.00  0.00    -0.156 NA
ATOM      4  N   UNL d   1      55.263   0.451  34.308  0.00  0.00    -0.191 N 
ATOM      5  C   UNL d   1      54.592   0.555  34.767  0.00  0.00     0.187 A 
ATOM      6  C   UNL d   1      55.924   0.465  34.790  0.00  0.00     0.187 A 
ATOM      7  N   UNL d   1      54.832   0.636  35.547  0.00  0.00    -0.127 NA
ATOM      8  N   UNL d   1      55.656   0.581  35.570  0.00  0.00    -0.127 NA
ATOM      9  C   UNL d   1      56.679   0.372  34.471  0.00  0.00     0.043 A 
ATOM     10  C   UNL d   1      56.774   0.263  33.657  0.00  0.00     0.031 A 
BRANCH   5  11
ATOM     11  C   UNL d   1      53.816   0.577  34.503  0.00  0.00     0.038 A 
ATOM     12  C   UNL d   1      53.648   0.521  33.703  0.00  0.00     0.003 A 
ATOM     13  C   UNL d   1      52.867   0.542  33.434  0.00  0.00     0.000 A 
ATOM     14  C   UNL d   1      52.252   0.621  33.983  0.00  0.00     0.000 A 
ATOM     15  C   UNL d   1      52.416   0.677  34.790  0.00  0.00     0.000 A 
ATOM     16  C   UNL d   1      53.202   0.655  35.052  0.00  0.00     0.003 A 
ENDBRANCH   5  11
ENDBRANCH   1   2
BRANCH   1  17
ATOM     17  C   UNL d   1      56.963   0.032  32.034  0.00  0.00     0.098 C 
BRANCH  17  18
ATOM     18  C   UNL d   1      57.079  -0.512  31.436  0.00  0.00     0.272 C 
ATOM     19  N   UNL d   1      57.738  -0.442  30.945  0.00  0.00    -0.269 N 
ATOM     20  C   UNL d   1      57.853  -0.986  30.349  0.00  0.00     0.102 A 
ATOM     21  C   UNL d   1      58.274   0.176  31.062  0.00  0.00     0.102 A 
ATOM     22  C   UNL d   1      58.502  -0.919  29.864  0.00  0.00     0.100 A 
ATOM     23  N   UNL d   1      59.047  -0.306  29.968  0.00  0.00    -0.301 N 
ATOM     24  C   UNL d   1      58.925   0.241  30.573  0.00  0.00     0.100 A 
ATOM     25  O   UNL d   1      56.544  -1.126  31.323  0.00  0.00    -0.266 OA
BRANCH  23  26
ATOM     26  C   UNL d   1      59.698  -0.245  29.475  0.00  0.00     0.064 A 
ATOM     27  C   UNL d   1      59.766   0.385  28.951  0.00  0.00     0.018 A 
ATOM     28  C   UNL d   1      60.426   0.441  28.456  0.00  0.00     0.002 A 
ATOM     29  C   UNL d   1      61.009  -0.132  28.490  0.00  0.00     0.000 A 
ATOM     30  C   UNL d   1      60.945  -0.774  29.019  0.00  0.00     0.002 A 
ATOM     31  C   UNL d   1      60.287  -0.825  29.509  0.00  0.00     0.018 A 
ENDBRANCH  23  26
ENDBRANCH  17  18
ENDBRANCH   1  17
TORSDOF 5
ENDMDL
MODEL 2
REMARK VINA RESULT:       3.3      5.390      7.998
REMARK  5 active torsions:
REMARK  status: ('A' for Active; 'I' for Inactive)
REMARK    1  A    between atoms: C_13  and  C_2 
REMARK       I    between atoms: N_7  and  C_10 
REMARK    2  A    between atoms: S_14  and  C_8 
REMARK    3  A    between atoms: C_20  and  N_9 
REMARK    4  A    between atoms: C_10  and  C_19 
REMARK    5  A    between atoms: C_19  and  S_14 
ROOT
ATOM      1  S   UNL d   1      59.456  -5.319  28.547  0.00  0.00    -0.061 SA
ENDROOT
BRANCH   1   2
ATOM      2  C   UNL d   1      58.712  -5.678  28.524  0.00  0.00     0.131 A 
ATOM      3  N   UNL d   1      58.649  -6.501  28.544  0.00  0.00    -0.156 NA
ATOM      4  N   UNL d   1      57.894  -6.866  28.519  0.00  0.00    -0.191 N 
ATOM      5  C   UNL d   1      57.672  -7.654  28.531  0.00  0.00     0.187 A 
ATOM      6  C   UNL d   1      57.224  -6.397  28.476  0.00  0.00     0.187 A 
ATOM      7  N   UNL d   1      56.853  -7.684  28.495  0.00  0.00    -0.127 NA
ATOM      8  N   UNL d   1      56.567  -6.910  28.460  0.00  0.00    -0.127 NA
ATOM      9  C   UNL d   1      57.287  -5.575  28.455  0.00  0.00     0.043 A 
ATOM     10  C   UNL d   1      58.030  -5.215  28.479  0.00  0.00     0.031 A 
BRANCH   5  11
ATOM     11  C   UNL d   1      58.171  -8.303  28.572  0.00  0.00     0.038 A 
ATOM     12  C   UNL d   1      58.979  -8.211  28.482  0.00  0.00     0.003 A 
ATOM     13  C   UNL d   1      59.485  -8.864  28.523  0.00  0.00     0.000 A 
ATOM     14  C   UNL d   1      59.165  -9.616  28.657  0.00  0.00     0.000 A 
ATOM     15  C   UNL d   1      58.351  -9.714  28.749  0.00  0.00     0.000 A 
ATOM     16  C   UNL d   1      57.850  -9.054  28.707  0.00  0.00     0.003 A 
ENDBRANCH   5  11
ENDBRANCH   1   2
BRANCH   1  17
ATOM     17  C   UNL d   1      59.520  -4.503  28.459  0.00  0.00     0.098 C 
BRANCH  17  18
ATOM     18  C   UNL d   1      60.198  -4.120  28.707  0.00  0.00     0.272 C 
ATOM     19  N   UNL d   1      60.164  -3.320  28.906  0.00  0.00    -0.269 N 
ATOM     20  C   UNL d   1      60.841  -2.940  29.153  0.00  0.00     0.102 A 
ATOM     21  C   UNL d   1      59.446  -2.914  28.854  0.00  0.00     0.102 A 
ATOM     22  C   UNL d   1      60.811  -2.152  29.350  0.00  0.00     0.100 A 
ATOM     23  N   UNL d   1      60.100  -1.731  29.303  0.00  0.00    -0.301 N 
ATOM     24  C   UNL d   1      59.418  -2.122  29.053  0.00  0.00     0.100 A 
ATOM     25  O   UNL d   1      60.911  -4.527  28.758  0.00  0.00    -0.266 OA
BRANCH  23  26
ATOM     26  C   UNL d   1      60.077  -0.938  29.503  0.00  0.00     0.064 A 
ATOM     27  C   UNL d   1      59.363  -0.578  29.696  0.00  0.00     0.018 A 
ATOM     28  C   UNL d   1      59.346   0.224  29.898  0.00  0.00     0.002 A 
ATOM     29  C   UNL d   1      60.040   0.656  29.904  0.00  0.00     0.000 A 
ATOM     30  C   UNL d   1      60.768   0.296  29.708  0.00  0.00     0.002 A 
ATOM     31  C   UNL d   1      60.779  -0.501  29.509  0.00  0.00     0.018 A 
ENDBRANCH  23  26
ENDBRANCH  17  18
ENDBRANCH   1  17
TORSDOF 5
ENDMDL
