MODEL 1
REMARK VINA RESULT:      -4.2      0.000      0.000
REMARK  6 active torsions:
REMARK  status: ('A' for Active; 'I' for Inactive)
REMARK    1  A    between atoms: C_2  and  C_4 
REMARK    2  A    between atoms: C_3  and  C_2 
REMARK       I    between atoms: N_8  and  C_3 
REMARK    3  A    between atoms: C_5  and  C_9 
REMARK    4  A    between atoms: O_16  and  C_5 
REMARK    5  A    between atoms: C_15  and  N_8 
REMARK    6  A    between atoms: C_21  and  O_16 
ROOT
ATOM      1  C   UNL d   1      56.706   0.008  32.333  0.00  0.00     0.064 A 
ATOM      2  C   UNL d   1      57.029   0.682  31.974  0.00  0.00     0.007 A 
ATOM      3  C   UNL d   1      56.721  -0.719  31.933  0.00  0.00     0.007 A 
ATOM      4  C   UNL d   1      57.372  -0.104  30.829  0.00  0.00     0.085 A 
ATOM      5  C   UNL d   1      57.053  -0.771  31.185  0.00  0.00     0.019 A 
ATOM      6  C   UNL d   1      57.361   0.627  31.223  0.00  0.00     0.019 A 
ENDROOT
BRANCH   4   7
ATOM      7  N   UNL d   1      57.704  -0.159  30.078  0.00  0.00    -0.208 NA
ATOM      8  C   UNL d   1      58.525  -0.162  29.986  0.00  0.00     0.281 C 
ATOM      9  O   UNL d   1      59.006  -0.111  30.655  0.00  0.00    -0.265 OA
BRANCH   8  10
ATOM     10  C   UNL d   1      58.855  -0.216  29.238  0.00  0.00     0.086 C 
BRANCH  10  11
ATOM     11  C   UNL d   1      59.396  -0.820  29.063  0.00  0.00     0.144 A 
ATOM     12  C   UNL d   1      60.099  -0.638  28.670  0.00  0.00     0.297 A 
ATOM     13  N   UNL d   1      60.643  -1.229  28.491  0.00  0.00    -0.204 NA
ATOM     14  O   UNL d   1      60.256   0.147  28.455  0.00  0.00    -0.264 OA
ATOM     15  C   UNL d   1      60.475  -2.004  28.709  0.00  0.00     0.123 A 
ATOM     16  C   UNL d   1      59.773  -2.187  29.102  0.00  0.00     0.120 A 
ATOM     17  N   UNL d   1      59.235  -1.594  29.278  0.00  0.00    -0.237 NA
ENDBRANCH  10  11
ENDBRANCH   8  10
ENDBRANCH   4   7
BRANCH   1  18
ATOM     18  C   UNL d   1      56.373   0.065  33.088  0.00  0.00     0.300 C 
ATOM     19  O   UNL d   1      56.847  -0.023  33.757  0.00  0.00    -0.259 OA
BRANCH  18  20
ATOM     20  O   UNL d   1      55.567   0.209  33.175  0.00  0.00    -0.271 OA
BRANCH  20  21
ATOM     21  C   UNL d   1      55.258   0.370  33.918  0.00  0.00     0.126 C 
ATOM     22  C   UNL d   1      54.448   0.410  34.026  0.00  0.00     0.029 C 
ENDBRANCH  20  21
ENDBRANCH  18  20
ENDBRANCH   1  18
TORSDOF 6
ENDMDL
MODEL 2
REMARK VINA RESULT:      -2.1      1.479      5.116
REMARK  6 active torsions:
REMARK  status: ('A' for Active; 'I' for Inactive)
REMARK    1  A    between atoms: C_2  and  C_4 
REMARK    2  A    between atoms: C_3  and  C_2 
REMARK       I    between atoms: N_8  and  C_3 
REMARK    3  A    between atoms: C_5  and  C_9 
REMARK    4  A    between atoms: O_16  and  C_5 
REMARK    5  A    between atoms: C_15  and  N_8 
REMARK    6  A    between atoms: C_21  and  O_16 
ROOT
ATOM      1  C   UNL d   1      59.082  -0.753  29.371  0.00  0.00     0.064 A 
ATOM      2  C   UNL d   1      59.115   0.052  29.568  0.00  0.00     0.007 A 
ATOM      3  C   UNL d   1      58.431  -1.208  29.608  0.00  0.00     0.007 A 
ATOM      4  C   UNL d   1      57.853  -0.069  30.230  0.00  0.00     0.085 A 
ATOM      5  C   UNL d   1      57.821  -0.865  30.036  0.00  0.00     0.019 A 
ATOM      6  C   UNL d   1      58.502   0.394  29.996  0.00  0.00     0.019 A 
ENDROOT
BRANCH   4   7
ATOM      7  N   UNL d   1      57.240   0.274  30.659  0.00  0.00    -0.208 NA
ATOM      8  C   UNL d   1      57.294   0.340  31.482  0.00  0.00     0.281 C 
ATOM      9  O   UNL d   1      57.967   0.057  31.865  0.00  0.00    -0.265 OA
BRANCH   8  10
ATOM     10  C   UNL d   1      56.683   0.681  31.907  0.00  0.00     0.086 C 
BRANCH  10  11
ATOM     11  C   UNL d   1      56.670   0.629  32.735  0.00  0.00     0.144 A 
ATOM     12  C   UNL d   1      55.952   0.523  33.127  0.00  0.00     0.297 A 
ATOM     13  N   UNL d   1      55.927   0.469  33.948  0.00  0.00    -0.204 NA
ATOM     14  O   UNL d   1      55.250   0.470  32.688  0.00  0.00    -0.264 OA
ATOM     15  C   UNL d   1      56.630   0.523  34.372  0.00  0.00     0.123 A 
ATOM     16  C   UNL d   1      57.349   0.629  33.980  0.00  0.00     0.120 A 
ATOM     17  N   UNL d   1      57.367   0.682  33.163  0.00  0.00    -0.237 NA
ENDBRANCH  10  11
ENDBRANCH   8  10
ENDBRANCH   4   7
BRANCH   1  18
ATOM     18  C   UNL d   1      59.700  -1.095  28.939  0.00  0.00     0.300 C 
ATOM     19  O   UNL d   1      60.232  -0.617  28.529  0.00  0.00    -0.259 OA
BRANCH  18  20
ATOM     20  O   UNL d   1      59.786  -1.913  28.917  0.00  0.00    -0.271 OA
BRANCH  20  21
ATOM     21  C   UNL d   1      60.532  -2.248  28.974  0.00  0.00     0.126 C 
ATOM     22  C   UNL d   1      60.613  -3.048  29.126  0.00  0.00     0.029 C 
ENDBRANCH  20  21
ENDBRANCH  18  20
ENDBRANCH   1  18
TORSDOF 6
ENDMDL
MODEL 3
REMARK VINA RESULT:      -1.9      8.554      9.334
REMARK  6 active torsions:
REMARK  status: ('A' for Active; 'I' for Inactive)
REMARK    1  A    between atoms: C_2  and  C_4 
REMARK    2  A    between atoms: C_3  and  C_2 
REMARK       I    between atoms: N_8  and  C_3 
REMARK    3  A    between atoms: C_5  and  C_9 
REMARK    4  A    between atoms: O_16  and  C_5 
REMARK    5  A    between atoms: C_15  and  N_8 
REMARK    6  A    between atoms: C_21  and  O_16 
ROOT
ATOM      1  C   UNL d   1      60.079  -8.177  35.226  0.00  0.00     0.064 A 
ATOM      2  C   UNL d   1      60.495  -8.547  34.611  0.00  0.00     0.007 A 
ATOM      3  C   UNL d   1      59.261  -8.295  35.297  0.00  0.00     0.007 A 
ATOM      4  C   UNL d   1      59.276  -9.139  34.155  0.00  0.00     0.085 A 
ATOM      5  C   UNL d   1      58.865  -8.774  34.763  0.00  0.00     0.019 A 
ATOM      6  C   UNL d   1      60.095  -9.027  34.076  0.00  0.00     0.019 A 
ENDROOT
BRANCH   4   7
ATOM      7  N   UNL d   1      58.876  -9.620  33.619  0.00  0.00    -0.208 NA
ATOM      8  C   UNL d   1      58.690  -9.337  32.865  0.00  0.00     0.281 C 
ATOM      9  O   UNL d   1      58.909  -8.569  32.657  0.00  0.00    -0.265 OA
BRANCH   8  10
ATOM     10  C   UNL d   1      58.292  -9.817  32.333  0.00  0.00     0.086 C 
BRANCH  10  11
ATOM     11  C   UNL d   1      58.504  -9.816  31.531  0.00  0.00     0.144 A 
ATOM     12  C   UNL d   1      57.915  -9.813  30.953  0.00  0.00     0.297 A 
ATOM     13  N   UNL d   1      58.113  -9.812  30.154  0.00  0.00    -0.204 NA
ATOM     14  O   UNL d   1      57.117  -9.811  31.181  0.00  0.00    -0.264 OA
ATOM     15  C   UNL d   1      58.908  -9.814  29.941  0.00  0.00     0.123 A 
ATOM     16  C   UNL d   1      59.496  -9.817  30.518  0.00  0.00     0.120 A 
ATOM     17  N   UNL d   1      59.293  -9.818  31.312  0.00  0.00    -0.237 NA
ENDBRANCH  10  11
ENDBRANCH   8  10
ENDBRANCH   4   7
BRANCH   1  18
ATOM     18  C   UNL d   1      60.483  -7.695  35.763  0.00  0.00     0.300 C 
ATOM     19  O   UNL d   1      61.059  -8.018  36.257  0.00  0.00    -0.259 OA
BRANCH  18  20
ATOM     20  O   UNL d   1      60.312  -6.891  35.808  0.00  0.00    -0.271 OA
BRANCH  20  21
ATOM     21  C   UNL d   1      60.847  -6.378  36.158  0.00  0.00     0.126 C 
ATOM     22  C   UNL d   1      60.637  -5.599  36.299  0.00  0.00     0.029 C 
ENDBRANCH  20  21
ENDBRANCH  18  20
ENDBRANCH   1  18
TORSDOF 6
ENDMDL
MODEL 4
REMARK VINA RESULT:      -1.4      8.653      9.340
REMARK  6 active torsions:
REMARK  status: ('A' for Active; 'I' for Inactive)
REMARK    1  A    between atoms: C_2  and  C_4 
REMARK    2  A    between atoms: C_3  and  C_2 
REMARK       I    between atoms: N_8  and  C_3 
REMARK    3  A    between atoms: C_5  and  C_9 
REMARK    4  A    between atoms: O_16  and  C_5 
REMARK    5  A    between atoms: C_15  and  N_8 
REMARK    6  A    between atoms: C_21  and  O_16 
ROOT
ATOM      1  C   UNL d   1      60.323  -8.838  34.396  0.00  0.00     0.064 A 
ATOM      2  C   UNL d   1      61.025  -8.678  33.986  0.00  0.00     0.007 A 
ATOM      3  C   UNL d   1      59.729  -9.290  34.033  0.00  0.00     0.007 A 
ATOM      4  C   UNL d   1      60.531  -9.419  32.867  0.00  0.00     0.085 A 
ATOM      5  C   UNL d   1      59.836  -9.578  33.272  0.00  0.00     0.019 A 
ATOM      6  C   UNL d   1      61.130  -8.967  33.223  0.00  0.00     0.019 A 
ENDROOT
BRANCH   4   7
ATOM      7  N   UNL d   1      60.637  -9.708  32.104  0.00  0.00    -0.208 NA
ATOM      8  C   UNL d   1      60.089  -9.529  31.511  0.00  0.00     0.281 C 
ATOM      9  O   UNL d   1      59.437  -9.057  31.694  0.00  0.00    -0.265 OA
BRANCH   8  10
ATOM     10  C   UNL d   1      60.196  -9.818  30.752  0.00  0.00     0.086 C 
BRANCH  10  11
ATOM     11  C   UNL d   1      59.618  -9.690  30.171  0.00  0.00     0.144 A 
ATOM     12  C   UNL d   1      59.843  -9.436  29.419  0.00  0.00     0.297 A 
ATOM     13  N   UNL d   1      59.277  -9.306  28.835  0.00  0.00    -0.204 NA
ATOM     14  O   UNL d   1      60.645  -9.311  29.252  0.00  0.00    -0.264 OA
ATOM     15  C   UNL d   1      58.484  -9.433  29.014  0.00  0.00     0.123 A 
ATOM     16  C   UNL d   1      58.259  -9.686  29.766  0.00  0.00     0.120 A 
ATOM     17  N   UNL d   1      58.826  -9.814  30.343  0.00  0.00    -0.237 NA
ENDBRANCH  10  11
ENDBRANCH   8  10
ENDBRANCH   4   7
BRANCH   1  18
ATOM     18  C   UNL d   1      60.219  -8.546  35.163  0.00  0.00     0.300 C 
ATOM     19  O   UNL d   1      60.354  -9.036  35.813  0.00  0.00    -0.259 OA
BRANCH  18  20
ATOM     20  O   UNL d   1      59.981  -7.768  35.281  0.00  0.00    -0.271 OA
BRANCH  20  21
ATOM     21  C   UNL d   1      59.965  -7.455  36.039  0.00  0.00     0.126 C 
ATOM     22  C   UNL d   1      60.007  -6.645  36.151  0.00  0.00     0.029 C 
ENDBRANCH  20  21
ENDBRANCH  18  20
ENDBRANCH   1  18
TORSDOF 6
ENDMDL
