MODEL 1
REMARK VINA RESULT:      -5.8      0.000      0.000
REMARK  5 active torsions:
REMARK  status: ('A' for Active; 'I' for Inactive)
REMARK    1  A    between atoms: C_2  and  C_1 
REMARK       I    between atoms: N_3  and  C_1 
REMARK    2  A    between atoms: C_6  and  N_4 
REMARK    3  A    between atoms: O_19  and  C_5 
REMARK    4  A    between atoms: O_22  and  C_7 
REMARK    5  A    between atoms: O_23  and  C_8 
ROOT
ATOM      1  C   UNL d   1      53.053  33.303  52.841  0.00  0.00     0.265 C 
ATOM      2  N   UNL d   1      52.300  33.632  52.805  0.00  0.00    -0.269 N 
ATOM      3  N   UNL d   1      50.786  34.293  52.733  0.00  0.00    -0.301 N 
ATOM      4  C   UNL d   1      52.169  34.312  52.359  0.00  0.00     0.102 A 
ATOM      5  C   UNL d   1      51.670  33.284  53.215  0.00  0.00     0.102 A 
ATOM      6  C   UNL d   1      50.918  33.613  53.178  0.00  0.00     0.100 A 
ATOM      7  C   UNL d   1      51.408  34.645  52.322  0.00  0.00     0.100 A 
ATOM      8  O   UNL d   1      53.677  33.653  52.431  0.00  0.00    -0.267 OA
ENDROOT
BRANCH   1   9
ATOM      9  C   UNL d   1      53.184  32.624  53.286  0.00  0.00     0.061 A 
ATOM     10  C   UNL d   1      53.037  31.873  52.957  0.00  0.00     0.031 A 
ATOM     11  C   UNL d   1      53.171  31.192  53.407  0.00  0.00     0.118 A 
ATOM     12  C   UNL d   1      53.448  31.256  54.180  0.00  0.00     0.138 A 
ATOM     13  C   UNL d   1      53.593  31.999  54.506  0.00  0.00     0.118 A 
ATOM     14  C   UNL d   1      53.463  32.686  54.063  0.00  0.00     0.031 A 
BRANCH  11  15
ATOM     15  O   UNL d   1      53.024  30.450  53.077  0.00  0.00    -0.326 OA
ATOM     16  C   UNL d   1      53.036  30.348  52.259  0.00  0.00     0.181 C 
ENDBRANCH  11  15
BRANCH  12  17
ATOM     17  O   UNL d   1      53.580  30.577  54.625  0.00  0.00    -0.324 OA
ATOM     18  C   UNL d   1      52.942  30.123  54.885  0.00  0.00     0.182 C 
ENDBRANCH  12  17
BRANCH  13  19
ATOM     19  O   UNL d   1      53.874  32.068  55.288  0.00  0.00    -0.326 OA
ATOM     20  C   UNL d   1      54.274  32.751  55.519  0.00  0.00     0.181 C 
ENDBRANCH  13  19
ENDBRANCH   1   9
BRANCH   3  21
ATOM     21  C   UNL d   1      50.029  34.623  52.697  0.00  0.00     0.064 A 
ATOM     22  C   UNL d   1      49.571  34.522  52.025  0.00  0.00     0.016 A 
ATOM     23  C   UNL d   1      48.821  34.847  51.985  0.00  0.00     0.001 A 
ATOM     24  C   UNL d   1      49.871  34.092  51.388  0.00  0.00     0.002 C 
ATOM     25  C   UNL d   1      48.521  35.281  52.630  0.00  0.00     0.000 A 
ATOM     26  C   UNL d   1      48.986  35.380  53.307  0.00  0.00     0.002 A 
ATOM     27  C   UNL d   1      47.768  35.610  52.596  0.00  0.00     0.000 C 
ATOM     28  C   UNL d   1      49.740  35.051  53.341  0.00  0.00     0.018 A 
ENDBRANCH   3  21
TORSDOF 5
ENDMDL
MODEL 2
REMARK VINA RESULT:      -5.6      1.171      2.400
REMARK  5 active torsions:
REMARK  status: ('A' for Active; 'I' for Inactive)
REMARK    1  A    between atoms: C_2  and  C_1 
REMARK       I    between atoms: N_3  and  C_1 
REMARK    2  A    between atoms: C_6  and  N_4 
REMARK    3  A    between atoms: O_19  and  C_5 
REMARK    4  A    between atoms: O_22  and  C_7 
REMARK    5  A    between atoms: O_23  and  C_8 
ROOT
ATOM      1  C   UNL d   1      51.525  34.062  52.156  0.00  0.00     0.265 C 
ATOM      2  N   UNL d   1      50.784  34.392  52.283  0.00  0.00    -0.269 N 
ATOM      3  N   UNL d   1      49.292  35.056  52.540  0.00  0.00    -0.301 N 
ATOM      4  C   UNL d   1      50.326  34.637  51.644  0.00  0.00     0.102 A 
ATOM      5  C   UNL d   1      50.491  34.482  53.053  0.00  0.00     0.102 A 
ATOM      6  C   UNL d   1      49.749  34.812  53.180  0.00  0.00     0.100 A 
ATOM      7  C   UNL d   1      49.576  34.971  51.772  0.00  0.00     0.100 A 
ATOM      8  O   UNL d   1      51.813  33.975  51.388  0.00  0.00    -0.267 OA
ENDROOT
BRANCH   1   9
ATOM      9  C   UNL d   1      51.983  33.818  52.795  0.00  0.00     0.061 A 
ATOM     10  C   UNL d   1      52.322  34.381  53.306  0.00  0.00     0.031 A 
ATOM     11  C   UNL d   1      52.781  34.133  53.947  0.00  0.00     0.118 A 
ATOM     12  C   UNL d   1      52.903  33.329  54.081  0.00  0.00     0.138 A 
ATOM     13  C   UNL d   1      52.567  32.771  53.575  0.00  0.00     0.118 A 
ATOM     14  C   UNL d   1      52.106  33.011  52.930  0.00  0.00     0.031 A 
BRANCH  11  15
ATOM     15  O   UNL d   1      53.115  34.694  54.451  0.00  0.00    -0.326 OA
ATOM     16  C   UNL d   1      53.114  35.492  54.246  0.00  0.00     0.181 C 
ENDBRANCH  11  15
BRANCH  12  17
ATOM     17  O   UNL d   1      53.360  33.084  54.719  0.00  0.00    -0.324 OA
ATOM     18  C   UNL d   1      54.170  32.963  54.625  0.00  0.00     0.182 C 
ENDBRANCH  12  17
BRANCH  13  19
ATOM     19  O   UNL d   1      52.688  31.956  53.706  0.00  0.00    -0.326 OA
ATOM     20  C   UNL d   1      52.521  31.418  53.106  0.00  0.00     0.181 C 
ENDBRANCH  13  19
ENDBRANCH   1   9
BRANCH   3  21
ATOM     21  C   UNL d   1      48.545  35.389  52.670  0.00  0.00     0.064 A 
ATOM     22  C   UNL d   1      47.963  35.318  52.097  0.00  0.00     0.016 A 
ATOM     23  C   UNL d   1      47.223  35.646  52.221  0.00  0.00     0.001 A 
ATOM     24  C   UNL d   1      48.126  34.917  51.396  0.00  0.00     0.002 C 
ATOM     25  C   UNL d   1      47.061  36.051  52.931  0.00  0.00     0.000 A 
ATOM     26  C   UNL d   1      47.651  36.120  53.505  0.00  0.00     0.002 A 
ATOM     27  C   UNL d   1      46.319  36.382  53.061  0.00  0.00     0.000 C 
ATOM     28  C   UNL d   1      48.394  35.788  53.376  0.00  0.00     0.018 A 
ENDBRANCH   3  21
TORSDOF 5
ENDMDL
MODEL 3
REMARK VINA RESULT:      -4.8      1.717      4.900
REMARK  5 active torsions:
REMARK  status: ('A' for Active; 'I' for Inactive)
REMARK    1  A    between atoms: C_2  and  C_1 
REMARK       I    between atoms: N_3  and  C_1 
REMARK    2  A    between atoms: C_6  and  N_4 
REMARK    3  A    between atoms: O_19  and  C_5 
REMARK    4  A    between atoms: O_22  and  C_7 
REMARK    5  A    between atoms: O_23  and  C_8 
ROOT
ATOM      1  C   UNL d   1      53.460  33.396  53.030  0.00  0.00     0.265 C 
ATOM      2  N   UNL d   1      53.444  32.620  53.300  0.00  0.00    -0.269 N 
ATOM      3  N   UNL d   1      53.412  31.059  53.843  0.00  0.00    -0.301 N 
ATOM      4  C   UNL d   1      54.115  32.147  53.234  0.00  0.00     0.102 A 
ATOM      5  C   UNL d   1      52.756  32.307  53.640  0.00  0.00     0.102 A 
ATOM      6  C   UNL d   1      52.741  31.531  53.909  0.00  0.00     0.100 A 
ATOM      7  C   UNL d   1      54.100  31.363  53.506  0.00  0.00     0.100 A 
ATOM      8  O   UNL d   1      54.147  33.704  52.693  0.00  0.00    -0.267 OA
ENDROOT
BRANCH   1   9
ATOM      9  C   UNL d   1      52.789  33.869  53.097  0.00  0.00     0.061 A 
ATOM     10  C   UNL d   1      52.158  33.776  52.561  0.00  0.00     0.031 A 
ATOM     11  C   UNL d   1      51.485  34.252  52.630  0.00  0.00     0.118 A 
ATOM     12  C   UNL d   1      51.439  34.817  53.227  0.00  0.00     0.138 A 
ATOM     13  C   UNL d   1      52.064  34.909  53.758  0.00  0.00     0.118 A 
ATOM     14  C   UNL d   1      52.741  34.437  53.696  0.00  0.00     0.031 A 
BRANCH  11  15
ATOM     15  O   UNL d   1      50.862  34.158  52.098  0.00  0.00    -0.326 OA
ATOM     16  C   UNL d   1      51.004  34.157  51.286  0.00  0.00     0.181 C 
ENDBRANCH  11  15
BRANCH  12  17
ATOM     17  O   UNL d   1      50.769  35.290  53.294  0.00  0.00    -0.324 OA
ATOM     18  C   UNL d   1      50.059  34.965  53.561  0.00  0.00     0.182 C 
ENDBRANCH  12  17
BRANCH  13  19
ATOM     19  O   UNL d   1      52.021  35.480  54.364  0.00  0.00    -0.326 OA
ATOM     20  C   UNL d   1      52.710  35.721  54.747  0.00  0.00     0.181 C 
ENDBRANCH  13  19
ENDBRANCH   1   9
BRANCH   3  21
ATOM     21  C   UNL d   1      53.395  30.278  54.115  0.00  0.00     0.064 A 
ATOM     22  C   UNL d   1      53.179  29.673  53.605  0.00  0.00     0.016 A 
ATOM     23  C   UNL d   1      53.161  28.899  53.870  0.00  0.00     0.001 A 
ATOM     24  C   UNL d   1      52.979  29.849  52.825  0.00  0.00     0.002 C 
ATOM     25  C   UNL d   1      53.363  28.724  54.659  0.00  0.00     0.000 A 
ATOM     26  C   UNL d   1      53.581  29.337  55.170  0.00  0.00     0.002 A 
ATOM     27  C   UNL d   1      53.347  27.948  54.931  0.00  0.00     0.000 C 
ATOM     28  C   UNL d   1      53.597  30.114  54.898  0.00  0.00     0.018 A 
ENDBRANCH   3  21
TORSDOF 5
ENDMDL
MODEL 4
REMARK VINA RESULT:      -3.4      1.371      2.199
REMARK  5 active torsions:
REMARK  status: ('A' for Active; 'I' for Inactive)
REMARK    1  A    between atoms: C_2  and  C_1 
REMARK       I    between atoms: N_3  and  C_1 
REMARK    2  A    between atoms: C_6  and  N_4 
REMARK    3  A    between atoms: O_19  and  C_5 
REMARK    4  A    between atoms: O_22  and  C_7 
REMARK    5  A    between atoms: O_23  and  C_8 
ROOT
ATOM      1  C   UNL d   1      52.308  32.677  53.716  0.00  0.00     0.265 C 
ATOM      2  N   UNL d   1      51.698  33.090  53.351  0.00  0.00    -0.269 N 
ATOM      3  N   UNL d   1      50.472  33.921  52.617  0.00  0.00    -0.301 N 
ATOM      4  C   UNL d   1      51.024  32.691  53.098  0.00  0.00     0.102 A 
ATOM      5  C   UNL d   1      51.756  33.909  53.235  0.00  0.00     0.102 A 
ATOM      6  C   UNL d   1      51.146  34.320  52.870  0.00  0.00     0.100 A 
ATOM      7  C   UNL d   1      50.407  33.107  52.729  0.00  0.00     0.100 A 
ATOM      8  O   UNL d   1      52.247  31.863  53.830  0.00  0.00    -0.267 OA
ENDROOT
BRANCH   1   9
ATOM      9  C   UNL d   1      52.982  33.077  53.969  0.00  0.00     0.061 A 
ATOM     10  C   UNL d   1      53.725  32.894  53.639  0.00  0.00     0.031 A 
ATOM     11  C   UNL d   1      54.400  33.296  53.896  0.00  0.00     0.118 A 
ATOM     12  C   UNL d   1      54.339  33.878  54.476  0.00  0.00     0.138 A 
ATOM     13  C   UNL d   1      53.603  34.059  54.802  0.00  0.00     0.118 A 
ATOM     14  C   UNL d   1      52.922  33.661  54.552  0.00  0.00     0.031 A 
BRANCH  11  15
ATOM     15  O   UNL d   1      55.134  33.112  53.567  0.00  0.00    -0.326 OA
ATOM     16  C   UNL d   1      55.180  32.672  52.872  0.00  0.00     0.181 C 
ENDBRANCH  11  15
BRANCH  12  17
ATOM     17  O   UNL d   1      55.012  34.277  54.729  0.00  0.00    -0.324 OA
ATOM     18  C   UNL d   1      55.479  33.960  55.330  0.00  0.00     0.182 C 
ENDBRANCH  12  17
BRANCH  13  19
ATOM     19  O   UNL d   1      53.537  34.647  55.390  0.00  0.00    -0.326 OA
ATOM     20  C   UNL d   1      53.067  35.310  55.251  0.00  0.00     0.181 C 
ENDBRANCH  13  19
ENDBRANCH   1   9
BRANCH   3  21
ATOM     21  C   UNL d   1      49.859  34.338  52.249  0.00  0.00     0.064 A 
ATOM     22  C   UNL d   1      49.409  34.867  52.684  0.00  0.00     0.016 A 
ATOM     23  C   UNL d   1      48.801  35.281  52.324  0.00  0.00     0.001 A 
ATOM     24  C   UNL d   1      49.570  34.980  53.484  0.00  0.00     0.002 C 
ATOM     25  C   UNL d   1      48.639  35.165  51.515  0.00  0.00     0.000 A 
ATOM     26  C   UNL d   1      49.097  34.630  51.081  0.00  0.00     0.002 A 
ATOM     27  C   UNL d   1      48.030  35.578  51.148  0.00  0.00     0.000 C 
ATOM     28  C   UNL d   1      49.707  34.216  51.448  0.00  0.00     0.018 A 
ENDBRANCH   3  21
TORSDOF 5
ENDMDL
MODEL 5
REMARK VINA RESULT:      -3.2      2.841      5.941
REMARK  5 active torsions:
REMARK  status: ('A' for Active; 'I' for Inactive)
REMARK    1  A    between atoms: C_2  and  C_1 
REMARK       I    between atoms: N_3  and  C_1 
REMARK    2  A    between atoms: C_6  and  N_4 
REMARK    3  A    between atoms: O_19  and  C_5 
REMARK    4  A    between atoms: O_22  and  C_7 
REMARK    5  A    between atoms: O_23  and  C_8 
ROOT
ATOM      1  C   UNL d   1      48.790  35.101  51.495  0.00  0.00     0.265 C 
ATOM      2  N   UNL d   1      49.431  34.727  51.850  0.00  0.00    -0.269 N 
ATOM      3  N   UNL d   1      50.718  33.976  52.565  0.00  0.00    -0.301 N 
ATOM      4  C   UNL d   1      50.058  34.458  51.389  0.00  0.00     0.102 A 
ATOM      5  C   UNL d   1      49.450  34.618  52.671  0.00  0.00     0.102 A 
ATOM      6  C   UNL d   1      50.090  34.244  53.025  0.00  0.00     0.100 A 
ATOM      7  C   UNL d   1      50.705  34.081  51.748  0.00  0.00     0.100 A 
ATOM      8  O   UNL d   1      48.775  35.208  50.677  0.00  0.00    -0.267 OA
ENDROOT
BRANCH   1   9
ATOM      9  C   UNL d   1      48.163  35.369  51.955  0.00  0.00     0.061 A 
ATOM     10  C   UNL d   1      48.302  35.897  52.584  0.00  0.00     0.031 A 
ATOM     11  C   UNL d   1      47.670  36.165  53.045  0.00  0.00     0.118 A 
ATOM     12  C   UNL d   1      46.904  35.911  52.882  0.00  0.00     0.138 A 
ATOM     13  C   UNL d   1      46.766  35.389  52.258  0.00  0.00     0.118 A 
ATOM     14  C   UNL d   1      47.393  35.115  51.792  0.00  0.00     0.031 A 
BRANCH  11  15
ATOM     15  O   UNL d   1      47.812  36.687  53.667  0.00  0.00    -0.326 OA
ATOM     16  C   UNL d   1      48.547  36.703  54.038  0.00  0.00     0.181 C 
ENDBRANCH  11  15
BRANCH  12  17
ATOM     17  O   UNL d   1      46.276  36.179  53.341  0.00  0.00    -0.324 OA
ATOM     18  C   UNL d   1      46.091  35.799  54.050  0.00  0.00     0.182 C 
ENDBRANCH  12  17
BRANCH  13  19
ATOM     19  O   UNL d   1      45.991  35.129  52.090  0.00  0.00    -0.326 OA
ATOM     20  C   UNL d   1      45.682  35.236  51.334  0.00  0.00     0.181 C 
ENDBRANCH  13  19
ENDBRANCH   1   9
BRANCH   3  21
ATOM     21  C   UNL d   1      51.361  33.600  52.924  0.00  0.00     0.064 A 
ATOM     22  C   UNL d   1      51.958  34.048  53.263  0.00  0.00     0.016 A 
ATOM     23  C   UNL d   1      52.597  33.680  53.619  0.00  0.00     0.001 A 
ATOM     24  C   UNL d   1      51.911  34.870  53.244  0.00  0.00     0.002 C 
ATOM     25  C   UNL d   1      52.641  32.848  53.636  0.00  0.00     0.000 A 
ATOM     26  C   UNL d   1      52.037  32.400  53.293  0.00  0.00     0.002 A 
ATOM     27  C   UNL d   1      53.281  32.473  53.993  0.00  0.00     0.000 C 
ATOM     28  C   UNL d   1      51.397  32.775  52.936  0.00  0.00     0.018 A 
ENDBRANCH   3  21
TORSDOF 5
ENDMDL
MODEL 6
REMARK VINA RESULT:      -3.1      1.871      5.070
REMARK  5 active torsions:
REMARK  status: ('A' for Active; 'I' for Inactive)
REMARK    1  A    between atoms: C_2  and  C_1 
REMARK       I    between atoms: N_3  and  C_1 
REMARK    2  A    between atoms: C_6  and  N_4 
REMARK    3  A    between atoms: O_19  and  C_5 
REMARK    4  A    between atoms: O_22  and  C_7 
REMARK    5  A    between atoms: O_23  and  C_8 
ROOT
ATOM      1  C   UNL d   1      51.608  34.502  52.747  0.00  0.00     0.265 C 
ATOM      2  N   UNL d   1      51.890  33.743  52.890  0.00  0.00    -0.269 N 
ATOM      3  N   UNL d   1      52.456  32.217  53.179  0.00  0.00    -0.301 N 
ATOM      4  C   UNL d   1      52.697  33.616  52.990  0.00  0.00     0.102 A 
ATOM      5  C   UNL d   1      51.366  33.103  52.936  0.00  0.00     0.102 A 
ATOM      6  C   UNL d   1      51.649  32.345  53.080  0.00  0.00     0.100 A 
ATOM      7  C   UNL d   1      52.983  32.849  53.135  0.00  0.00     0.100 A 
ATOM      8  O   UNL d   1      52.133  35.137  52.702  0.00  0.00    -0.267 OA
ENDROOT
BRANCH   1   9
ATOM      9  C   UNL d   1      50.801  34.630  52.647  0.00  0.00     0.061 A 
ATOM     10  C   UNL d   1      50.448  34.514  51.902  0.00  0.00     0.031 A 
ATOM     11  C   UNL d   1      49.637  34.643  51.805  0.00  0.00     0.118 A 
ATOM     12  C   UNL d   1      49.179  34.885  52.445  0.00  0.00     0.138 A 
ATOM     13  C   UNL d   1      49.528  35.000  53.183  0.00  0.00     0.118 A 
ATOM     14  C   UNL d   1      50.339  34.873  53.289  0.00  0.00     0.031 A 
BRANCH  11  15
ATOM     15  O   UNL d   1      49.291  34.527  51.065  0.00  0.00    -0.326 OA
ATOM     16  C   UNL d   1      49.378  33.808  50.673  0.00  0.00     0.181 C 
ENDBRANCH  11  15
BRANCH  12  17
ATOM     17  O   UNL d   1      48.372  35.013  52.346  0.00  0.00    -0.324 OA
ATOM     18  C   UNL d   1      48.107  35.627  51.863  0.00  0.00     0.182 C 
ENDBRANCH  12  17
BRANCH  13  19
ATOM     19  O   UNL d   1      49.067  35.246  53.834  0.00  0.00    -0.326 OA
ATOM     20  C   UNL d   1      49.169  36.003  54.142  0.00  0.00     0.181 C 
ENDBRANCH  13  19
ENDBRANCH   1   9
BRANCH   3  21
ATOM     21  C   UNL d   1      52.739  31.453  53.324  0.00  0.00     0.064 A 
ATOM     22  C   UNL d   1      53.324  31.335  53.885  0.00  0.00     0.016 A 
ATOM     23  C   UNL d   1      53.607  30.580  54.031  0.00  0.00     0.001 A 
ATOM     24  C   UNL d   1      53.627  31.978  54.301  0.00  0.00     0.002 C 
ATOM     25  C   UNL d   1      53.299  29.931  53.609  0.00  0.00     0.000 A 
ATOM     26  C   UNL d   1      52.708  30.056  53.044  0.00  0.00     0.002 A 
ATOM     27  C   UNL d   1      53.579  29.171  53.751  0.00  0.00     0.000 C 
ATOM     28  C   UNL d   1      52.427  30.817  52.901  0.00  0.00     0.018 A 
ENDBRANCH   3  21
TORSDOF 5
ENDMDL
