MODEL 1
REMARK VINA RESULT:      85.5      0.000      0.000
REMARK  5 active torsions:
REMARK  status: ('A' for Active; 'I' for Inactive)
REMARK    1  A    between atoms: N_4  and  C_1 
REMARK       I    between atoms: C_3  and  N_4 
REMARK    2  A    between atoms: C_8  and  C_3 
REMARK    3  A    between atoms: S_9  and  C_5 
REMARK    4  A    between atoms: C_12  and  S_9 
REMARK    5  A    between atoms: C_15  and  C_12 
ROOT
ATOM      1  C   UNL d   1      61.816  46.775  49.639  0.00  0.00     0.219 A 
ATOM      2  S   UNL d   1      61.421  46.021  49.756  0.00  0.00    -0.019 SA
ATOM      3  C   UNL d   1      61.927  45.424  49.377  0.00  0.00     0.165 A 
ATOM      4  N   UNL d   1      62.407  46.610  49.274  0.00  0.00    -0.120 NA
ATOM      5  N   UNL d   1      62.467  45.764  49.116  0.00  0.00    -0.133 NA
ENDROOT
BRANCH   1   6
ATOM      6  N   UNL d   1      61.516  47.595  49.932  0.00  0.00    -0.181 NA
ATOM      7  C   UNL d   1      61.219  47.695  50.728  0.00  0.00     0.282 C 
ATOM      8  O   UNL d   1      61.213  47.139  51.142  0.00  0.00    -0.265 OA
BRANCH   7   9
ATOM      9  C   UNL d   1      60.928  48.361  51.104  0.00  0.00     0.069 A 
ATOM     10  C   UNL d   1      60.760  49.023  50.664  0.00  0.00     0.062 A 
ATOM     11 CL   UNL d   1      60.890  49.031  49.776  0.00  0.00    -0.082 Cl
ATOM     12  C   UNL d   1      60.468  49.697  51.029  0.00  0.00     0.012 A 
ATOM     13  C   UNL d   1      60.343  49.708  51.845  0.00  0.00     0.001 A 
ATOM     14  C   UNL d   1      60.514  49.031  52.296  0.00  0.00     0.000 A 
ATOM     15  C   UNL d   1      60.810  48.352  51.918  0.00  0.00     0.006 A 
ENDBRANCH   7   9
ENDBRANCH   1   6
BRANCH   3  16
ATOM     16  S   UNL d   1      61.869  44.525  49.278  0.00  0.00    -0.059 SA
BRANCH  16  17
ATOM     17  C   UNL d   1      61.565  44.205  49.878  0.00  0.00     0.037 C 
BRANCH  17  18
ATOM     18  C   UNL d   1      61.958  43.603  50.265  0.00  0.00     0.007 A 
ATOM     19  C   UNL d   1      62.564  43.188  49.900  0.00  0.00     0.001 A 
ATOM     20  C   UNL d   1      62.962  42.577  50.292  0.00  0.00     0.007 A 
ATOM     21  C   UNL d   1      62.741  42.385  51.067  0.00  0.00     0.035 A 
ATOM     22  C   UNL d   1      62.119  42.808  51.447  0.00  0.00     0.007 A 
ATOM     23 BR   UNL d   1      63.158  41.720  51.526  0.00  0.00    -0.049 Br
ATOM     24  C   UNL d   1      61.741  43.417  51.020  0.00  0.00     0.001 A 
ENDBRANCH  17  18
ENDBRANCH  16  17
ENDBRANCH   3  16
TORSDOF 5
ENDMDL
