MODEL 1
REMARK VINA RESULT:      50.4      0.000      0.000
REMARK  4 active torsions:
REMARK  status: ('A' for Active; 'I' for Inactive)
REMARK    1  A    between atoms: S_8  and  C_1 
REMARK    2  A    between atoms: C_2  and  S_7 
REMARK    3  A    between atoms: S_7  and  C_13 
REMARK    4  A    between atoms: C_13  and  S_8 
ROOT
ATOM      1  C   UNL d   1     -50.248  26.854  33.897  0.00  0.00     0.128 C 
ENDROOT
BRANCH   1   2
ATOM      2  S   UNL d   1     -50.777  26.622  33.310  0.00  0.00    -0.076 SA
BRANCH   2   3
ATOM      3  C   UNL d   1     -51.025  25.851  33.309  0.00  0.00     0.137 A 
ATOM      4  N   UNL d   1     -50.583  25.137  33.309  0.00  0.00    -0.232 NA
ATOM      5  C   UNL d   1     -51.105  24.518  33.308  0.00  0.00     0.088 A 
ATOM      6  C   UNL d   1     -51.014  23.699  33.308  0.00  0.00     0.020 A 
ATOM      7  C   UNL d   1     -51.874  24.827  33.307  0.00  0.00     0.049 A 
ATOM      8  C   UNL d   1     -51.653  23.206  33.307  0.00  0.00     0.002 A 
ATOM      9  C   UNL d   1     -52.424  23.488  33.306  0.00  0.00     0.001 A 
ATOM     10  C   UNL d   1     -52.528  24.321  33.306  0.00  0.00     0.008 A 
ATOM     11  S   UNL d   1     -51.830  25.644  33.308  0.00  0.00    -0.060 SA
ENDBRANCH   2   3
ENDBRANCH   1   2
BRANCH   1  12
ATOM     12  S   UNL d   1     -49.528  27.194  33.683  0.00  0.00    -0.076 SA
BRANCH  12  13
ATOM     13  C   UNL d   1     -49.121  27.720  34.169  0.00  0.00     0.137 A 
ATOM     14  N   UNL d   1     -48.933  27.591  34.931  0.00  0.00    -0.232 NA
ATOM     15  C   UNL d   1     -48.535  28.253  35.193  0.00  0.00     0.088 A 
ATOM     16  C   UNL d   1     -48.204  28.465  35.900  0.00  0.00     0.020 A 
ATOM     17  C   UNL d   1     -48.498  28.774  34.556  0.00  0.00     0.049 A 
ATOM     18  C   UNL d   1     -47.826  29.194  36.006  0.00  0.00     0.002 A 
ATOM     19  C   UNL d   1     -47.787  29.731  35.351  0.00  0.00     0.001 A 
ATOM     20  C   UNL d   1     -48.128  29.509  34.627  0.00  0.00     0.008 A 
ATOM     21  S   UNL d   1     -48.872  28.426  33.912  0.00  0.00    -0.060 SA
ENDBRANCH  12  13
ENDBRANCH   1  12
TORSDOF 4
ENDMDL
MODEL 2
REMARK VINA RESULT:      52.3      0.510      5.379
REMARK  4 active torsions:
REMARK  status: ('A' for Active; 'I' for Inactive)
REMARK    1  A    between atoms: S_8  and  C_1 
REMARK    2  A    between atoms: C_2  and  S_7 
REMARK    3  A    between atoms: S_7  and  C_13 
REMARK    4  A    between atoms: C_13  and  S_8 
ROOT
ATOM      1  C   UNL d   1     -49.999  26.746  33.993  0.00  0.00     0.128 C 
ENDROOT
BRANCH   1   2
ATOM      2  S   UNL d   1     -49.264  27.064  33.801  0.00  0.00    -0.076 SA
BRANCH   2   3
ATOM      3  C   UNL d   1     -48.948  27.614  34.305  0.00  0.00     0.137 A 
ATOM      4  N   UNL d   1     -48.979  27.668  35.142  0.00  0.00    -0.232 NA
ATOM      5  C   UNL d   1     -48.570  28.329  35.367  0.00  0.00     0.088 A 
ATOM      6  C   UNL d   1     -48.405  28.673  36.097  0.00  0.00     0.020 A 
ATOM      7  C   UNL d   1     -48.278  28.699  34.684  0.00  0.00     0.049 A 
ATOM      8  C   UNL d   1     -47.972  29.352  36.153  0.00  0.00     0.002 A 
ATOM      9  C   UNL d   1     -47.672  29.736  35.493  0.00  0.00     0.001 A 
ATOM     10  C   UNL d   1     -47.834  29.394  34.743  0.00  0.00     0.008 A 
ATOM     11  S   UNL d   1     -48.507  28.264  34.030  0.00  0.00    -0.060 SA
ENDBRANCH   2   3
ENDBRANCH   1   2
BRANCH   1  12
ATOM     12  S   UNL d   1     -50.545  26.595  33.394  0.00  0.00    -0.076 SA
BRANCH  12  13
ATOM     13  C   UNL d   1     -51.008  25.913  33.373  0.00  0.00     0.137 A 
ATOM     14  N   UNL d   1     -51.803  25.897  33.361  0.00  0.00    -0.232 NA
ATOM     15  C   UNL d   1     -52.023  25.113  33.342  0.00  0.00     0.088 A 
ATOM     16  C   UNL d   1     -52.737  24.731  33.324  0.00  0.00     0.020 A 
ATOM     17  C   UNL d   1     -51.328  24.670  33.342  0.00  0.00     0.049 A 
ATOM     18  C   UNL d   1     -52.792  23.905  33.306  0.00  0.00     0.002 A 
ATOM     19  C   UNL d   1     -52.077  23.450  33.306  0.00  0.00     0.001 A 
ATOM     20  C   UNL d   1     -51.347  23.845  33.324  0.00  0.00     0.008 A 
ATOM     21  S   UNL d   1     -50.690  25.188  33.362  0.00  0.00    -0.060 SA
ENDBRANCH  12  13
ENDBRANCH   1  12
TORSDOF 4
ENDMDL
