MODEL 1
REMARK VINA RESULT:      35.0      0.000      0.000
REMARK  7 active torsions:
REMARK  status: ('A' for Active; 'I' for Inactive)
REMARK    1  A    between atoms: N_3  and  C_2 
REMARK       I    between atoms: C_6  and  N_3 
REMARK    2  A    between atoms: C_11  and  C_4 
REMARK    3  A    between atoms: C_5  and  C_6 
REMARK    4  A    between atoms: C_15  and  C_11 
REMARK    5  A    between atoms: C_18  and  C_12 
REMARK    6  A    between atoms: O_17  and  C_18 
REMARK    7  A    between atoms: C_19  and  O_17 
ROOT
ATOM      1  C   UNL d   1     -55.219-100.520 -43.681  0.00  0.00     0.158 A 
ATOM      2  O   UNL d   1     -55.812 -99.950 -43.640  0.00  0.00    -0.300 OA
ATOM      3  C   UNL d   1     -54.746-100.348 -44.333  0.00  0.00     0.032 A 
ATOM      4  C   UNL d   1     -55.710 -99.425 -44.265  0.00  0.00     0.125 A 
ATOM      5  C   UNL d   1     -55.051 -99.667 -44.697  0.00  0.00     0.029 A 
ENDROOT
BRANCH   1   6
ATOM      6  C   UNL d   1     -55.114-101.155 -43.158  0.00  0.00     0.304 C 
ATOM      7  N   UNL d   1     -55.103-101.020 -42.344  0.00  0.00    -0.180 NA
ATOM      8  O   UNL d   1     -55.022-101.915 -43.458  0.00  0.00    -0.263 OA
BRANCH   7   9
ATOM      9  C   UNL d   1     -54.998-101.651 -41.823  0.00  0.00     0.216 A 
ATOM     10  N   UNL d   1     -54.909-101.591 -40.993  0.00  0.00    -0.200 NA
ATOM     11  C   UNL d   1     -54.821-102.347 -40.702  0.00  0.00     0.175 A 
ATOM     12  N   UNL d   1     -54.853-102.877 -41.333  0.00  0.00    -0.187 NA
ATOM     13  S   UNL d   1     -54.964-102.439 -42.029  0.00  0.00     0.054 SA
BRANCH  11  14
ATOM     14  C   UNL d   1     -54.718-102.554 -39.914  0.00  0.00     0.082 C 
BRANCH  14  15
ATOM     15  C   UNL d   1     -55.369-102.558 -39.400  0.00  0.00     0.199 C 
ATOM     16  O   UNL d   1     -55.255-102.673 -38.589  0.00  0.00    -0.286 OA
ATOM     17  C   UNL d   1     -56.132-102.447 -39.695  0.00  0.00     0.045 C 
ENDBRANCH  14  15
ENDBRANCH  11  14
ENDBRANCH   7   9
ENDBRANCH   1   6
BRANCH   4  18
ATOM     18  C   UNL d   1     -56.183 -98.772 -44.429  0.00  0.00     0.147 C 
BRANCH  18  19
ATOM     19  O   UNL d   1     -56.905 -98.878 -44.819  0.00  0.00    -0.303 OA
BRANCH  19  20
ATOM     20  C   UNL d   1     -57.609 -98.853 -44.393  0.00  0.00     0.100 A 
ATOM     21  C   UNL d   1     -58.338 -98.882 -44.791  0.00  0.00     0.025 A 
ATOM     22  C   UNL d   1     -59.042 -98.856 -44.366  0.00  0.00     0.002 A 
ATOM     23  C   UNL d   1     -59.018 -98.802 -43.543  0.00  0.00     0.000 A 
ATOM     24  C   UNL d   1     -58.294 -98.773 -43.146  0.00  0.00     0.002 A 
ATOM     25  C   UNL d   1     -57.590 -98.799 -43.570  0.00  0.00     0.025 A 
ENDBRANCH  19  20
ENDBRANCH  18  19
ENDBRANCH   4  18
TORSDOF 7
ENDMDL
