MODEL 1
REMARK VINA RESULT:      49.4      0.000      0.000
REMARK  3 active torsions:
REMARK  status: ('A' for Active; 'I' for Inactive)
REMARK    1  A    between atoms: C_4  and  C_1 
REMARK    2  A    between atoms: C_11  and  C_10 
REMARK    3  A    between atoms: O_20  and  C_11 
ROOT
ATOM      1  C   UNL d   1      45.135 -14.271  44.389  0.00  0.00     0.004 A 
ATOM      2  C   UNL d   1      45.025 -15.692  44.302  0.00  0.00     0.102 A 
ATOM      3  C   UNL d   1      45.485 -15.008  44.275  0.00  0.00     0.023 A 
ATOM      4  O   UNL d   1      44.214 -15.640  44.443  0.00  0.00    -0.307 OA
ATOM      5  C   UNL d   1      43.866 -14.903  44.557  0.00  0.00     0.102 A 
ATOM      6  C   UNL d   1      44.326 -14.219  44.530  0.00  0.00     0.023 A 
ATOM      7  C   UNL d   1      45.373 -16.429  44.188  0.00  0.00     0.046 A 
ATOM      8  C   UNL d   1      46.293 -15.060  44.134  0.00  0.00     0.004 A 
ATOM      9  C   UNL d   1      43.056 -14.851  44.698  0.00  0.00     0.046 A 
ATOM     10  C   UNL d   1      46.187 -16.483  44.046  0.00  0.00     0.105 A 
ATOM     11  C   UNL d   1      46.647 -15.799  44.020  0.00  0.00     0.021 A 
ATOM     12  C   UNL d   1      43.976 -13.482  44.644  0.00  0.00     0.004 A 
ATOM     13  N   UNL d   1      46.543 -17.225  43.931  0.00  0.00    -0.148 N 
ATOM     14  C   UNL d   1      42.700 -14.109  44.813  0.00  0.00     0.105 A 
ATOM     15  C   UNL d   1      43.160 -13.425  44.786  0.00  0.00     0.021 A 
ATOM     16  N   UNL d   1      41.887 -14.055  44.955  0.00  0.00    -0.148 N 
ENDROOT
BRANCH   1  17
ATOM     17  C   UNL d   1      45.595 -13.587  44.362  0.00  0.00     0.005 A 
ATOM     18  C   UNL d   1      45.497 -13.048  43.748  0.00  0.00     0.063 A 
ATOM     19  C   UNL d   1      45.960 -12.360  43.721  0.00  0.00     0.005 A 
ATOM     20  C   UNL d   1      46.518 -12.214  44.308  0.00  0.00     0.000 A 
ATOM     21  C   UNL d   1      46.617 -12.755  44.927  0.00  0.00     0.000 A 
ATOM     22  C   UNL d   1      46.155 -13.442  44.954  0.00  0.00     0.000 A 
BRANCH  18  23
ATOM     23  C   UNL d   1      45.085 -12.844  43.032  0.00  0.00     0.296 C 
ATOM     24  O   UNL d   1      45.605 -12.321  42.480  0.00  0.00    -0.259 OA
BRANCH  23  25
ATOM     25  O   UNL d   1      44.478 -12.797  42.448  0.00  0.00    -0.296 OA
ATOM     26  C   UNL d   1      44.388 -12.186  41.711  0.00  0.00     0.185 C 
ENDBRANCH  23  25
ENDBRANCH  18  23
ENDBRANCH   1  17
TORSDOF 3
ENDMDL
