MODEL 1
REMARK VINA RESULT:      -3.4      0.000      0.000
REMARK  3 active torsions:
REMARK  status: ('A' for Active; 'I' for Inactive)
REMARK    1  A    between atoms: S_6  and  C_1 
REMARK    2  A    between atoms: C_8  and  S_6 
REMARK    3  A    between atoms: C_7  and  C_8 
ROOT
ATOM      1  C   UNL d   1      32.961  20.382 -21.890  0.00  0.00     0.194 A 
ATOM      2  N   UNL d   1      33.236  21.089 -22.222  0.00  0.00    -0.220 NA
ATOM      3  N   UNL d   1      32.496  20.573 -21.217  0.00  0.00    -0.220 NA
ATOM      4  C   UNL d   1      32.945  21.715 -21.761  0.00  0.00     0.101 A 
ATOM      5  C   UNL d   1      32.488  21.396 -21.141  0.00  0.00     0.101 A 
ATOM      6  C   UNL d   1      33.038  22.538 -21.828  0.00  0.00     0.021 A 
ATOM      7  C   UNL d   1      32.133  21.913 -20.597  0.00  0.00     0.021 A 
ATOM      8  C   UNL d   1      32.229  22.728 -20.667  0.00  0.00     0.002 A 
ATOM      9  C   UNL d   1      32.681  23.040 -21.282  0.00  0.00     0.002 A 
ENDROOT
BRANCH   1  10
ATOM     10  S   UNL d   1      33.113  19.619 -22.166  0.00  0.00    -0.048 SA
BRANCH  10  11
ATOM     11  C   UNL d   1      32.869  19.389 -22.923  0.00  0.00     0.041 C 
BRANCH  11  12
ATOM     12  C   UNL d   1      32.868  18.589 -23.126  0.00  0.00     0.034 A 
ATOM     13  C   UNL d   1      32.491  18.347 -23.819  0.00  0.00     0.141 A 
ATOM     14  F   UNL d   1      32.122  18.906 -24.297  0.00  0.00    -0.204 F 
ATOM     15  C   UNL d   1      32.486  17.549 -24.029  0.00  0.00     0.030 A 
ATOM     16  C   UNL d   1      32.859  17.000 -23.541  0.00  0.00     0.002 A 
ATOM     17  C   UNL d   1      33.237  17.238 -22.848  0.00  0.00     0.000 A 
ATOM     18  C   UNL d   1      33.238  18.038 -22.645  0.00  0.00     0.003 A 
ENDBRANCH  11  12
ENDBRANCH  10  11
ENDBRANCH   1  10
TORSDOF 3
ENDMDL
MODEL 2
REMARK VINA RESULT:      -3.3      1.511      4.524
REMARK  3 active torsions:
REMARK  status: ('A' for Active; 'I' for Inactive)
REMARK    1  A    between atoms: S_6  and  C_1 
REMARK    2  A    between atoms: C_8  and  S_6 
REMARK    3  A    between atoms: C_7  and  C_8 
ROOT
ATOM      1  C   UNL d   1      33.175  20.476 -21.788  0.00  0.00     0.194 A 
ATOM      2  N   UNL d   1      33.105  19.659 -21.674  0.00  0.00    -0.220 NA
ATOM      3  N   UNL d   1      33.237  20.620 -22.613  0.00  0.00    -0.220 NA
ATOM      4  C   UNL d   1      33.123  19.297 -22.422  0.00  0.00     0.101 A 
ATOM      5  C   UNL d   1      33.205  19.891 -23.001  0.00  0.00     0.101 A 
ATOM      6  C   UNL d   1      33.076  18.499 -22.648  0.00  0.00     0.021 A 
ATOM      7  C   UNL d   1      33.238  19.670 -23.800  0.00  0.00     0.021 A 
ATOM      8  C   UNL d   1      33.191  18.878 -24.020  0.00  0.00     0.002 A 
ATOM      9  C   UNL d   1      33.110  18.293 -23.444  0.00  0.00     0.002 A 
ENDROOT
BRANCH   1  10
ATOM     10  S   UNL d   1      33.183  21.054 -21.200  0.00  0.00    -0.048 SA
BRANCH  10  11
ATOM     11  C   UNL d   1      32.633  21.674 -21.210  0.00  0.00     0.041 C 
BRANCH  11  12
ATOM     12  C   UNL d   1      32.679  22.270 -20.642  0.00  0.00     0.034 A 
ATOM     13  C   UNL d   1      32.261  22.973 -20.757  0.00  0.00     0.141 A 
ATOM     14  F   UNL d   1      31.804  23.067 -21.435  0.00  0.00    -0.204 F 
ATOM     15  C   UNL d   1      32.302  23.574 -20.193  0.00  0.00     0.030 A 
ATOM     16  C   UNL d   1      32.763  23.465 -19.519  0.00  0.00     0.002 A 
ATOM     17  C   UNL d   1      33.182  22.766 -19.402  0.00  0.00     0.000 A 
ATOM     18  C   UNL d   1      33.136  22.169 -19.970  0.00  0.00     0.003 A 
ENDBRANCH  11  12
ENDBRANCH  10  11
ENDBRANCH   1  10
TORSDOF 3
ENDMDL
MODEL 3
REMARK VINA RESULT:      -3.3      1.307      4.435
REMARK  3 active torsions:
REMARK  status: ('A' for Active; 'I' for Inactive)
REMARK    1  A    between atoms: S_6  and  C_1 
REMARK    2  A    between atoms: C_8  and  S_6 
REMARK    3  A    between atoms: C_7  and  C_8 
ROOT
ATOM      1  C   UNL d   1      33.175  19.723 -22.689  0.00  0.00     0.194 A 
ATOM      2  N   UNL d   1      33.082  18.981 -22.335  0.00  0.00    -0.220 NA
ATOM      3  N   UNL d   1      33.193  19.615 -23.522  0.00  0.00    -0.220 NA
ATOM      4  C   UNL d   1      33.043  18.414 -22.941  0.00  0.00     0.101 A 
ATOM      5  C   UNL d   1      33.111  18.806 -23.674  0.00  0.00     0.101 A 
ATOM      6  C   UNL d   1      32.953  17.588 -22.918  0.00  0.00     0.021 A 
ATOM      7  C   UNL d   1      33.088  18.358 -24.372  0.00  0.00     0.021 A 
ATOM      8  C   UNL d   1      32.999  17.540 -24.344  0.00  0.00     0.002 A 
ATOM      9  C   UNL d   1      32.932  17.155 -23.617  0.00  0.00     0.002 A 
ENDROOT
BRANCH   1  10
ATOM     10  S   UNL d   1      33.238  20.448 -22.300  0.00  0.00    -0.048 SA
BRANCH  10  11
ATOM     11  C   UNL d   1      32.692  20.661 -21.716  0.00  0.00     0.041 C 
BRANCH  11  12
ATOM     12  C   UNL d   1      32.690  21.432 -21.421  0.00  0.00     0.034 A 
ATOM     13  C   UNL d   1      32.129  21.648 -20.854  0.00  0.00     0.141 A 
ATOM     14  F   UNL d   1      31.582  21.092 -20.592  0.00  0.00    -0.204 F 
ATOM     15  C   UNL d   1      32.121  22.416 -20.554  0.00  0.00     0.030 A 
ATOM     16  C   UNL d   1      32.675  22.962 -20.825  0.00  0.00     0.002 A 
ATOM     17  C   UNL d   1      33.235  22.750 -21.391  0.00  0.00     0.000 A 
ATOM     18  C   UNL d   1      33.237  21.979 -21.686  0.00  0.00     0.003 A 
ENDBRANCH  11  12
ENDBRANCH  10  11
ENDBRANCH   1  10
TORSDOF 3
ENDMDL
MODEL 4
REMARK VINA RESULT:      -3.2      0.859      1.166
REMARK  3 active torsions:
REMARK  status: ('A' for Active; 'I' for Inactive)
REMARK    1  A    between atoms: S_6  and  C_1 
REMARK    2  A    between atoms: C_8  and  S_6 
REMARK    3  A    between atoms: C_7  and  C_8 
ROOT
ATOM      1  C   UNL d   1      33.131  19.492 -22.516  0.00  0.00     0.194 A 
ATOM      2  N   UNL d   1      33.241  20.205 -22.922  0.00  0.00    -0.220 NA
ATOM      3  N   UNL d   1      33.000  19.671 -21.706  0.00  0.00    -0.220 NA
ATOM      4  C   UNL d   1      33.179  20.824 -22.371  0.00  0.00     0.101 A 
ATOM      5  C   UNL d   1      33.030  20.493 -21.620  0.00  0.00     0.101 A 
ATOM      6  C   UNL d   1      33.239  21.647 -22.457  0.00  0.00     0.021 A 
ATOM      7  C   UNL d   1      32.945  21.000 -20.969  0.00  0.00     0.021 A 
ATOM      8  C   UNL d   1      33.006  21.816 -21.059  0.00  0.00     0.002 A 
ATOM      9  C   UNL d   1      33.153  22.139 -21.804  0.00  0.00     0.002 A 
ENDROOT
BRANCH   1  10
ATOM     10  S   UNL d   1      33.146  18.735 -22.843  0.00  0.00    -0.048 SA
BRANCH  10  11
ATOM     11  C   UNL d   1      32.477  18.426 -23.220  0.00  0.00     0.041 C 
BRANCH  11  12
ATOM     12  C   UNL d   1      32.480  17.643 -23.481  0.00  0.00     0.034 A 
ATOM     13  C   UNL d   1      31.822  17.345 -23.881  0.00  0.00     0.141 A 
ATOM     14  F   UNL d   1      31.172  17.834 -24.013  0.00  0.00    -0.204 F 
ATOM     15  C   UNL d   1      31.818  16.564 -24.145  0.00  0.00     0.030 A 
ATOM     16  C   UNL d   1      32.475  16.087 -24.005  0.00  0.00     0.002 A 
ATOM     17  C   UNL d   1      33.133  16.380 -23.607  0.00  0.00     0.000 A 
ATOM     18  C   UNL d   1      33.130  17.163 -23.346  0.00  0.00     0.003 A 
ENDBRANCH  11  12
ENDBRANCH  10  11
ENDBRANCH   1  10
TORSDOF 3
ENDMDL
MODEL 5
REMARK VINA RESULT:      -2.7      3.195      5.226
REMARK  3 active torsions:
REMARK  status: ('A' for Active; 'I' for Inactive)
REMARK    1  A    between atoms: S_6  and  C_1 
REMARK    2  A    between atoms: C_8  and  S_6 
REMARK    3  A    between atoms: C_7  and  C_8 
ROOT
ATOM      1  C   UNL d   1      30.476  17.146 -24.429  0.00  0.00     0.194 A 
ATOM      2  N   UNL d   1      29.737  17.484 -24.274  0.00  0.00    -0.220 NA
ATOM      3  N   UNL d   1      30.417  16.319 -24.300  0.00  0.00    -0.220 NA
ATOM      4  C   UNL d   1      29.220  16.873 -24.051  0.00  0.00     0.101 A 
ATOM      5  C   UNL d   1      29.641  16.154 -24.068  0.00  0.00     0.101 A 
ATOM      6  C   UNL d   1      28.418  16.880 -23.835  0.00  0.00     0.021 A 
ATOM      7  C   UNL d   1      29.245  15.453 -23.865  0.00  0.00     0.021 A 
ATOM      8  C   UNL d   1      28.450  15.465 -23.652  0.00  0.00     0.002 A 
ATOM      9  C   UNL d   1      28.037  16.179 -23.637  0.00  0.00     0.002 A 
ENDROOT
BRANCH   1  10
ATOM     10  S   UNL d   1      31.158  17.546 -24.667  0.00  0.00    -0.048 SA
BRANCH  10  11
ATOM     11  C   UNL d   1      31.769  17.694 -24.129  0.00  0.00     0.041 C 
BRANCH  11  12
ATOM     12  C   UNL d   1      32.260  18.348 -24.239  0.00  0.00     0.034 A 
ATOM     13  C   UNL d   1      32.638  18.686 -23.587  0.00  0.00     0.141 A 
ATOM     14  F   UNL d   1      32.519  18.367 -22.838  0.00  0.00    -0.204 F 
ATOM     15  C   UNL d   1      33.130  19.340 -23.689  0.00  0.00     0.030 A 
ATOM     16  C   UNL d   1      33.240  19.650 -24.444  0.00  0.00     0.002 A 
ATOM     17  C   UNL d   1      32.865  19.315 -25.097  0.00  0.00     0.000 A 
ATOM     18  C   UNL d   1      32.374  18.661 -24.987  0.00  0.00     0.003 A 
ENDBRANCH  11  12
ENDBRANCH  10  11
ENDBRANCH   1  10
TORSDOF 3
ENDMDL
MODEL 6
REMARK VINA RESULT:      -1.5      3.232      4.745
REMARK  3 active torsions:
REMARK  status: ('A' for Active; 'I' for Inactive)
REMARK    1  A    between atoms: S_6  and  C_1 
REMARK    2  A    between atoms: C_8  and  S_6 
REMARK    3  A    between atoms: C_7  and  C_8 
ROOT
ATOM      1  C   UNL d   1      32.893  22.870 -18.507  0.00  0.00     0.194 A 
ATOM      2  N   UNL d   1      32.988  22.203 -18.025  0.00  0.00    -0.220 NA
ATOM      3  N   UNL d   1      32.915  23.551 -18.017  0.00  0.00    -0.220 NA
ATOM      4  C   UNL d   1      33.068  22.467 -17.241  0.00  0.00     0.101 A 
ATOM      5  C   UNL d   1      33.023  23.299 -17.237  0.00  0.00     0.101 A 
ATOM      6  C   UNL d   1      33.176  22.053 -16.530  0.00  0.00     0.021 A 
ATOM      7  C   UNL d   1      33.088  23.700 -16.514  0.00  0.00     0.021 A 
ATOM      8  C   UNL d   1      33.195  23.286 -15.811  0.00  0.00     0.002 A 
ATOM      9  C   UNL d   1      33.239  22.462 -15.819  0.00  0.00     0.002 A 
ENDROOT
BRANCH   1  10
ATOM     10  S   UNL d   1      32.794  22.872 -19.326  0.00  0.00    -0.048 SA
BRANCH  10  11
ATOM     11  C   UNL d   1      33.024  22.219 -19.780  0.00  0.00     0.041 C 
BRANCH  11  12
ATOM     12  C   UNL d   1      32.972  22.254 -20.603  0.00  0.00     0.034 A 
ATOM     13  C   UNL d   1      32.863  21.558 -21.033  0.00  0.00     0.141 A 
ATOM     14  F   UNL d   1      32.807  20.839 -20.636  0.00  0.00    -0.204 F 
ATOM     15  C   UNL d   1      32.810  21.586 -21.856  0.00  0.00     0.030 A 
ATOM     16  C   UNL d   1      32.868  22.312 -22.241  0.00  0.00     0.002 A 
ATOM     17  C   UNL d   1      32.977  23.009 -21.814  0.00  0.00     0.000 A 
ATOM     18  C   UNL d   1      33.029  22.973 -20.992  0.00  0.00     0.003 A 
ENDBRANCH  11  12
ENDBRANCH  10  11
ENDBRANCH   1  10
TORSDOF 3
ENDMDL
