MODEL 1
REMARK VINA RESULT:      13.7      0.000      0.000
REMARK  0 active torsions:
REMARK  status: ('A' for Active; 'I' for Inactive)
ROOT
ATOM      1  N   UNL d   1      61.077  49.708  51.084  0.00  0.00    -0.152 NA
ATOM      2  C   UNL d   1      60.619  49.708  50.404  0.00  0.00     0.284 A 
ATOM      3  C   UNL d   1      60.707  49.707  51.833  0.00  0.00     0.371 A 
ATOM      4  C   UNL d   1      59.794  49.708  50.457  0.00  0.00     0.076 A 
ATOM      5  N   UNL d   1      59.882  49.707  51.886  0.00  0.00    -0.191 NA
ATOM      6  C   UNL d   1      59.424  49.708  51.195  0.00  0.00     0.091 A 
ATOM      7  O   UNL d   1      60.984  49.708  49.663  0.00  0.00    -0.265 OA
ATOM      8  O   UNL d   1      61.166  49.707  52.519  0.00  0.00    -0.242 OA
ATOM      9  C   UNL d   1      59.340  49.708  49.768  0.00  0.00     0.006 A 
ATOM     10  C   UNL d   1      58.601  49.708  51.244  0.00  0.00     0.019 A 
ATOM     11  C   UNL d   1      58.517  49.708  49.818  0.00  0.00     0.000 A 
ATOM     12  C   UNL d   1      58.147  49.708  50.555  0.00  0.00     0.002 A 
ENDROOT
TORSDOF 0
ENDMDL
MODEL 2
REMARK VINA RESULT:      15.1      1.798      2.679
REMARK  0 active torsions:
REMARK  status: ('A' for Active; 'I' for Inactive)
ROOT
ATOM      1  N   UNL d   1      58.830  49.695  50.868  0.00  0.00    -0.152 NA
ATOM      2  C   UNL d   1      58.034  49.693  51.063  0.00  0.00     0.284 A 
ATOM      3  C   UNL d   1      59.061  49.701  50.066  0.00  0.00     0.371 A 
ATOM      4  C   UNL d   1      57.459  49.697  50.469  0.00  0.00     0.076 A 
ATOM      5  N   UNL d   1      58.486  49.704  49.471  0.00  0.00    -0.191 NA
ATOM      6  C   UNL d   1      57.682  49.702  49.675  0.00  0.00     0.091 A 
ATOM      7  O   UNL d   1      57.806  49.688  51.857  0.00  0.00    -0.265 OA
ATOM      8  O   UNL d   1      59.862  49.703  49.867  0.00  0.00    -0.242 OA
ATOM      9  C   UNL d   1      56.660  49.695  50.673  0.00  0.00     0.006 A 
ATOM     10  C   UNL d   1      57.107  49.705  49.084  0.00  0.00     0.019 A 
ATOM     11  C   UNL d   1      56.084  49.698  50.083  0.00  0.00     0.000 A 
ATOM     12  C   UNL d   1      56.308  49.703  49.288  0.00  0.00     0.002 A 
ENDROOT
TORSDOF 0
ENDMDL
MODEL 3
REMARK VINA RESULT:      15.4      1.260      2.213
REMARK  0 active torsions:
REMARK  status: ('A' for Active; 'I' for Inactive)
ROOT
ATOM      1  N   UNL d   1      59.358  49.674  49.764  0.00  0.00    -0.152 NA
ATOM      2  C   UNL d   1      60.137  49.663  50.020  0.00  0.00     0.284 A 
ATOM      3  C   UNL d   1      58.738  49.696  50.322  0.00  0.00     0.371 A 
ATOM      4  C   UNL d   1      60.310  49.674  50.828  0.00  0.00     0.076 A 
ATOM      5  N   UNL d   1      58.912  49.707  51.131  0.00  0.00    -0.191 NA
ATOM      6  C   UNL d   1      59.701  49.696  51.384  0.00  0.00     0.091 A 
ATOM      7  O   UNL d   1      60.751  49.642  49.467  0.00  0.00    -0.265 OA
ATOM      8  O   UNL d   1      57.953  49.707  50.067  0.00  0.00    -0.242 OA
ATOM      9  C   UNL d   1      61.097  49.663  51.077  0.00  0.00     0.006 A 
ATOM     10  C   UNL d   1      59.877  49.707  52.190  0.00  0.00     0.019 A 
ATOM     11  C   UNL d   1      61.273  49.674  51.883  0.00  0.00     0.000 A 
ATOM     12  C   UNL d   1      60.663  49.696  52.439  0.00  0.00     0.002 A 
ENDROOT
TORSDOF 0
ENDMDL
