MODEL 1
REMARK VINA RESULT:      -3.5      0.000      0.000
REMARK  5 active torsions:
REMARK  status: ('A' for Active; 'I' for Inactive)
REMARK    1  A    between atoms: C_11  and  N_1 
REMARK    2  A    between atoms: C_15  and  C_3 
REMARK    3  A    between atoms: N_4  and  C_7 
REMARK    4  A    between atoms: C_9  and  C_10 
REMARK       I    between atoms: C_10  and  N_12 
REMARK    5  A    between atoms: N_12  and  C_15 
ROOT
ATOM      1  C   UNL d   1      58.099  -0.584  30.440  0.00  0.00     0.141 C 
ENDROOT
BRANCH   1   2
ATOM      2  N   UNL d   1      57.897  -0.231  31.160  0.00  0.00    -0.203 NA
ATOM      3  C   UNL d   1      57.276  -0.547  31.609  0.00  0.00     0.279 C 
ATOM      4  O   UNL d   1      56.872  -1.196  31.343  0.00  0.00    -0.265 OA
BRANCH   3   5
ATOM      5  C   UNL d   1      57.077  -0.189  32.333  0.00  0.00     0.059 A 
ATOM      6  C   UNL d   1      56.341  -0.344  32.677  0.00  0.00     0.027 A 
ATOM      7  C   UNL d   1      56.149   0.007  33.382  0.00  0.00     0.127 A 
ATOM      8  C   UNL d   1      55.820  -0.853  32.292  0.00  0.00     0.002 C 
ATOM      9  C   UNL d   1      56.681   0.522  33.767  0.00  0.00     0.024 A 
ATOM     10  C   UNL d   1      57.415   0.682  33.432  0.00  0.00     0.002 A 
ATOM     11  C   UNL d   1      57.609   0.331  32.724  0.00  0.00     0.005 A 
BRANCH   7  12
ATOM     12  N   UNL d   1      55.419  -0.153  33.714  0.00  0.00    -0.114 N 
ATOM     13  O   UNL d   1      54.733   0.212  33.429  0.00  0.00    -0.532 OA
ATOM     14  O   UNL d   1      55.359  -0.690  34.348  0.00  0.00    -0.532 OA
ENDBRANCH   7  12
ENDBRANCH   3   5
ENDBRANCH   1   2
BRANCH   1  15
ATOM     15  C   UNL d   1      58.670  -0.234  29.955  0.00  0.00     0.191 A 
ATOM     16  N   UNL d   1      59.142  -0.613  29.399  0.00  0.00    -0.264 N 
ATOM     17  C   UNL d   1      59.632  -0.063  29.042  0.00  0.00     0.227 A 
ATOM     18  N   UNL d   1      59.467   0.682  29.380  0.00  0.00    -0.117 NA
ATOM     19  S   UNL d   1      60.189  -0.208  28.455  0.00  0.00    -0.036 SA
ATOM     20  N   UNL d   1      58.868   0.576  29.949  0.00  0.00    -0.126 NA
BRANCH  16  21
ATOM     21  C   UNL d   1      59.123  -1.425  29.227  0.00  0.00     0.068 A 
ATOM     22  C   UNL d   1      59.642  -1.933  29.621  0.00  0.00     0.020 A 
ATOM     23  C   UNL d   1      59.614  -2.738  29.443  0.00  0.00     0.031 A 
ATOM     24  C   UNL d   1      59.085  -3.038  28.886  0.00  0.00     0.140 A 
ATOM     25  C   UNL d   1      58.571  -2.514  28.499  0.00  0.00     0.031 A 
ATOM     26  F   UNL d   1      59.067  -3.837  28.718  0.00  0.00    -0.204 F 
ATOM     27  C   UNL d   1      58.589  -1.707  28.669  0.00  0.00     0.020 A 
ENDBRANCH  16  21
ENDBRANCH   1  15
TORSDOF 5
ENDMDL
