MODEL 1
REMARK VINA RESULT:      61.1      0.000      0.000
REMARK  4 active torsions:
REMARK  status: ('A' for Active; 'I' for Inactive)
REMARK    1  A    between atoms: N_7  and  C_1 
REMARK    2  A    between atoms: S_2  and  C_8 
REMARK    3  A    between atoms: C_10  and  S_2 
REMARK       I    between atoms: C_9  and  N_7 
REMARK    4  A    between atoms: C_8  and  C_9 
ROOT
ATOM      1  N   UNL d   1      59.563  49.428  50.174  0.00  0.00    -0.182 NA
ATOM      2  C   UNL d   1      60.042  49.319  50.835  0.00  0.00     0.293 C 
ATOM      3  O   UNL d   1      59.712  49.273  51.591  0.00  0.00    -0.264 OA
ENDROOT
BRANCH   2   4
ATOM      4  C   UNL d   1      60.853  49.254  50.760  0.00  0.00     0.161 C 
BRANCH   4   5
ATOM      5  S   UNL d   1      61.183  48.518  50.522  0.00  0.00     0.215 S 
ATOM      6  O   UNL d   1      60.804  48.139  51.164  0.00  0.00    -0.217 OA
ATOM      7  O   UNL d   1      61.556  48.897  49.888  0.00  0.00    -0.217 OA
BRANCH   5   8
ATOM      8  C   UNL d   1      61.509  47.789  50.288  0.00  0.00     0.088 A 
ATOM      9  C   UNL d   1      62.103  47.769  49.718  0.00  0.00     0.012 A 
ATOM     10  C   UNL d   1      62.423  47.050  49.489  0.00  0.00     0.012 A 
ATOM     11  C   UNL d   1      62.149  46.351  49.829  0.00  0.00     0.058 A 
ATOM     12  C   UNL d   1      61.560  46.366  50.394  0.00  0.00     0.012 A 
ATOM     13 CL   UNL d   1      62.473  45.628  49.596  0.00  0.00    -0.082 Cl
ATOM     14  C   UNL d   1      61.239  47.091  50.624  0.00  0.00     0.012 A 
ENDBRANCH   5   8
ENDBRANCH   4   5
ENDBRANCH   2   4
BRANCH   1  15
ATOM     15  C   UNL d   1      58.779  49.490  50.259  0.00  0.00     0.197 A 
ATOM     16  N   UNL d   1      58.222  49.521  49.628  0.00  0.00    -0.221 NA
ATOM     17  C   UNL d   1      57.460  49.585  49.962  0.00  0.00     0.090 A 
ATOM     18  C   UNL d   1      56.709  49.636  49.620  0.00  0.00     0.018 A 
ATOM     19  C   UNL d   1      57.547  49.595  50.795  0.00  0.00     0.060 A 
ATOM     20  C   UNL d   1      56.035  49.698  50.107  0.00  0.00     0.002 A 
ATOM     21  C   UNL d   1      56.631  49.627  48.833  0.00  0.00     0.002 C 
ATOM     22  C   UNL d   1      56.111  49.708  50.950  0.00  0.00     0.012 A 
ATOM     23  C   UNL d   1      56.873  49.656  51.286  0.00  0.00     0.065 A 
ATOM     24 CL   UNL d   1      56.962  49.665  52.102  0.00  0.00    -0.082 Cl
ATOM     25  S   UNL d   1      58.368  49.535  50.969  0.00  0.00    -0.046 SA
ENDBRANCH   1  15
TORSDOF 4
ENDMDL
