MODEL 1
REMARK VINA RESULT:      30.5      0.000      0.000
REMARK  4 active torsions:
REMARK  status: ('A' for Active; 'I' for Inactive)
REMARK    1  A    between atoms: C_2  and  C_1 
REMARK    2  A    between atoms: N_4  and  C_1 
REMARK    3  A    between atoms: O_13  and  C_5 
REMARK    4  A    between atoms: O_12  and  C_6 
ROOT
ATOM      1  C   UNL d   1     -51.585  24.831  33.561  0.00  0.00     0.031 A 
ATOM      2  C   UNL d   1     -51.081  26.396  33.432  0.00  0.00     0.138 A 
ATOM      3  C   UNL d   1     -50.524  25.790  33.523  0.00  0.00     0.118 A 
ATOM      4  C   UNL d   1     -51.892  26.219  33.405  0.00  0.00     0.118 A 
ATOM      5  C   UNL d   1     -50.782  25.014  33.587  0.00  0.00     0.029 A 
ATOM      6  C   UNL d   1     -52.141  25.436  33.470  0.00  0.00     0.029 A 
ATOM      7  O   UNL d   1     -50.838  27.185  33.366  0.00  0.00    -0.324 OA
ATOM      8  C   UNL d   1     -50.544  27.946  33.306  0.00  0.00     0.182 C 
ENDROOT
BRANCH   4   9
ATOM      9  O   UNL d   1     -52.450  26.823  33.314  0.00  0.00    -0.326 OA
ATOM     10  C   UNL d   1     -52.945  27.022  33.936  0.00  0.00     0.181 C 
ENDBRANCH   4   9
BRANCH   3  11
ATOM     11  O   UNL d   1     -49.707  25.977  33.549  0.00  0.00    -0.326 OA
ATOM     12  C   UNL d   1     -49.149  25.380  33.380  0.00  0.00     0.181 C 
ENDBRANCH   3  11
BRANCH   1  13
ATOM     13  C   UNL d   1     -51.837  24.055  33.625  0.00  0.00     0.120 C 
ATOM     14  S   UNL d   1     -51.283  23.437  33.554  0.00  0.00    -0.059 SA
BRANCH  13  15
ATOM     15  N   UNL d   1     -52.640  23.888  33.760  0.00  0.00    -0.292 N 
ATOM     16  C   UNL d   1     -53.190  24.276  33.306  0.00  0.00     0.108 A 
ATOM     17  C   UNL d   1     -54.001  24.127  33.421  0.00  0.00     0.142 A 
ATOM     18  O   UNL d   1     -54.243  23.590  33.992  0.00  0.00    -0.300 OA
ATOM     19  C   UNL d   1     -53.679  23.200  34.450  0.00  0.00     0.142 A 
ATOM     20  C   UNL d   1     -52.882  23.348  34.335  0.00  0.00     0.108 A 
ENDBRANCH  13  15
ENDBRANCH   1  13
TORSDOF 4
ENDMDL
