MODEL 1
REMARK VINA RESULT:      23.1      0.000      0.000
REMARK  7 active torsions:
REMARK  status: ('A' for Active; 'I' for Inactive)
REMARK    1  A    between atoms: C_5  and  C_1 
REMARK    2  A    between atoms: N_3  and  C_2 
REMARK    3  A    between atoms: C_14  and  C_5 
REMARK    4  A    between atoms: C_10  and  C_6 
REMARK    5  A    between atoms: O_19  and  C_10 
REMARK    6  A    between atoms: O_22  and  C_18 
REMARK    7  A    between atoms: C_26  and  O_19 
ROOT
ATOM      1  C   UNL d   1     -41.417-120.615 -52.136  0.00  0.00     0.074 A 
ATOM      2  C   UNL d   1     -41.630-121.419 -52.046  0.00  0.00     0.070 A 
ATOM      3  C   UNL d   1     -41.797-121.724 -51.297  0.00  0.00     0.036 A 
ATOM      4  C   UNL d   1     -41.376-120.126 -51.471  0.00  0.00     0.103 A 
ATOM      5  N   UNL d   1     -41.547-120.441 -50.715  0.00  0.00    -0.244 NA
ATOM      6  C   UNL d   1     -41.756-121.235 -50.632  0.00  0.00     0.083 A 
ATOM      7  C   UNL d   1     -42.006-122.518 -51.214  0.00  0.00     0.027 A 
ATOM      8  C   UNL d   1     -41.923-121.539 -49.883  0.00  0.00     0.021 A 
ATOM      9  C   UNL d   1     -42.174-122.822 -50.465  0.00  0.00     0.094 A 
ATOM     10  C   UNL d   1     -42.132-122.333 -49.801  0.00  0.00     0.026 A 
ENDROOT
BRANCH   2  11
ATOM     11  N   UNL d   1     -41.672-121.911 -52.714  0.00  0.00    -0.303 N 
ATOM     12  C   UNL d   1     -42.245-121.775 -53.292  0.00  0.00     0.086 A 
ATOM     13  C   UNL d   1     -42.287-122.269 -53.964  0.00  0.00     0.081 A 
ATOM     14  C   UNL d   1     -41.755-122.894 -54.051  0.00  0.00     0.008 A 
ATOM     15  C   UNL d   1     -41.183-123.030 -53.473  0.00  0.00     0.019 A 
ATOM     16  C   UNL d   1     -41.140-122.536 -52.801  0.00  0.00     0.080 A 
BRANCH  13  17
ATOM     17  C   UNL d   1     -42.869-122.129 -54.549  0.00  0.00     0.302 C 
ATOM     18  O   UNL d   1     -43.640-122.428 -54.433  0.00  0.00    -0.259 OA
BRANCH  17  19
ATOM     19  O   UNL d   1     -42.678-121.700 -55.227  0.00  0.00    -0.271 OA
BRANCH  19  20
ATOM     20  C   UNL d   1     -42.895-121.988 -55.969  0.00  0.00     0.126 C 
ATOM     21  C   UNL d   1     -42.623-121.612 -56.651  0.00  0.00     0.029 C 
ENDBRANCH  19  20
ENDBRANCH  17  19
ENDBRANCH  13  17
ENDBRANCH   2  11
BRANCH   1  22
ATOM     22  C   UNL d   1     -41.250-120.311 -52.884  0.00  0.00     0.198 C 
ATOM     23  O   UNL d   1     -41.123-120.813 -53.528  0.00  0.00    -0.286 OA
BRANCH  22  24
ATOM     24  C   UNL d   1     -41.209-119.495 -52.995  0.00  0.00     0.039 A 
ATOM     25  C   UNL d   1     -41.187-119.185 -53.760  0.00  0.00     0.003 A 
ATOM     26  C   UNL d   1     -41.145-118.359 -53.878  0.00  0.00     0.000 A 
ATOM     27  C   UNL d   1     -41.125-117.862 -53.218  0.00  0.00     0.000 A 
ATOM     28  C   UNL d   1     -41.147-118.171 -52.454  0.00  0.00     0.000 A 
ATOM     29  C   UNL d   1     -41.188-118.989 -52.342  0.00  0.00     0.003 A 
ENDBRANCH  22  24
ENDBRANCH   1  22
BRANCH   9  30
ATOM     30  O   UNL d   1     -42.383-123.618 -50.386  0.00  0.00    -0.328 OA
ATOM     31  C   UNL d   1     -43.082-123.816 -49.990  0.00  0.00     0.181 C 
ENDBRANCH   9  30
TORSDOF 7
ENDMDL
