MODEL 1
REMARK VINA RESULT:      15.0      0.000      0.000
REMARK  4 active torsions:
REMARK  status: ('A' for Active; 'I' for Inactive)
REMARK    1  A    between atoms: C_3  and  C_1 
REMARK    2  A    between atoms: C_4  and  C_1 
REMARK    3  A    between atoms: C_2  and  C_3 
REMARK    4  A    between atoms: C_6  and  C_4 
ROOT
ATOM      1  C   UNL d   1      44.161 -15.979  36.779  0.00  0.00     0.196 C 
ATOM      2  O   UNL d   1      44.392 -16.606  37.267  0.00  0.00    -0.287 OA
ENDROOT
BRANCH   1   3
ATOM      3  C   UNL d   1      44.728 -15.567  36.343  0.00  0.00     0.044 C 
BRANCH   3   4
ATOM      4  C   UNL d   1      45.526 -15.398  36.449  0.00  0.00     0.028 C 
BRANCH   4   5
ATOM      5  C   UNL d   1      45.945 -14.762  36.766  0.00  0.00     0.100 A 
ATOM      6  O   UNL d   1      46.131 -14.024  36.442  0.00  0.00    -0.305 OA
ATOM      7  C   UNL d   1      46.561 -13.594  36.995  0.00  0.00     0.123 A 
ATOM      8  C   UNL d   1      46.646 -14.072  37.676  0.00  0.00     0.029 A 
ATOM      9  C   UNL d   1      46.269 -14.791  37.540  0.00  0.00     0.027 A 
ENDBRANCH   4   5
ENDBRANCH   3   4
ENDBRANCH   1   3
BRANCH   1  10
ATOM     10  C   UNL d   1      43.361 -15.774  36.736  0.00  0.00     0.039 A 
ATOM     11  C   UNL d   1      42.816 -16.269  36.365  0.00  0.00     0.006 A 
ATOM     12  C   UNL d   1      42.021 -16.052  36.330  0.00  0.00     0.042 A 
ATOM     13  C   UNL d   1      41.771 -15.339  36.666  0.00  0.00     0.196 A 
ATOM     14  C   UNL d   1      42.325 -14.842  37.039  0.00  0.00     0.042 A 
ATOM     15  O   UNL d   1      40.976 -15.122  36.630  0.00  0.00    -0.287 OA
ATOM     16  C   UNL d   1      43.111 -15.061  37.072  0.00  0.00     0.006 A 
ENDBRANCH   1  10
TORSDOF 4
ENDMDL
