MODEL 1
REMARK VINA RESULT:      16.4      0.000      0.000
REMARK  3 active torsions:
REMARK  status: ('A' for Active; 'I' for Inactive)
REMARK    1  A    between atoms: C_15  and  N_1 
REMARK       I    between atoms: C_6  and  N_7 
REMARK    2  A    between atoms: C_11  and  C_6 
REMARK    3  A    between atoms: N_7  and  C_8 
ROOT
ATOM      1  N   UNL d   1      46.431 -19.755  43.823  0.00  0.00    -0.273 N 
ATOM      2  C   UNL d   1      46.521 -19.770  42.757  0.00  0.00     0.265 A 
ATOM      3  C   UNL d   1      46.341 -18.954  43.987  0.00  0.00     0.067 A 
ATOM      4  C   UNL d   1      46.364 -18.556  43.265  0.00  0.00     0.022 A 
ATOM      5  C   UNL d   1      46.460 -18.973  42.582  0.00  0.00     0.058 A 
ATOM      6  C   UNL d   1      46.191 -17.324  43.952  0.00  0.00     0.084 A 
ATOM      7  C   UNL d   1      46.289 -17.741  43.247  0.00  0.00     0.019 A 
ATOM      8  C   UNL d   1      46.243 -18.536  44.693  0.00  0.00     0.019 A 
ATOM      9  O   UNL d   1      46.623 -20.326  42.157  0.00  0.00    -0.267 OA
ATOM     10  C   UNL d   1      46.168 -17.721  44.675  0.00  0.00     0.021 A 
ATOM     11  C   UNL d   1      46.483 -18.576  41.859  0.00  0.00     0.005 A 
ATOM     12  C   UNL d   1      46.310 -17.344  42.546  0.00  0.00     0.002 A 
ATOM     13  C   UNL d   1      46.408 -17.761  41.842  0.00  0.00     0.000 A 
ENDROOT
BRANCH   6  14
ATOM     14  N   UNL d   1      46.115 -16.510  43.934  0.00  0.00    -0.212 NA
ATOM     15  C   UNL d   1      45.551 -16.140  44.409  0.00  0.00     0.255 C 
ATOM     16  O   UNL d   1      45.077 -16.585  44.887  0.00  0.00    -0.270 OA
BRANCH  15  17
ATOM     17  C   UNL d   1      45.476 -15.325  44.391  0.00  0.00     0.073 C 
ATOM     18  C   UNL d   1      46.035 -14.870  43.990  0.00  0.00     0.009 C 
ATOM     19  C   UNL d   1      44.841 -14.964  44.774  0.00  0.00     0.009 C 
ATOM     20  C   UNL d   1      45.382 -14.391  44.375  0.00  0.00     0.009 C 
ENDBRANCH  15  17
ENDBRANCH   6  14
BRANCH   1  21
ATOM     21  C   UNL d   1      46.428 -20.293  44.463  0.00  0.00     0.083 C 
ATOM     22  C   UNL d   1      45.787 -20.330  44.943  0.00  0.00     0.021 C 
ENDBRANCH   1  21
TORSDOF 3
ENDMDL
