MODEL 1
REMARK VINA RESULT:      -5.3      0.000      0.000
REMARK  6 active torsions:
REMARK  status: ('A' for Active; 'I' for Inactive)
REMARK    1  A    between atoms: C_15  and  N_1 
REMARK    2  A    between atoms: S_12  and  C_3 
REMARK    3  A    between atoms: C_4  and  N_11 
REMARK    4  A    between atoms: C_14  and  C_8 
REMARK       I    between atoms: N_11  and  C_13 
REMARK    5  A    between atoms: C_17  and  S_12 
REMARK    6  A    between atoms: C_13  and  C_17 
ROOT
ATOM      1  N   UNL d   1      57.594   0.670  29.760  0.00  0.00    -0.018 NA
ATOM      2  C   UNL d   1      58.098   0.210  29.307  0.00  0.00     0.302 C 
ATOM      3  O   UNL d   1      58.077   0.267  28.478  0.00  0.00    -0.264 OA
ENDROOT
BRANCH   2   4
ATOM      4  C   UNL d   1      58.624  -0.309  29.672  0.00  0.00     0.101 C 
BRANCH   4   5
ATOM      5  S   UNL d   1      58.971  -0.926  29.236  0.00  0.00    -0.041 SA
BRANCH   5   6
ATOM      6  C   UNL d   1      59.788  -1.032  29.249  0.00  0.00     0.219 A 
ATOM      7  N   UNL d   1      60.104  -1.779  29.081  0.00  0.00    -0.186 N 
ATOM      8  N   UNL d   1      60.928  -1.724  29.134  0.00  0.00    -0.038 NA
ATOM      9  N   UNL d   1      61.117  -0.951  29.332  0.00  0.00    -0.022 NA
ATOM     10  N   UNL d   1      60.413  -0.527  29.402  0.00  0.00    -0.101 NA
BRANCH   7  11
ATOM     11  C   UNL d   1      59.713  -2.475  28.892  0.00  0.00     0.087 A 
ATOM     12  C   UNL d   1      60.114  -3.195  28.949  0.00  0.00     0.019 A 
ATOM     13  C   UNL d   1      59.725  -3.896  28.760  0.00  0.00     0.002 A 
ATOM     14  C   UNL d   1      58.946  -3.891  28.516  0.00  0.00     0.000 A 
ATOM     15  C   UNL d   1      58.535  -3.166  28.456  0.00  0.00     0.002 A 
ATOM     16  C   UNL d   1      58.924  -2.455  28.646  0.00  0.00     0.019 A 
ENDBRANCH   7  11
ENDBRANCH   5   6
ENDBRANCH   4   5
ENDBRANCH   2   4
BRANCH   1  17
ATOM     17  C   UNL d   1      57.614   0.612  30.591  0.00  0.00     0.760 A 
ATOM     18  N   UNL d   1      56.982   0.477  31.089  0.00  0.00    -0.051 NA
ATOM     19  C   UNL d   1      57.266   0.465  31.855  0.00  0.00     0.147 A 
ATOM     20  S   UNL d   1      58.065   0.592  31.827  0.00  0.00     0.052 SA
ATOM     21  N   UNL d   1      58.272   0.682  31.038  0.00  0.00    -0.019 NA
BRANCH  19  22
ATOM     22  C   UNL d   1      56.786   0.342  32.520  0.00  0.00     0.026 A 
ATOM     23  C   UNL d   1      57.033   0.618  33.257  0.00  0.00     0.003 A 
ATOM     24  C   UNL d   1      56.555   0.494  33.914  0.00  0.00     0.011 A 
ATOM     25  C   UNL d   1      55.834   0.096  33.834  0.00  0.00     0.058 A 
ATOM     26  C   UNL d   1      55.595  -0.174  33.107  0.00  0.00     0.011 A 
ATOM     27 CL   UNL d   1      55.349  -0.034  34.480  0.00  0.00    -0.082 Cl
ATOM     28  C   UNL d   1      56.071  -0.053  32.443  0.00  0.00     0.003 A 
ENDBRANCH  19  22
ENDBRANCH   1  17
TORSDOF 6
ENDMDL
MODEL 2
REMARK VINA RESULT:      -4.1      1.518      2.226
REMARK  6 active torsions:
REMARK  status: ('A' for Active; 'I' for Inactive)
REMARK    1  A    between atoms: C_15  and  N_1 
REMARK    2  A    between atoms: S_12  and  C_3 
REMARK    3  A    between atoms: C_4  and  N_11 
REMARK    4  A    between atoms: C_14  and  C_8 
REMARK       I    between atoms: N_11  and  C_13 
REMARK    5  A    between atoms: C_17  and  S_12 
REMARK    6  A    between atoms: C_13  and  C_17 
ROOT
ATOM      1  N   UNL d   1      58.605   0.618  32.593  0.00  0.00    -0.018 NA
ATOM      2  C   UNL d   1      58.964   0.571  31.858  0.00  0.00     0.302 C 
ATOM      3  O   UNL d   1      59.793   0.572  31.801  0.00  0.00    -0.264 OA
ENDROOT
BRANCH   2   4
ATOM      4  C   UNL d   1      58.503   0.523  31.177  0.00  0.00     0.101 C 
BRANCH   4   5
ATOM      5  S   UNL d   1      58.787   0.117  30.508  0.00  0.00    -0.041 SA
BRANCH   5   6
ATOM      6  C   UNL d   1      58.400   0.190  29.785  0.00  0.00     0.219 A 
ATOM      7  N   UNL d   1      58.622  -0.299  29.154  0.00  0.00    -0.186 N 
ATOM      8  N   UNL d   1      58.145  -0.107  28.505  0.00  0.00    -0.038 NA
ATOM      9  N   UNL d   1      57.636   0.493  28.734  0.00  0.00    -0.022 NA
ATOM     10  N   UNL d   1      57.795   0.675  29.524  0.00  0.00    -0.101 NA
BRANCH   7  11
ATOM     11  C   UNL d   1      59.200  -0.880  29.129  0.00  0.00     0.087 A 
ATOM     12  C   UNL d   1      58.986  -1.671  29.231  0.00  0.00     0.019 A 
ATOM     13  C   UNL d   1      59.564  -2.257  29.206  0.00  0.00     0.002 A 
ATOM     14  C   UNL d   1      60.348  -2.069  29.081  0.00  0.00     0.000 A 
ATOM     15  C   UNL d   1      60.571  -1.270  28.977  0.00  0.00     0.002 A 
ATOM     16  C   UNL d   1      59.990  -0.674  29.002  0.00  0.00     0.019 A 
ENDBRANCH   7  11
ENDBRANCH   5   6
ENDBRANCH   4   5
ENDBRANCH   2   4
BRANCH   1  17
ATOM     17  C   UNL d   1      57.775   0.617  32.651  0.00  0.00     0.760 A 
ATOM     18  N   UNL d   1      57.330   0.633  33.335  0.00  0.00    -0.051 NA
ATOM     19  C   UNL d   1      56.542   0.626  33.120  0.00  0.00     0.147 A 
ATOM     20  S   UNL d   1      56.503   0.605  32.312  0.00  0.00     0.052 SA
ATOM     21  N   UNL d   1      57.274   0.599  32.029  0.00  0.00    -0.019 NA
BRANCH  19  22
ATOM     22  C   UNL d   1      55.918   0.638  33.667  0.00  0.00     0.026 A 
ATOM     23  C   UNL d   1      56.086   0.670  34.474  0.00  0.00     0.003 A 
ATOM     24  C   UNL d   1      55.465   0.682  35.014  0.00  0.00     0.011 A 
ATOM     25  C   UNL d   1      54.682   0.662  34.746  0.00  0.00     0.058 A 
ATOM     26  C   UNL d   1      54.522   0.631  33.951  0.00  0.00     0.011 A 
ATOM     27 CL   UNL d   1      54.055   0.674  35.272  0.00  0.00    -0.082 Cl
ATOM     28  C   UNL d   1      55.141   0.619  33.404  0.00  0.00     0.003 A 
ENDBRANCH  19  22
ENDBRANCH   1  17
TORSDOF 6
ENDMDL
