MODEL 1
REMARK VINA RESULT:      49.0      0.000      0.000
REMARK  4 active torsions:
REMARK  status: ('A' for Active; 'I' for Inactive)
REMARK    1  A    between atoms: C_2  and  C_1 
REMARK    2  A    between atoms: C_4  and  C_2 
REMARK    3  A    between atoms: N_6  and  C_2 
REMARK    4  A    between atoms: C_8  and  N_6 
ROOT
ATOM      1  C   UNL d   1      45.297 -15.063  44.538  0.00  0.00     0.088 C 
ENDROOT
BRANCH   1   2
ATOM      2  C   UNL d   1      45.629 -15.817  44.408  0.00  0.00     0.058 A 
ATOM      3  C   UNL d   1      45.420 -16.251  43.724  0.00  0.00     0.214 A 
ATOM      4  C   UNL d   1      45.752 -16.998  43.600  0.00  0.00     0.120 A 
ATOM      5  O   UNL d   1      44.883 -15.931  43.174  0.00  0.00    -0.285 OA
ATOM      6  N   UNL d   1      45.542 -17.416  42.927  0.00  0.00    -0.241 NA
ATOM      7  C   UNL d   1      46.284 -17.315  44.145  0.00  0.00     0.021 A 
ATOM      8  C   UNL d   1      45.874 -18.173  42.796  0.00  0.00     0.099 A 
ATOM      9  C   UNL d   1      46.407 -18.490  43.341  0.00  0.00     0.021 A 
ATOM     10  C   UNL d   1      46.614 -18.055  44.025  0.00  0.00     0.003 A 
ATOM     11  C   UNL d   1      46.493 -16.891  44.822  0.00  0.00     0.002 A 
ATOM     12  C   UNL d   1      46.161 -16.135  44.953  0.00  0.00     0.005 A 
ENDBRANCH   1   2
BRANCH   1  13
ATOM     13  C   UNL d   1      45.687 -14.382  44.248  0.00  0.00     0.045 A 
ATOM     14  C   UNL d   1      45.518 -14.115  43.486  0.00  0.00     0.141 A 
ATOM     15  F   UNL d   1      45.036 -14.346  42.880  0.00  0.00    -0.204 F 
ATOM     16  C   UNL d   1      45.903 -13.440  43.196  0.00  0.00     0.030 A 
ATOM     17  C   UNL d   1      46.449 -13.049  43.677  0.00  0.00     0.002 A 
ATOM     18  C   UNL d   1      46.617 -13.316  44.439  0.00  0.00     0.000 A 
ATOM     19  C   UNL d   1      46.227 -13.997  44.729  0.00  0.00     0.004 A 
ENDBRANCH   1  13
BRANCH   1  20
ATOM     20  N   UNL d   1      44.579 -14.988  44.953  0.00  0.00    -0.227 NA
BRANCH  20  21
ATOM     21  C   UNL d   1      43.929 -14.730  44.953  0.00  0.00     0.162 A 
ATOM     22  N   UNL d   1      43.380 -15.174  44.950  0.00  0.00    -0.225 NA
ATOM     23  C   UNL d   1      42.723 -14.917  44.949  0.00  0.00     0.101 A 
ATOM     24  C   UNL d   1      42.615 -14.228  44.951  0.00  0.00     0.021 A 
ATOM     25  C   UNL d   1      43.165 -13.788  44.954  0.00  0.00     0.005 A 
ATOM     26  C   UNL d   1      43.822 -14.045  44.955  0.00  0.00     0.039 A 
ENDBRANCH  20  21
ENDBRANCH   1  20
TORSDOF 4
ENDMDL
MODEL 2
REMARK VINA RESULT:      51.6      1.181      2.509
REMARK  4 active torsions:
REMARK  status: ('A' for Active; 'I' for Inactive)
REMARK    1  A    between atoms: C_2  and  C_1 
REMARK    2  A    between atoms: C_4  and  C_2 
REMARK    3  A    between atoms: N_6  and  C_2 
REMARK    4  A    between atoms: C_8  and  N_6 
ROOT
ATOM      1  C   UNL d   1      45.499 -15.879  43.972  0.00  0.00     0.088 C 
ENDROOT
BRANCH   1   2
ATOM      2  C   UNL d   1      45.661 -16.636  43.663  0.00  0.00     0.058 A 
ATOM      3  C   UNL d   1      45.994 -17.224  44.156  0.00  0.00     0.214 A 
ATOM      4  C   UNL d   1      46.152 -17.973  43.846  0.00  0.00     0.120 A 
ATOM      5  O   UNL d   1      46.163 -17.053  44.953  0.00  0.00    -0.285 OA
ATOM      6  N   UNL d   1      46.478 -18.542  44.337  0.00  0.00    -0.241 NA
ATOM      7  C   UNL d   1      45.984 -18.143  43.056  0.00  0.00     0.021 A 
ATOM      8  C   UNL d   1      46.641 -19.303  44.028  0.00  0.00     0.099 A 
ATOM      9  C   UNL d   1      46.473 -19.473  43.238  0.00  0.00     0.021 A 
ATOM     10  C   UNL d   1      46.140 -18.884  42.746  0.00  0.00     0.003 A 
ATOM     11  C   UNL d   1      45.655 -17.566  42.565  0.00  0.00     0.002 A 
ATOM     12  C   UNL d   1      45.492 -16.806  42.873  0.00  0.00     0.005 A 
ENDBRANCH   1   2
BRANCH   1  13
ATOM     13  C   UNL d   1      44.715 -15.672  44.176  0.00  0.00     0.045 A 
ATOM     14  C   UNL d   1      44.354 -15.035  43.794  0.00  0.00     0.141 A 
ATOM     15  F   UNL d   1      44.564 -14.502  43.224  0.00  0.00    -0.204 F 
ATOM     16  C   UNL d   1      43.577 -14.827  43.994  0.00  0.00     0.030 A 
ATOM     17  C   UNL d   1      43.178 -15.262  44.571  0.00  0.00     0.002 A 
ATOM     18  C   UNL d   1      43.538 -15.899  44.953  0.00  0.00     0.000 A 
ATOM     19  C   UNL d   1      44.323 -16.106  44.749  0.00  0.00     0.004 A 
ENDBRANCH   1  13
BRANCH   1  20
ATOM     20  N   UNL d   1      46.117 -15.330  44.078  0.00  0.00    -0.227 NA
BRANCH  20  21
ATOM     21  C   UNL d   1      46.290 -14.663  44.199  0.00  0.00     0.162 A 
ATOM     22  N   UNL d   1      46.282 -14.201  43.666  0.00  0.00    -0.225 NA
ATOM     23  C   UNL d   1      46.456 -13.528  43.784  0.00  0.00     0.101 A 
ATOM     24  C   UNL d   1      46.635 -13.319  44.424  0.00  0.00     0.021 A 
ATOM     25  C   UNL d   1      46.642 -13.782  44.954  0.00  0.00     0.005 A 
ATOM     26  C   UNL d   1      46.468 -14.456  44.836  0.00  0.00     0.039 A 
ENDBRANCH  20  21
ENDBRANCH   1  20
TORSDOF 4
ENDMDL
