MODEL 1
REMARK VINA RESULT:      -3.0      0.000      0.000
REMARK  3 active torsions:
REMARK  status: ('A' for Active; 'I' for Inactive)
REMARK    1  A    between atoms: S_7  and  C_4 
REMARK    2  A    between atoms: C_9  and  S_7 
REMARK    3  A    between atoms: C_10  and  C_9 
ROOT
ATOM      1  S   UNL d   1      32.985  19.748 -22.226  0.00  0.00    -0.046 SA
ENDROOT
BRANCH   1   2
ATOM      2  C   UNL d   1      32.870  20.537 -22.015  0.00  0.00     0.217 A 
ATOM      3  N   UNL d   1      32.383  20.728 -21.374  0.00  0.00    -0.180 NA
ATOM      4  C   UNL d   1      32.267  21.517 -21.164  0.00  0.00     0.300 A 
ATOM      5  C   UNL d   1      32.637  22.115 -21.594  0.00  0.00     0.161 A 
ATOM      6  O   UNL d   1      31.781  21.707 -20.523  0.00  0.00    -0.263 OA
ATOM      7  C   UNL d   1      32.521  22.905 -21.383  0.00  0.00     0.028 C 
ATOM      8  N   UNL d   1      33.123  21.924 -22.235  0.00  0.00    -0.141 NA
ATOM      9  N   UNL d   1      33.239  21.136 -22.446  0.00  0.00    -0.121 NA
ENDBRANCH   1   2
BRANCH   1  10
ATOM     10  C   UNL d   1      32.978  19.527 -23.023  0.00  0.00     0.038 C 
BRANCH  10  11
ATOM     11  C   UNL d   1      32.865  18.737 -23.232  0.00  0.00     0.007 A 
ATOM     12  C   UNL d   1      33.237  18.137 -22.802  0.00  0.00     0.001 A 
ATOM     13  C   UNL d   1      33.124  17.347 -23.011  0.00  0.00     0.000 A 
ATOM     14  C   UNL d   1      32.638  17.157 -23.651  0.00  0.00     0.000 A 
ATOM     15  C   UNL d   1      32.266  17.757 -24.080  0.00  0.00     0.000 A 
ATOM     16  C   UNL d   1      32.525  16.367 -23.860  0.00  0.00     0.000 C 
ATOM     17  C   UNL d   1      32.379  18.547 -23.871  0.00  0.00     0.001 A 
ENDBRANCH  10  11
ENDBRANCH   1  10
TORSDOF 3
ENDMDL
MODEL 2
REMARK VINA RESULT:      -2.9      1.747      4.367
REMARK  3 active torsions:
REMARK  status: ('A' for Active; 'I' for Inactive)
REMARK    1  A    between atoms: S_7  and  C_4 
REMARK    2  A    between atoms: C_9  and  S_7 
REMARK    3  A    between atoms: C_10  and  C_9 
ROOT
ATOM      1  S   UNL d   1      33.201  20.093 -22.107  0.00  0.00    -0.046 SA
ENDROOT
BRANCH   1   2
ATOM      2  C   UNL d   1      33.116  19.550 -22.721  0.00  0.00     0.217 A 
ATOM      3  N   UNL d   1      32.981  18.751 -22.552  0.00  0.00    -0.180 NA
ATOM      4  C   UNL d   1      32.896  18.208 -23.167  0.00  0.00     0.300 A 
ATOM      5  C   UNL d   1      32.945  18.462 -23.949  0.00  0.00     0.161 A 
ATOM      6  O   UNL d   1      32.762  17.409 -22.998  0.00  0.00    -0.263 OA
ATOM      7  C   UNL d   1      32.859  17.918 -24.565  0.00  0.00     0.028 C 
ATOM      8  N   UNL d   1      33.079  19.260 -24.118  0.00  0.00    -0.141 NA
ATOM      9  N   UNL d   1      33.164  19.803 -23.504  0.00  0.00    -0.121 NA
ENDBRANCH   1   2
BRANCH   1  10
ATOM     10  C   UNL d   1      32.532  20.402 -21.732  0.00  0.00     0.038 C 
BRANCH  10  11
ATOM     11  C   UNL d   1      32.607  21.037 -21.209  0.00  0.00     0.007 A 
ATOM     12  C   UNL d   1      32.124  21.702 -21.293  0.00  0.00     0.001 A 
ATOM     13  C   UNL d   1      32.199  22.336 -20.770  0.00  0.00     0.000 A 
ATOM     14  C   UNL d   1      32.758  22.304 -20.163  0.00  0.00     0.000 A 
ATOM     15  C   UNL d   1      33.240  21.639 -20.079  0.00  0.00     0.000 A 
ATOM     16  C   UNL d   1      32.832  22.938 -19.641  0.00  0.00     0.000 C 
ATOM     17  C   UNL d   1      33.166  21.005 -20.602  0.00  0.00     0.001 A 
ENDBRANCH  10  11
ENDBRANCH   1  10
TORSDOF 3
ENDMDL
MODEL 3
REMARK VINA RESULT:      -2.5      3.633      5.820
REMARK  3 active torsions:
REMARK  status: ('A' for Active; 'I' for Inactive)
REMARK    1  A    between atoms: S_7  and  C_4 
REMARK    2  A    between atoms: C_9  and  S_7 
REMARK    3  A    between atoms: C_10  and  C_9 
ROOT
ATOM      1  S   UNL d   1      32.965  22.709 -19.508  0.00  0.00    -0.046 SA
ENDROOT
BRANCH   1   2
ATOM      2  C   UNL d   1      32.847  22.833 -20.315  0.00  0.00     0.217 A 
ATOM      3  N   UNL d   1      32.996  22.224 -20.854  0.00  0.00    -0.180 NA
ATOM      4  C   UNL d   1      32.878  22.348 -21.661  0.00  0.00     0.300 A 
ATOM      5  C   UNL d   1      32.612  23.081 -21.929  0.00  0.00     0.161 A 
ATOM      6  O   UNL d   1      33.027  21.739 -22.200  0.00  0.00    -0.263 OA
ATOM      7  C   UNL d   1      32.494  23.206 -22.736  0.00  0.00     0.028 C 
ATOM      8  N   UNL d   1      32.463  23.690 -21.389  0.00  0.00    -0.141 NA
ATOM      9  N   UNL d   1      32.581  23.566 -20.583  0.00  0.00    -0.121 NA
ENDBRANCH   1   2
BRANCH   1  10
ATOM     10  C   UNL d   1      32.556  23.167 -18.954  0.00  0.00     0.038 C 
BRANCH  10  11
ATOM     11  C   UNL d   1      32.722  23.090 -18.150  0.00  0.00     0.007 A 
ATOM     12  C   UNL d   1      32.537  23.702 -17.628  0.00  0.00     0.001 A 
ATOM     13  C   UNL d   1      32.702  23.625 -16.823  0.00  0.00     0.000 A 
ATOM     14  C   UNL d   1      33.054  22.933 -16.541  0.00  0.00     0.000 A 
ATOM     15  C   UNL d   1      33.239  22.320 -17.063  0.00  0.00     0.000 A 
ATOM     16  C   UNL d   1      33.219  22.856 -15.736  0.00  0.00     0.000 C 
ATOM     17  C   UNL d   1      33.073  22.398 -17.868  0.00  0.00     0.001 A 
ENDBRANCH  10  11
ENDBRANCH   1  10
TORSDOF 3
ENDMDL
MODEL 4
REMARK VINA RESULT:      -0.3      1.846      2.011
REMARK  3 active torsions:
REMARK  status: ('A' for Active; 'I' for Inactive)
REMARK    1  A    between atoms: S_7  and  C_4 
REMARK    2  A    between atoms: C_9  and  S_7 
REMARK    3  A    between atoms: C_10  and  C_9 
ROOT
ATOM      1  S   UNL d   1      33.077  20.114 -24.512  0.00  0.00    -0.046 SA
ENDROOT
BRANCH   1   2
ATOM      2  C   UNL d   1      33.118  20.934 -24.427  0.00  0.00     0.217 A 
ATOM      3  N   UNL d   1      33.159  21.271 -23.673  0.00  0.00    -0.180 NA
ATOM      4  C   UNL d   1      33.200  22.090 -23.589  0.00  0.00     0.300 A 
ATOM      5  C   UNL d   1      33.200  22.572 -24.257  0.00  0.00     0.161 A 
ATOM      6  O   UNL d   1      33.241  22.427 -22.835  0.00  0.00    -0.263 OA
ATOM      7  C   UNL d   1      33.241  23.392 -24.174  0.00  0.00     0.028 C 
ATOM      8  N   UNL d   1      33.159  22.235 -25.011  0.00  0.00    -0.141 NA
ATOM      9  N   UNL d   1      33.118  21.416 -25.096  0.00  0.00    -0.121 NA
ENDBRANCH   1   2
BRANCH   1  10
ATOM     10  C   UNL d   1      32.594  19.670 -24.008  0.00  0.00     0.038 C 
BRANCH  10  11
ATOM     11  C   UNL d   1      32.559  18.849 -24.087  0.00  0.00     0.007 A 
ATOM     12  C   UNL d   1      32.933  18.363 -23.533  0.00  0.00     0.001 A 
ATOM     13  C   UNL d   1      32.897  17.542 -23.612  0.00  0.00     0.000 A 
ATOM     14  C   UNL d   1      32.486  17.208 -24.245  0.00  0.00     0.000 A 
ATOM     15  C   UNL d   1      32.112  17.694 -24.799  0.00  0.00     0.000 A 
ATOM     16  C   UNL d   1      32.451  16.388 -24.324  0.00  0.00     0.000 C 
ATOM     17  C   UNL d   1      32.148  18.515 -24.720  0.00  0.00     0.001 A 
ENDBRANCH  10  11
ENDBRANCH   1  10
TORSDOF 3
ENDMDL
