MODEL 1
REMARK VINA RESULT:       4.5      0.000      0.000
REMARK  5 active torsions:
REMARK  status: ('A' for Active; 'I' for Inactive)
REMARK    1  A    between atoms: C_4  and  N_1 
REMARK    2  A    between atoms: C_9  and  C_2 
REMARK    3  A    between atoms: C_14  and  C_6 
REMARK    4  A    between atoms: C_7  and  C_9 
REMARK    5  A    between atoms: O_26  and  C_22 
ROOT
ATOM      1  N   UNL d   1     -41.820-122.207 -52.568  0.00  0.00    -0.254 N 
ATOM      2  C   UNL d   1     -41.707-122.234 -51.235  0.00  0.00     0.101 A 
ATOM      3  C   UNL d   1     -41.909-122.990 -52.322  0.00  0.00     0.305 A 
ATOM      4  C   UNL d   1     -41.840-123.011 -51.497  0.00  0.00     0.256 A 
ATOM      5  C   UNL d   1     -41.694-121.739 -51.896  0.00  0.00     0.081 A 
ATOM      6  O   UNL d   1     -42.044-123.645 -52.807  0.00  0.00    -0.263 OA
ATOM      7  O   UNL d   1     -41.895-123.689 -51.020  0.00  0.00    -0.281 OA
ENDROOT
BRANCH   2   8
ATOM      8  C   UNL d   1     -41.605-122.002 -50.447  0.00  0.00     0.223 C 
ATOM      9  O   UNL d   1     -41.123-121.363 -50.266  0.00  0.00    -0.284 OA
BRANCH   8  10
ATOM     10  C   UNL d   1     -41.990-122.412 -49.841  0.00  0.00     0.139 A 
ATOM     11  O   UNL d   1     -41.625-122.763 -49.190  0.00  0.00    -0.302 OA
ATOM     12  C   UNL d   1     -42.217-123.111 -48.726  0.00  0.00     0.122 A 
ATOM     13  C   UNL d   1     -42.185-123.533 -48.021  0.00  0.00     0.117 A 
ATOM     14  C   UNL d   1     -42.941-122.973 -49.092  0.00  0.00     0.027 A 
ATOM     15  C   UNL d   1     -42.878-123.817 -47.682  0.00  0.00     0.026 A 
ATOM     16  C   UNL d   1     -43.610-123.678 -48.051  0.00  0.00     0.002 A 
ATOM     17  C   UNL d   1     -43.637-123.257 -48.754  0.00  0.00     0.002 A 
ATOM     18  C   UNL d   1     -42.802-122.542 -49.780  0.00  0.00     0.030 A 
BRANCH  13  19
ATOM     19  O   UNL d   1     -41.461-123.671 -47.655  0.00  0.00    -0.326 OA
ATOM     20  C   UNL d   1     -41.334-123.420 -46.873  0.00  0.00     0.181 C 
ENDBRANCH  13  19
ENDBRANCH   8  10
ENDBRANCH   2   8
BRANCH   5  21
ATOM     21  C   UNL d   1     -41.578-120.924 -51.883  0.00  0.00     0.046 A 
ATOM     22  S   UNL d   1     -41.897-120.383 -52.420  0.00  0.00    -0.085 SA
ATOM     23  C   UNL d   1     -41.642-119.626 -52.207  0.00  0.00     0.035 A 
ATOM     24  C   UNL d   1     -41.163-119.701 -51.533  0.00  0.00     0.007 A 
ATOM     25  C   UNL d   1     -41.128-120.502 -51.339  0.00  0.00     0.009 A 
ENDBRANCH   5  21
BRANCH   1  26
ATOM     26  C   UNL d   1     -41.907-122.320 -53.385  0.00  0.00     0.179 A 
ATOM     27  N   UNL d   1     -42.613-122.291 -53.815  0.00  0.00    -0.108 NA
ATOM     28  O   UNL d   1     -42.440-122.436 -54.614  0.00  0.00    -0.210 OA
ATOM     29  C   UNL d   1     -41.616-122.558 -54.680  0.00  0.00     0.128 A 
ATOM     30  C   UNL d   1     -41.289-122.487 -53.927  0.00  0.00     0.067 A 
ATOM     31  C   UNL d   1     -41.209-122.720 -55.378  0.00  0.00     0.029 C 
ENDBRANCH   1  26
TORSDOF 5
ENDMDL
