MODEL 1
REMARK VINA RESULT:      63.3      0.000      0.000
REMARK  4 active torsions:
REMARK  status: ('A' for Active; 'I' for Inactive)
REMARK    1  A    between atoms: C_10  and  C_3 
REMARK    2  A    between atoms: C_12  and  C_6 
REMARK    3  A    between atoms: O_15  and  C_10 
REMARK    4  A    between atoms: C_22  and  O_15 
ROOT
ATOM      1  C   UNL d   1      58.992  49.576  51.164  0.00  0.00     0.057 A 
ATOM      2  C   UNL d   1      58.491  49.642  51.816  0.00  0.00     0.085 A 
ATOM      3  C   UNL d   1      60.124  49.598  52.029  0.00  0.00     0.081 A 
ATOM      4  N   UNL d   1      58.798  49.686  52.574  0.00  0.00    -0.245 NA
ATOM      5  C   UNL d   1      58.526  49.544  50.484  0.00  0.00     0.197 A 
ATOM      6  C   UNL d   1      59.806  49.555  51.274  0.00  0.00     0.013 A 
ATOM      7  C   UNL d   1      59.621  49.664  52.685  0.00  0.00     0.086 A 
ATOM      8  C   UNL d   1      57.711  49.650  51.539  0.00  0.00     0.021 A 
ATOM      9  C   UNL d   1      57.732  49.590  50.718  0.00  0.00     0.041 A 
ATOM     10  O   UNL d   1      58.801  49.478  49.707  0.00  0.00    -0.286 OA
ATOM     11  C   UNL d   1      59.936  49.707  53.445  0.00  0.00     0.021 C 
ATOM     12  C   UNL d   1      56.977  49.705  51.929  0.00  0.00     0.002 A 
ATOM     13  C   UNL d   1      57.029  49.584  50.280  0.00  0.00     0.003 A 
ATOM     14  C   UNL d   1      56.301  49.639  50.675  0.00  0.00     0.000 A 
ATOM     15  C   UNL d   1      56.283  49.699  51.492  0.00  0.00     0.000 A 
ENDROOT
BRANCH   6  16
ATOM     16  C   UNL d   1      60.306  49.489  50.622  0.00  0.00     0.020 A 
ATOM     17  C   UNL d   1      60.033  49.704  49.880  0.00  0.00     0.099 A 
ATOM     18  N   UNL d   1      60.531  49.640  49.225  0.00  0.00    -0.242 NA
ATOM     19  C   UNL d   1      61.307  49.359  49.316  0.00  0.00     0.099 A 
ATOM     20  C   UNL d   1      61.581  49.142  50.069  0.00  0.00     0.021 A 
ATOM     21  C   UNL d   1      61.081  49.207  50.722  0.00  0.00     0.003 A 
ENDBRANCH   6  16
BRANCH   3  22
ATOM     22  C   UNL d   1      60.940  49.577  52.142  0.00  0.00     0.302 C 
ATOM     23  O   UNL d   1      61.443  49.568  51.488  0.00  0.00    -0.259 OA
BRANCH  22  24
ATOM     24  O   UNL d   1      61.254  49.564  52.903  0.00  0.00    -0.271 OA
BRANCH  24  25
ATOM     25  C   UNL d   1      62.035  49.332  53.021  0.00  0.00     0.126 C 
ATOM     26  C   UNL d   1      62.363  49.365  53.775  0.00  0.00     0.029 C 
ENDBRANCH  24  25
ENDBRANCH  22  24
ENDBRANCH   3  22
TORSDOF 4
ENDMDL
MODEL 2
REMARK VINA RESULT:      63.6      0.949      2.480
REMARK  4 active torsions:
REMARK  status: ('A' for Active; 'I' for Inactive)
REMARK    1  A    between atoms: C_10  and  C_3 
REMARK    2  A    between atoms: C_12  and  C_6 
REMARK    3  A    between atoms: O_15  and  C_10 
REMARK    4  A    between atoms: C_22  and  O_15 
ROOT
ATOM      1  C   UNL d   1      58.849  49.559  50.582  0.00  0.00     0.057 A 
ATOM      2  C   UNL d   1      58.680  49.513  49.776  0.00  0.00     0.085 A 
ATOM      3  C   UNL d   1      60.241  49.442  50.297  0.00  0.00     0.081 A 
ATOM      4  N   UNL d   1      59.282  49.432  49.227  0.00  0.00    -0.245 NA
ATOM      5  C   UNL d   1      58.138  49.638  50.990  0.00  0.00     0.197 A 
ATOM      6  C   UNL d   1      59.629  49.523  50.838  0.00  0.00     0.013 A 
ATOM      7  C   UNL d   1      60.071  49.395  49.487  0.00  0.00     0.086 A 
ATOM      8  C   UNL d   1      57.859  49.563  49.685  0.00  0.00     0.021 A 
ATOM      9  C   UNL d   1      57.524  49.640  50.432  0.00  0.00     0.041 A 
ATOM     10  O   UNL d   1      58.050  49.703  51.810  0.00  0.00    -0.286 OA
ATOM     11  C   UNL d   1      60.682  49.314  48.941  0.00  0.00     0.021 C 
ATOM     12  C   UNL d   1      57.367  49.549  49.012  0.00  0.00     0.002 A 
ATOM     13  C   UNL d   1      56.702  49.704  50.520  0.00  0.00     0.003 A 
ATOM     14  C   UNL d   1      56.218  49.689  49.847  0.00  0.00     0.000 A 
ATOM     15  C   UNL d   1      56.554  49.612  49.102  0.00  0.00     0.000 A 
ENDROOT
BRANCH   6  16
ATOM     16  C   UNL d   1      59.798  49.569  51.644  0.00  0.00     0.020 A 
ATOM     17  C   UNL d   1      59.185  49.562  52.186  0.00  0.00     0.099 A 
ATOM     18  N   UNL d   1      59.350  49.608  52.993  0.00  0.00    -0.242 NA
ATOM     19  C   UNL d   1      60.136  49.661  53.256  0.00  0.00     0.099 A 
ATOM     20  C   UNL d   1      60.756  49.669  52.704  0.00  0.00     0.021 A 
ATOM     21  C   UNL d   1      60.587  49.623  51.898  0.00  0.00     0.003 A 
ENDBRANCH   6  16
BRANCH   3  22
ATOM     22  C   UNL d   1      61.024  49.406  50.552  0.00  0.00     0.302 C 
ATOM     23  O   UNL d   1      61.225  49.702  51.295  0.00  0.00    -0.259 OA
BRANCH  22  24
ATOM     24  O   UNL d   1      61.603  49.075  50.069  0.00  0.00    -0.271 OA
BRANCH  24  25
ATOM     25  C   UNL d   1      61.924  48.340  50.258  0.00  0.00     0.126 C 
ATOM     26  C   UNL d   1      61.428  47.692  50.364  0.00  0.00     0.029 C 
ENDBRANCH  24  25
ENDBRANCH  22  24
ENDBRANCH   3  22
TORSDOF 4
ENDMDL
