MODEL 1
REMARK VINA RESULT:     -10.5      0.000      0.000
REMARK  3 active torsions:
REMARK  status: ('A' for Active; 'I' for Inactive)
REMARK    1  A    between atoms: C_7  and  C_1 
REMARK    2  A    between atoms: O_14  and  C_7 
REMARK    3  A    between atoms: C_17  and  O_14 
ROOT
ATOM      1  C   UNL d   1      53.338  31.047  53.434  0.00  0.00     0.127 A 
ATOM      2  C   UNL d   1      52.810  31.245  52.839  0.00  0.00     0.305 A 
ATOM      3  C   UNL d   1      53.655  31.640  53.912  0.00  0.00     0.013 A 
ATOM      4  C   UNL d   1      53.446  32.429  53.796  0.00  0.00     0.023 A 
ATOM      5  O   UNL d   1      52.600  32.034  52.723  0.00  0.00    -0.273 OA
ATOM      6  C   UNL d   1      52.918  32.626  53.201  0.00  0.00     0.103 A 
ATOM      7  C   UNL d   1      53.762  33.005  54.270  0.00  0.00     0.002 A 
ATOM      8  O   UNL d   1      52.491  30.635  52.357  0.00  0.00    -0.259 OA
ATOM      9  C   UNL d   1      52.707  33.399  53.082  0.00  0.00     0.025 A 
ATOM     10  C   UNL d   1      53.552  33.794  54.154  0.00  0.00     0.000 A 
ATOM     11  C   UNL d   1      53.025  33.992  53.560  0.00  0.00     0.002 A 
ATOM     12  C   UNL d   1      54.295  32.806  54.871  0.00  0.00     0.000 A 
ATOM     13  C   UNL d   1      53.870  34.387  54.632  0.00  0.00     0.000 A 
ATOM     14  C   UNL d   1      54.620  33.382  55.355  0.00  0.00     0.000 A 
ATOM     15  C   UNL d   1      54.406  34.186  55.236  0.00  0.00     0.000 A 
ENDROOT
BRANCH   1  16
ATOM     16  C   UNL d   1      53.560  30.236  53.561  0.00  0.00     0.305 C 
ATOM     17  O   UNL d   1      54.119  29.879  53.082  0.00  0.00    -0.259 OA
BRANCH  16  18
ATOM     18  O   UNL d   1      53.211  29.820  54.163  0.00  0.00    -0.271 OA
BRANCH  18  19
ATOM     19  C   UNL d   1      53.508  29.081  54.376  0.00  0.00     0.126 C 
ATOM     20  C   UNL d   1      53.277  28.676  55.125  0.00  0.00     0.029 C 
ENDBRANCH  18  19
ENDBRANCH  16  18
ENDBRANCH   1  16
TORSDOF 3
ENDMDL
MODEL 2
REMARK VINA RESULT:     -10.2      1.916      3.920
REMARK  3 active torsions:
REMARK  status: ('A' for Active; 'I' for Inactive)
REMARK    1  A    between atoms: C_7  and  C_1 
REMARK    2  A    between atoms: O_14  and  C_7 
REMARK    3  A    between atoms: C_17  and  O_14 
ROOT
ATOM      1  C   UNL d   1      52.200  33.825  52.930  0.00  0.00     0.127 A 
ATOM      2  C   UNL d   1      52.737  34.304  53.321  0.00  0.00     0.305 A 
ATOM      3  C   UNL d   1      52.305  33.008  52.931  0.00  0.00     0.013 A 
ATOM      4  C   UNL d   1      52.946  32.668  53.322  0.00  0.00     0.023 A 
ATOM      5  O   UNL d   1      53.379  33.964  53.712  0.00  0.00    -0.273 OA
ATOM      6  C   UNL d   1      53.483  33.146  53.713  0.00  0.00     0.103 A 
ATOM      7  C   UNL d   1      53.042  31.863  53.319  0.00  0.00     0.002 A 
ATOM      8  O   UNL d   1      52.623  35.137  53.315  0.00  0.00    -0.259 OA
ATOM      9  C   UNL d   1      54.116  32.819  54.100  0.00  0.00     0.025 A 
ATOM     10  C   UNL d   1      53.684  31.523  53.710  0.00  0.00     0.000 A 
ATOM     11  C   UNL d   1      54.221  32.002  54.101  0.00  0.00     0.002 A 
ATOM     12  C   UNL d   1      52.499  31.379  52.924  0.00  0.00     0.000 A 
ATOM     13  C   UNL d   1      53.788  30.705  53.711  0.00  0.00     0.000 A 
ATOM     14  C   UNL d   1      52.588  30.564  52.915  0.00  0.00     0.000 A 
ATOM     15  C   UNL d   1      53.242  30.219  53.314  0.00  0.00     0.000 A 
ENDROOT
BRANCH   1  16
ATOM     16  C   UNL d   1      51.535  34.167  52.524  0.00  0.00     0.305 C 
ATOM     17  O   UNL d   1      51.596  34.381  51.736  0.00  0.00    -0.259 OA
BRANCH  16  18
ATOM     18  O   UNL d   1      50.840  34.278  52.926  0.00  0.00    -0.271 OA
BRANCH  18  19
ATOM     19  C   UNL d   1      50.142  34.415  52.508  0.00  0.00     0.126 C 
ATOM     20  C   UNL d   1      49.433  34.787  52.879  0.00  0.00     0.029 C 
ENDBRANCH  18  19
ENDBRANCH  16  18
ENDBRANCH   1  16
TORSDOF 3
ENDMDL
MODEL 3
REMARK VINA RESULT:      -9.3      1.308      2.306
REMARK  3 active torsions:
REMARK  status: ('A' for Active; 'I' for Inactive)
REMARK    1  A    between atoms: C_7  and  C_1 
REMARK    2  A    between atoms: O_14  and  C_7 
REMARK    3  A    between atoms: C_17  and  O_14 
ROOT
ATOM      1  C   UNL d   1      53.235  31.929  53.223  0.00  0.00     0.127 A 
ATOM      2  C   UNL d   1      53.928  32.332  53.389  0.00  0.00     0.305 A 
ATOM      3  C   UNL d   1      52.528  32.346  53.143  0.00  0.00     0.013 A 
ATOM      4  C   UNL d   1      52.514  33.166  53.229  0.00  0.00     0.023 A 
ATOM      5  O   UNL d   1      53.914  33.152  53.475  0.00  0.00    -0.273 OA
ATOM      6  C   UNL d   1      53.207  33.569  53.395  0.00  0.00     0.103 A 
ATOM      7  C   UNL d   1      51.815  33.569  53.149  0.00  0.00     0.002 A 
ATOM      8  O   UNL d   1      54.644  31.900  53.470  0.00  0.00    -0.259 OA
ATOM      9  C   UNL d   1      53.200  34.375  53.480  0.00  0.00     0.025 A 
ATOM     10  C   UNL d   1      51.800  34.389  53.234  0.00  0.00     0.000 A 
ATOM     11  C   UNL d   1      52.493  34.792  53.400  0.00  0.00     0.002 A 
ATOM     12  C   UNL d   1      51.114  33.160  52.981  0.00  0.00     0.000 A 
ATOM     13  C   UNL d   1      51.093  34.805  53.154  0.00  0.00     0.000 A 
ATOM     14  C   UNL d   1      50.403  33.560  52.898  0.00  0.00     0.000 A 
ATOM     15  C   UNL d   1      50.389  34.395  52.985  0.00  0.00     0.000 A 
ENDROOT
BRANCH   1  16
ATOM     16  C   UNL d   1      53.240  31.082  53.133  0.00  0.00     0.305 C 
ATOM     17  O   UNL d   1      53.236  30.745  52.388  0.00  0.00    -0.259 OA
BRANCH  16  18
ATOM     18  O   UNL d   1      53.250  30.614  53.795  0.00  0.00    -0.271 OA
BRANCH  18  19
ATOM     19  C   UNL d   1      53.110  29.804  53.726  0.00  0.00     0.126 C 
ATOM     20  C   UNL d   1      53.209  29.247  54.403  0.00  0.00     0.029 C 
ENDBRANCH  18  19
ENDBRANCH  16  18
ENDBRANCH   1  16
TORSDOF 3
ENDMDL
MODEL 4
REMARK VINA RESULT:      -8.7      1.515      3.250
REMARK  3 active torsions:
REMARK  status: ('A' for Active; 'I' for Inactive)
REMARK    1  A    between atoms: C_7  and  C_1 
REMARK    2  A    between atoms: O_14  and  C_7 
REMARK    3  A    between atoms: C_17  and  O_14 
ROOT
ATOM      1  C   UNL d   1      52.050  33.420  52.938  0.00  0.00     0.127 A 
ATOM      2  C   UNL d   1      52.080  32.632  52.715  0.00  0.00     0.305 A 
ATOM      3  C   UNL d   1      52.590  33.711  53.489  0.00  0.00     0.013 A 
ATOM      4  C   UNL d   1      53.161  33.215  53.817  0.00  0.00     0.023 A 
ATOM      5  O   UNL d   1      52.651  32.136  53.044  0.00  0.00    -0.273 OA
ATOM      6  C   UNL d   1      53.192  32.427  53.594  0.00  0.00     0.103 A 
ATOM      7  C   UNL d   1      53.689  33.508  54.358  0.00  0.00     0.002 A 
ATOM      8  O   UNL d   1      51.526  32.344  52.153  0.00  0.00    -0.259 OA
ATOM      9  C   UNL d   1      53.751  31.934  53.913  0.00  0.00     0.025 A 
ATOM     10  C   UNL d   1      54.260  33.012  54.686  0.00  0.00     0.000 A 
ATOM     11  C   UNL d   1      54.291  32.224  54.464  0.00  0.00     0.002 A 
ATOM     12  C   UNL d   1      53.658  34.304  54.583  0.00  0.00     0.000 A 
ATOM     13  C   UNL d   1      54.801  33.303  55.237  0.00  0.00     0.000 A 
ATOM     14  C   UNL d   1      54.188  34.609  55.129  0.00  0.00     0.000 A 
ATOM     15  C   UNL d   1      54.769  34.103  55.463  0.00  0.00     0.000 A 
ENDROOT
BRANCH   1  16
ATOM     16  C   UNL d   1      51.464  33.940  52.604  0.00  0.00     0.305 C 
ATOM     17  O   UNL d   1      51.578  34.274  51.866  0.00  0.00    -0.259 OA
BRANCH  16  18
ATOM     18  O   UNL d   1      50.791  34.099  53.027  0.00  0.00    -0.271 OA
BRANCH  18  19
ATOM     19  C   UNL d   1      50.220  34.605  52.712  0.00  0.00     0.126 C 
ATOM     20  C   UNL d   1      49.557  34.929  53.195  0.00  0.00     0.029 C 
ENDBRANCH  18  19
ENDBRANCH  16  18
ENDBRANCH   1  16
TORSDOF 3
ENDMDL
MODEL 5
REMARK VINA RESULT:      -8.4      1.083      3.555
REMARK  3 active torsions:
REMARK  status: ('A' for Active; 'I' for Inactive)
REMARK    1  A    between atoms: C_7  and  C_1 
REMARK    2  A    between atoms: O_14  and  C_7 
REMARK    3  A    between atoms: C_17  and  O_14 
ROOT
ATOM      1  C   UNL d   1      53.393  32.426  53.845  0.00  0.00     0.127 A 
ATOM      2  C   UNL d   1      53.149  32.534  53.071  0.00  0.00     0.305 A 
ATOM      3  C   UNL d   1      53.423  31.665  54.162  0.00  0.00     0.013 A 
ATOM      4  C   UNL d   1      53.207  31.013  53.706  0.00  0.00     0.023 A 
ATOM      5  O   UNL d   1      52.934  31.882  52.615  0.00  0.00    -0.273 OA
ATOM      6  C   UNL d   1      52.963  31.121  52.932  0.00  0.00     0.103 A 
ATOM      7  C   UNL d   1      53.239  30.268  54.025  0.00  0.00     0.002 A 
ATOM      8  O   UNL d   1      53.122  33.312  52.755  0.00  0.00    -0.259 OA
ATOM      9  C   UNL d   1      52.750  30.484  52.477  0.00  0.00     0.025 A 
ATOM     10  C   UNL d   1      53.023  29.616  53.569  0.00  0.00     0.000 A 
ATOM     11  C   UNL d   1      52.779  29.724  52.795  0.00  0.00     0.002 A 
ATOM     12  C   UNL d   1      53.486  30.159  54.807  0.00  0.00     0.000 A 
ATOM     13  C   UNL d   1      53.053  28.855  53.886  0.00  0.00     0.000 A 
ATOM     14  C   UNL d   1      53.521  29.409  55.138  0.00  0.00     0.000 A 
ATOM     15  C   UNL d   1      53.301  28.745  54.672  0.00  0.00     0.000 A 
ENDROOT
BRANCH   1  16
ATOM     16  C   UNL d   1      53.617  33.093  54.323  0.00  0.00     0.305 C 
ATOM     17  O   UNL d   1      53.047  33.586  54.639  0.00  0.00    -0.259 OA
BRANCH  16  18
ATOM     18  O   UNL d   1      54.403  33.234  54.462  0.00  0.00    -0.271 OA
BRANCH  18  19
ATOM     19  C   UNL d   1      54.629  33.720  55.089  0.00  0.00     0.126 C 
ATOM     20  C   UNL d   1      55.468  33.947  55.235  0.00  0.00     0.029 C 
ENDBRANCH  18  19
ENDBRANCH  16  18
ENDBRANCH   1  16
TORSDOF 3
ENDMDL
MODEL 6
REMARK VINA RESULT:      -8.0      1.565      3.051
REMARK  3 active torsions:
REMARK  status: ('A' for Active; 'I' for Inactive)
REMARK    1  A    between atoms: C_7  and  C_1 
REMARK    2  A    between atoms: O_14  and  C_7 
REMARK    3  A    between atoms: C_17  and  O_14 
ROOT
ATOM      1  C   UNL d   1      53.769  32.592  53.635  0.00  0.00     0.127 A 
ATOM      2  C   UNL d   1      53.585  31.799  53.547  0.00  0.00     0.305 A 
ATOM      3  C   UNL d   1      53.186  33.163  53.518  0.00  0.00     0.013 A 
ATOM      4  C   UNL d   1      52.419  32.942  53.313  0.00  0.00     0.023 A 
ATOM      5  O   UNL d   1      52.817  31.578  53.341  0.00  0.00    -0.273 OA
ATOM      6  C   UNL d   1      52.234  32.149  53.224  0.00  0.00     0.103 A 
ATOM      7  C   UNL d   1      51.851  33.509  53.199  0.00  0.00     0.002 A 
ATOM      8  O   UNL d   1      54.185  31.223  53.668  0.00  0.00    -0.259 OA
ATOM      9  C   UNL d   1      51.482  31.924  53.022  0.00  0.00     0.025 A 
ATOM     10  C   UNL d   1      51.083  33.288  52.994  0.00  0.00     0.000 A 
ATOM     11  C   UNL d   1      50.899  32.495  52.905  0.00  0.00     0.002 A 
ATOM     12  C   UNL d   1      52.037  34.311  53.289  0.00  0.00     0.000 A 
ATOM     13  C   UNL d   1      50.500  33.859  52.877  0.00  0.00     0.000 A 
ATOM     14  C   UNL d   1      51.469  34.891  53.177  0.00  0.00     0.000 A 
ATOM     15  C   UNL d   1      50.687  34.665  52.967  0.00  0.00     0.000 A 
ENDROOT
BRANCH   1  16
ATOM     16  C   UNL d   1      54.558  32.829  53.847  0.00  0.00     0.305 C 
ATOM     17  O   UNL d   1      55.153  32.838  53.286  0.00  0.00    -0.259 OA
BRANCH  16  18
ATOM     18  O   UNL d   1      54.714  33.047  54.612  0.00  0.00    -0.271 OA
BRANCH  18  19
ATOM     19  C   UNL d   1      55.305  33.601  54.769  0.00  0.00     0.126 C 
ATOM     20  C   UNL d   1      55.393  33.989  55.556  0.00  0.00     0.029 C 
ENDBRANCH  18  19
ENDBRANCH  16  18
ENDBRANCH   1  16
TORSDOF 3
ENDMDL
MODEL 7
REMARK VINA RESULT:      -7.5      1.781      3.570
REMARK  3 active torsions:
REMARK  status: ('A' for Active; 'I' for Inactive)
REMARK    1  A    between atoms: C_7  and  C_1 
REMARK    2  A    between atoms: O_14  and  C_7 
REMARK    3  A    between atoms: C_17  and  O_14 
ROOT
ATOM      1  C   UNL d   1      53.263  33.791  54.274  0.00  0.00     0.127 A 
ATOM      2  C   UNL d   1      52.676  34.182  53.858  0.00  0.00     0.305 A 
ATOM      3  C   UNL d   1      53.379  32.983  54.156  0.00  0.00     0.013 A 
ATOM      4  C   UNL d   1      52.909  32.566  53.622  0.00  0.00     0.023 A 
ATOM      5  O   UNL d   1      52.205  33.765  53.324  0.00  0.00    -0.273 OA
ATOM      6  C   UNL d   1      52.322  32.957  53.206  0.00  0.00     0.103 A 
ATOM      7  C   UNL d   1      53.029  31.772  53.511  0.00  0.00     0.002 A 
ATOM      8  O   UNL d   1      52.564  35.005  53.984  0.00  0.00    -0.259 OA
ATOM      9  C   UNL d   1      51.855  32.553  52.680  0.00  0.00     0.025 A 
ATOM     10  C   UNL d   1      52.559  31.355  52.977  0.00  0.00     0.000 A 
ATOM     11  C   UNL d   1      51.972  31.746  52.561  0.00  0.00     0.002 A 
ATOM     12  C   UNL d   1      53.622  31.376  53.932  0.00  0.00     0.000 A 
ATOM     13  C   UNL d   1      52.675  30.547  52.859  0.00  0.00     0.000 A 
ATOM     14  C   UNL d   1      53.751  30.573  53.826  0.00  0.00     0.000 A 
ATOM     15  C   UNL d   1      53.271  30.149  53.282  0.00  0.00     0.000 A 
ENDROOT
BRANCH   1  16
ATOM     16  C   UNL d   1      53.753  34.213  54.827  0.00  0.00     0.305 C 
ATOM     17  O   UNL d   1      53.425  34.557  55.493  0.00  0.00    -0.259 OA
BRANCH  16  18
ATOM     18  O   UNL d   1      54.549  34.270  54.686  0.00  0.00    -0.271 OA
BRANCH  18  19
ATOM     19  C   UNL d   1      55.079  34.271  55.319  0.00  0.00     0.126 C 
ATOM     20  C   UNL d   1      55.936  34.085  55.220  0.00  0.00     0.029 C 
ENDBRANCH  18  19
ENDBRANCH  16  18
ENDBRANCH   1  16
TORSDOF 3
ENDMDL
