MODEL 1
REMARK VINA RESULT:      30.8      0.000      0.000
REMARK  3 active torsions:
REMARK  status: ('A' for Active; 'I' for Inactive)
REMARK    1  A    between atoms: N_9  and  C_5 
REMARK    2  A    between atoms: C_12  and  N_9 
REMARK    3  A    between atoms: C_13  and  C_12 
ROOT
ATOM      1  C   UNL d   1     -57.326 -98.772 -44.260  0.00  0.00     0.153 A 
ATOM      2  O   UNL d   1     -57.424 -98.767 -43.443  0.00  0.00    -0.302 OA
ATOM      3  C   UNL d   1     -58.074 -98.777 -44.608  0.00  0.00     0.111 A 
ATOM      4  C   UNL d   1     -58.635 -98.774 -43.998  0.00  0.00     0.043 A 
ATOM      5  C   UNL d   1     -56.646 -98.774 -44.735  0.00  0.00     0.189 A 
ATOM      6  C   UNL d   1     -58.234 -98.768 -43.285  0.00  0.00     0.102 A 
ATOM      7  N   UNL d   1     -56.719 -98.780 -45.557  0.00  0.00    -0.203 NA
ATOM      8  N   UNL d   1     -58.137 -98.783 -45.429  0.00  0.00    -0.222 NA
ATOM      9  C   UNL d   1     -57.468 -98.784 -45.905  0.00  0.00     0.201 A 
ATOM     10  C   UNL d   1     -59.454 -98.776 -44.020  0.00  0.00     0.004 A 
ATOM     11  C   UNL d   1     -58.659 -98.764 -42.579  0.00  0.00     0.025 A 
ATOM     12  C   UNL d   1     -59.879 -98.772 -43.314  0.00  0.00     0.000 A 
ATOM     13  C   UNL d   1     -59.482 -98.766 -42.593  0.00  0.00     0.002 A 
ENDROOT
BRANCH   5  14
ATOM     14  N   UNL d   1     -55.894 -98.770 -44.384  0.00  0.00    -0.222 NA
BRANCH  14  15
ATOM     15  C   UNL d   1     -55.687 -99.373 -43.861  0.00  0.00     0.120 C 
BRANCH  15  16
ATOM     16  C   UNL d   1     -55.363-100.071 -44.157  0.00  0.00     0.101 A 
ATOM     17  N   UNL d   1     -55.207-100.145 -44.964  0.00  0.00    -0.242 NA
ATOM     18  C   UNL d   1     -54.881-100.843 -45.270  0.00  0.00     0.099 A 
ATOM     19  C   UNL d   1     -54.712-101.473 -44.757  0.00  0.00     0.021 A 
ATOM     20  C   UNL d   1     -54.868-101.399 -43.950  0.00  0.00     0.003 A 
ATOM     21  C   UNL d   1     -55.194-100.697 -43.651  0.00  0.00     0.021 A 
ENDBRANCH  15  16
ENDBRANCH  14  15
ENDBRANCH   5  14
TORSDOF 3
ENDMDL
