MODEL 1
REMARK VINA RESULT:      -4.9      0.000      0.000
REMARK  6 active torsions:
REMARK  status: ('A' for Active; 'I' for Inactive)
REMARK    1  A    between atoms: C_4  and  C_1 
REMARK    2  A    between atoms: C_3  and  N_8 
REMARK       I    between atoms: N_8  and  C_4 
REMARK    3  A    between atoms: C_14  and  C_6 
REMARK    4  A    between atoms: C_15  and  C_10 
REMARK    5  A    between atoms: C_12  and  C_16 
REMARK    6  A    between atoms: C_19  and  C_15 
ROOT
ATOM      1  C   UNL d   1      58.322  -0.539  29.682  0.00  0.00     0.083 A 
ATOM      2  C   UNL d   1      58.614  -1.306  29.733  0.00  0.00     0.032 A 
ATOM      3  C   UNL d   1      58.979  -1.489  29.016  0.00  0.00     0.100 A 
ATOM      4  C   UNL d   1      58.506  -0.245  28.932  0.00  0.00     0.105 A 
ATOM      5  O   UNL d   1      58.912  -0.832  28.520  0.00  0.00    -0.307 OA
ATOM      6  C   UNL d   1      58.318   0.503  28.643  0.00  0.00     0.027 C 
ENDROOT
BRANCH   1   7
ATOM      7  C   UNL d   1      57.917  -0.135  30.276  0.00  0.00     0.283 C 
ATOM      8  N   UNL d   1      57.822  -0.486  31.020  0.00  0.00    -0.181 NA
ATOM      9  O   UNL d   1      57.609   0.611  30.131  0.00  0.00    -0.265 OA
BRANCH   8  10
ATOM     10  C   UNL d   1      57.417  -0.083  31.615  0.00  0.00     0.216 A 
ATOM     11  N   UNL d   1      56.604  -0.080  31.725  0.00  0.00    -0.200 NA
ATOM     12  C   UNL d   1      56.440   0.392  32.381  0.00  0.00     0.175 A 
ATOM     13  N   UNL d   1      57.158   0.678  32.673  0.00  0.00    -0.187 NA
ATOM     14  S   UNL d   1      57.759   0.382  32.195  0.00  0.00     0.054 SA
BRANCH  12  15
ATOM     15  C   UNL d   1      55.694   0.550  32.691  0.00  0.00     0.082 C 
BRANCH  15  16
ATOM     16  C   UNL d   1      55.349   0.019  33.221  0.00  0.00     0.199 C 
ATOM     17  O   UNL d   1      55.413  -0.794  33.084  0.00  0.00    -0.286 OA
ATOM     18  C   UNL d   1      54.945   0.297  33.882  0.00  0.00     0.045 C 
ENDBRANCH  15  16
ENDBRANCH  12  15
ENDBRANCH   8  10
ENDBRANCH   1   7
BRANCH   3  19
ATOM     19  C   UNL d   1      59.346  -2.206  28.829  0.00  0.00     0.023 A 
ATOM     20  C   UNL d   1      58.902  -2.902  28.766  0.00  0.00     0.006 A 
ATOM     21  C   UNL d   1      59.275  -3.611  28.579  0.00  0.00     0.071 A 
ATOM     22  C   UNL d   1      60.090  -3.633  28.455  0.00  0.00     0.004 A 
ATOM     23  C   UNL d   1      60.534  -2.937  28.518  0.00  0.00     0.000 A 
ATOM     24  C   UNL d   1      60.161  -2.225  28.705  0.00  0.00     0.002 A 
BRANCH  21  25
ATOM     25  C   UNL d   1      58.831  -4.305  28.516  0.00  0.00     0.419 C 
ATOM     26  F   UNL d   1      59.212  -5.037  28.474  0.00  0.00    -0.166 F 
ATOM     27  F   UNL d   1      58.007  -4.269  28.495  0.00  0.00    -0.166 F 
ATOM     28  F   UNL d   1      59.615  -4.555  28.520  0.00  0.00    -0.166 F 
ENDBRANCH  21  25
ENDBRANCH   3  19
TORSDOF 6
ENDMDL
MODEL 2
REMARK VINA RESULT:      -2.1      1.400      1.854
REMARK  6 active torsions:
REMARK  status: ('A' for Active; 'I' for Inactive)
REMARK    1  A    between atoms: C_4  and  C_1 
REMARK    2  A    between atoms: C_3  and  N_8 
REMARK       I    between atoms: N_8  and  C_4 
REMARK    3  A    between atoms: C_14  and  C_6 
REMARK    4  A    between atoms: C_15  and  C_10 
REMARK    5  A    between atoms: C_12  and  C_16 
REMARK    6  A    between atoms: C_19  and  C_15 
ROOT
ATOM      1  C   UNL d   1      57.639  -0.674  30.779  0.00  0.00     0.083 A 
ATOM      2  C   UNL d   1      57.826  -1.434  30.528  0.00  0.00     0.032 A 
ATOM      3  C   UNL d   1      58.366  -1.373  29.908  0.00  0.00     0.100 A 
ATOM      4  C   UNL d   1      58.065  -0.140  30.314  0.00  0.00     0.105 A 
ATOM      5  O   UNL d   1      58.514  -0.572  29.775  0.00  0.00    -0.307 OA
ATOM      6  C   UNL d   1      58.045   0.682  30.376  0.00  0.00     0.027 C 
ENDROOT
BRANCH   1   7
ATOM      7  C   UNL d   1      57.119  -0.480  31.389  0.00  0.00     0.283 C 
ATOM      8  N   UNL d   1      56.865  -1.066  31.916  0.00  0.00    -0.181 NA
ATOM      9  O   UNL d   1      56.853   0.291  31.474  0.00  0.00    -0.265 OA
BRANCH   8  10
ATOM     10  C   UNL d   1      56.345  -0.873  32.525  0.00  0.00     0.216 A 
ATOM     11  N   UNL d   1      56.454  -0.277  33.079  0.00  0.00    -0.200 NA
ATOM     12  C   UNL d   1      55.801  -0.279  33.583  0.00  0.00     0.175 A 
ATOM     13  N   UNL d   1      55.291  -0.880  33.335  0.00  0.00    -0.187 NA
ATOM     14  S   UNL d   1      55.633  -1.244  32.681  0.00  0.00     0.054 SA
BRANCH  12  15
ATOM     15  C   UNL d   1      55.679   0.228  34.219  0.00  0.00     0.082 C 
BRANCH  15  16
ATOM     16  C   UNL d   1      56.290   0.366  34.757  0.00  0.00     0.199 C 
ATOM     17  O   UNL d   1      57.013   0.661  34.487  0.00  0.00    -0.286 OA
ATOM     18  C   UNL d   1      56.180   0.209  35.558  0.00  0.00     0.045 C 
ENDBRANCH  15  16
ENDBRANCH  12  15
ENDBRANCH   8  10
ENDBRANCH   1   7
BRANCH   3  19
ATOM     19  C   UNL d   1      58.699  -2.006  29.492  0.00  0.00     0.023 A 
ATOM     20  C   UNL d   1      59.519  -2.050  29.381  0.00  0.00     0.006 A 
ATOM     21  C   UNL d   1      59.843  -2.683  28.967  0.00  0.00     0.071 A 
ATOM     22  C   UNL d   1      59.356  -3.274  28.662  0.00  0.00     0.004 A 
ATOM     23  C   UNL d   1      58.537  -3.231  28.774  0.00  0.00     0.000 A 
ATOM     24  C   UNL d   1      58.210  -2.596  29.189  0.00  0.00     0.002 A 
BRANCH  21  25
ATOM     25  C   UNL d   1      60.660  -2.726  28.855  0.00  0.00     0.419 C 
ATOM     26  F   UNL d   1      61.009  -3.437  28.619  0.00  0.00    -0.166 F 
ATOM     27  F   UNL d   1      61.131  -2.060  28.981  0.00  0.00    -0.166 F 
ATOM     28  F   UNL d   1      60.383  -3.481  28.683  0.00  0.00    -0.166 F 
ENDBRANCH  21  25
ENDBRANCH   3  19
TORSDOF 6
ENDMDL
