MODEL 1
REMARK VINA RESULT:      41.1      0.000      0.000
REMARK  4 active torsions:
REMARK  status: ('A' for Active; 'I' for Inactive)
REMARK    1  A    between atoms: S_2  and  N_1 
REMARK    2  A    between atoms: N_6  and  S_2 
REMARK    3  A    between atoms: C_10  and  C_3 
REMARK    4  A    between atoms: C_14  and  C_10 
ROOT
ATOM      1  N   UNL d   1     -58.278 -98.817 -44.556  0.00  0.00    -0.201 N 
ATOM      2  C   UNL d   1     -57.470 -98.821 -44.329  0.00  0.00     0.158 A 
ATOM      3  N   UNL d   1     -57.443 -98.811 -43.500  0.00  0.00    -0.226 NA
ATOM      4  C   UNL d   1     -58.728 -98.804 -43.868  0.00  0.00     0.095 A 
ATOM      5  C   UNL d   1     -58.217 -98.800 -43.219  0.00  0.00     0.100 A 
ATOM      6  C   UNL d   1     -59.544 -98.796 -43.757  0.00  0.00     0.020 A 
ATOM      7  C   UNL d   1     -58.531 -98.787 -42.456  0.00  0.00     0.021 A 
ATOM      8  C   UNL d   1     -59.858 -98.783 -42.995  0.00  0.00     0.002 A 
ATOM      9  C   UNL d   1     -59.349 -98.779 -42.339  0.00  0.00     0.002 A 
ENDROOT
BRANCH   1  10
ATOM     10  S   UNL d   1     -58.561 -98.825 -45.321  0.00  0.00     0.338 S 
ATOM     11  O   UNL d   1     -59.333 -98.889 -45.043  0.00  0.00    -0.181 OA
ATOM     12  O   UNL d   1     -57.789 -98.761 -45.602  0.00  0.00    -0.181 OA
BRANCH  10  13
ATOM     13  N   UNL d   1     -58.834 -98.832 -46.097  0.00  0.00    -0.212 N 
ATOM     14  C   UNL d   1     -59.639 -98.756 -46.251  0.00  0.00     0.120 A 
ATOM     15  C   UNL d   1     -59.911 -98.763 -47.038  0.00  0.00     0.142 A 
ATOM     16  O   UNL d   1     -59.370 -98.847 -47.656  0.00  0.00    -0.300 OA
ATOM     17  C   UNL d   1     -58.572 -98.922 -47.494  0.00  0.00     0.142 A 
ATOM     18  C   UNL d   1     -58.300 -98.915 -46.721  0.00  0.00     0.120 A 
ENDBRANCH  10  13
ENDBRANCH   1  10
BRANCH   2  19
ATOM     19  C   UNL d   1     -56.823 -98.834 -44.843  0.00  0.00     0.038 C 
BRANCH  19  20
ATOM     20  C   UNL d   1     -56.135 -99.225 -44.618  0.00  0.00     0.003 A 
ATOM     21  C   UNL d   1     -55.440 -98.791 -44.501  0.00  0.00     0.000 A 
ATOM     22  C   UNL d   1     -54.753 -99.181 -44.276  0.00  0.00     0.000 A 
ATOM     23  C   UNL d   1     -54.750 -99.991 -44.167  0.00  0.00     0.000 A 
ATOM     24  C   UNL d   1     -55.449-100.427 -44.284  0.00  0.00     0.000 A 
ATOM     25  C   UNL d   1     -56.140-100.037 -44.510  0.00  0.00     0.000 A 
ENDBRANCH  19  20
ENDBRANCH   2  19
TORSDOF 4
ENDMDL
