MODEL 1
REMARK VINA RESULT:      -6.4      0.000      0.000
REMARK  6 active torsions:
REMARK  status: ('A' for Active; 'I' for Inactive)
REMARK    1  A    between atoms: C_7  and  C_1 
REMARK    2  A    between atoms: N_5  and  C_3 
REMARK       I    between atoms: C_9  and  N_5 
REMARK    3  A    between atoms: C_8  and  S_11 
REMARK    4  A    between atoms: C_13  and  C_9 
REMARK    5  A    between atoms: S_11  and  C_13 
REMARK    6  A    between atoms: O_17  and  C_14 
ROOT
ATOM      1  C   UNL d   1     -48.746  14.838  22.837  0.00  0.00     0.137 A 
ATOM      2  S   UNL d   1     -48.337  14.235  23.235  0.00  0.00    -0.026 SA
ATOM      3  C   UNL d   1     -47.567  14.200  22.934  0.00  0.00     0.219 A 
ATOM      4  N   UNL d   1     -48.222  15.176  22.286  0.00  0.00    -0.139 NA
ATOM      5  N   UNL d   1     -47.495  14.783  22.346  0.00  0.00    -0.121 NA
ENDROOT
BRANCH   3   6
ATOM      6  N   UNL d   1     -46.972  13.680  23.172  0.00  0.00    -0.181 NA
ATOM      7  C   UNL d   1     -46.676  13.108  22.648  0.00  0.00     0.287 C 
ATOM      8  O   UNL d   1     -46.984  13.061  21.882  0.00  0.00    -0.265 OA
BRANCH   7   9
ATOM      9  C   UNL d   1     -46.079  12.589  22.893  0.00  0.00     0.089 C 
ATOM     10  C   UNL d   1     -45.294  12.739  22.687  0.00  0.00     0.012 C 
BRANCH   9  11
ATOM     11  S   UNL d   1     -46.279  11.920  23.347  0.00  0.00    -0.057 SA
BRANCH  11  12
ATOM     12  C   UNL d   1     -45.709  11.335  23.469  0.00  0.00     0.141 A 
ATOM     13  N   UNL d   1     -44.881  11.435  23.485  0.00  0.00    -0.230 NA
ATOM     14  C   UNL d   1     -44.531  10.697  23.625  0.00  0.00     0.107 A 
ATOM     15  C   UNL d   1     -45.137  10.131  23.698  0.00  0.00     0.058 A 
ATOM     16  S   UNL d   1     -45.866  10.524  23.602  0.00  0.00    -0.059 SA
ENDBRANCH  11  12
ENDBRANCH   9  11
ENDBRANCH   7   9
ENDBRANCH   3   6
BRANCH   1  17
ATOM     17  C   UNL d   1     -49.534  15.067  22.960  0.00  0.00     0.048 A 
ATOM     18  C   UNL d   1     -50.138  14.719  22.543  0.00  0.00     0.096 A 
ATOM     19  C   UNL d   1     -50.909  14.947  22.668  0.00  0.00     0.024 A 
ATOM     20  C   UNL d   1     -51.056  15.531  23.220  0.00  0.00     0.002 A 
ATOM     21  C   UNL d   1     -50.473  15.881  23.636  0.00  0.00     0.000 A 
ATOM     22  C   UNL d   1     -49.697  15.652  23.512  0.00  0.00     0.004 A 
BRANCH  18  23
ATOM     23  O   UNL d   1     -49.983  14.141  21.998  0.00  0.00    -0.328 OA
ATOM     24  C   UNL d   1     -50.747  13.786  21.587  0.00  0.00     0.181 C 
ENDBRANCH  18  23
ENDBRANCH   1  17
TORSDOF 6
ENDMDL
MODEL 2
REMARK VINA RESULT:      -5.4      1.331      5.474
REMARK  6 active torsions:
REMARK  status: ('A' for Active; 'I' for Inactive)
REMARK    1  A    between atoms: C_7  and  C_1 
REMARK    2  A    between atoms: N_5  and  C_3 
REMARK       I    between atoms: C_9  and  N_5 
REMARK    3  A    between atoms: C_8  and  S_11 
REMARK    4  A    between atoms: C_13  and  C_9 
REMARK    5  A    between atoms: S_11  and  C_13 
REMARK    6  A    between atoms: O_17  and  C_14 
ROOT
ATOM      1  C   UNL d   1     -45.891  11.941  23.326  0.00  0.00     0.137 A 
ATOM      2  S   UNL d   1     -46.683  11.809  23.116  0.00  0.00    -0.026 SA
ATOM      3  C   UNL d   1     -47.099  12.518  23.210  0.00  0.00     0.219 A 
ATOM      4  N   UNL d   1     -45.820  12.740  23.551  0.00  0.00    -0.139 NA
ATOM      5  N   UNL d   1     -46.565  13.095  23.479  0.00  0.00    -0.121 NA
ENDROOT
BRANCH   3   6
ATOM      6  N   UNL d   1     -47.902  12.637  23.063  0.00  0.00    -0.181 NA
ATOM      7  C   UNL d   1     -48.152  13.216  22.523  0.00  0.00     0.287 C 
ATOM      8  O   UNL d   1     -47.588  13.676  22.131  0.00  0.00    -0.265 OA
BRANCH   7   9
ATOM      9  C   UNL d   1     -48.960  13.331  22.381  0.00  0.00     0.089 C 
ATOM     10  C   UNL d   1     -49.473  12.684  22.376  0.00  0.00     0.012 C 
BRANCH   9  11
ATOM     11  S   UNL d   1     -49.246  14.100  22.243  0.00  0.00    -0.057 SA
BRANCH  11  12
ATOM     12  C   UNL d   1     -49.877  14.381  22.698  0.00  0.00     0.141 A 
ATOM     13  N   UNL d   1     -50.546  13.951  22.947  0.00  0.00    -0.230 NA
ATOM     14  C   UNL d   1     -51.032  14.456  23.390  0.00  0.00     0.107 A 
ATOM     15  C   UNL d   1     -50.668  15.205  23.421  0.00  0.00     0.058 A 
ATOM     16  S   UNL d   1     -49.954  15.159  22.994  0.00  0.00    -0.059 SA
ENDBRANCH  11  12
ENDBRANCH   9  11
ENDBRANCH   7   9
ENDBRANCH   3   6
BRANCH   1  17
ATOM     17  C   UNL d   1     -45.276  11.384  23.317  0.00  0.00     0.048 A 
ATOM     18  C   UNL d   1     -44.577  11.544  22.936  0.00  0.00     0.096 A 
ATOM     19  C   UNL d   1     -43.977  10.994  22.929  0.00  0.00     0.024 A 
ATOM     20  C   UNL d   1     -44.098  10.283  23.313  0.00  0.00     0.002 A 
ATOM     21  C   UNL d   1     -44.779  10.113  23.690  0.00  0.00     0.000 A 
ATOM     22  C   UNL d   1     -45.384  10.666  23.698  0.00  0.00     0.004 A 
BRANCH  18  23
ATOM     23  O   UNL d   1     -44.465  12.251  22.558  0.00  0.00    -0.328 OA
ATOM     24  C   UNL d   1     -43.690  12.287  22.032  0.00  0.00     0.181 C 
ENDBRANCH  18  23
ENDBRANCH   1  17
TORSDOF 6
ENDMDL
MODEL 3
REMARK VINA RESULT:      -5.1      8.743     10.363
REMARK  6 active torsions:
REMARK  status: ('A' for Active; 'I' for Inactive)
REMARK    1  A    between atoms: C_7  and  C_1 
REMARK    2  A    between atoms: N_5  and  C_3 
REMARK       I    between atoms: C_9  and  N_5 
REMARK    3  A    between atoms: C_8  and  S_11 
REMARK    4  A    between atoms: C_13  and  C_9 
REMARK    5  A    between atoms: S_11  and  C_13 
REMARK    6  A    between atoms: O_17  and  C_14 
ROOT
ATOM      1  C   UNL d   1     -39.381  14.239  17.796  0.00  0.00     0.137 A 
ATOM      2  S   UNL d   1     -39.136  14.750  18.403  0.00  0.00    -0.026 SA
ATOM      3  C   UNL d   1     -39.712  14.745  18.997  0.00  0.00     0.219 A 
ATOM      4  N   UNL d   1     -40.116  13.918  18.019  0.00  0.00    -0.139 NA
ATOM      5  N   UNL d   1     -40.320  14.230  18.760  0.00  0.00    -0.121 NA
ENDROOT
BRANCH   3   6
ATOM      6  N   UNL d   1     -39.692  15.174  19.702  0.00  0.00    -0.181 NA
ATOM      7  C   UNL d   1     -39.537  14.794  20.423  0.00  0.00     0.287 C 
ATOM      8  O   UNL d   1     -39.401  13.978  20.431  0.00  0.00    -0.265 OA
BRANCH   7   9
ATOM      9  C   UNL d   1     -39.519  15.230  21.127  0.00  0.00     0.089 C 
ATOM     10  C   UNL d   1     -40.224  15.479  21.475  0.00  0.00     0.012 C 
BRANCH   9  11
ATOM     11  S   UNL d   1     -38.785  15.412  21.476  0.00  0.00    -0.057 SA
BRANCH  11  12
ATOM     12  C   UNL d   1     -38.738  15.474  22.299  0.00  0.00     0.141 A 
ATOM     13  N   UNL d   1     -39.233  15.922  22.798  0.00  0.00    -0.230 NA
ATOM     14  C   UNL d   1     -38.979  15.817  23.580  0.00  0.00     0.107 A 
ATOM     15  C   UNL d   1     -38.324  15.304  23.575  0.00  0.00     0.058 A 
ATOM     16  S   UNL d   1     -38.174  15.091  22.783  0.00  0.00    -0.059 SA
ENDBRANCH  11  12
ENDBRANCH   9  11
ENDBRANCH   7   9
ENDBRANCH   3   6
BRANCH   1  17
ATOM     17  C   UNL d   1     -38.974  14.075  17.092  0.00  0.00     0.048 A 
ATOM     18  C   UNL d   1     -38.486  13.428  17.037  0.00  0.00     0.096 A 
ATOM     19  C   UNL d   1     -38.088  13.270  16.344  0.00  0.00     0.024 A 
ATOM     20  C   UNL d   1     -38.193  13.778  15.713  0.00  0.00     0.002 A 
ATOM     21  C   UNL d   1     -38.669  14.416  15.754  0.00  0.00     0.000 A 
ATOM     22  C   UNL d   1     -39.069  14.576  16.450  0.00  0.00     0.004 A 
BRANCH  18  23
ATOM     23  O   UNL d   1     -38.387  12.929  17.668  0.00  0.00    -0.328 OA
ATOM     24  C   UNL d   1     -38.001  12.104  17.448  0.00  0.00     0.181 C 
ENDBRANCH  18  23
ENDBRANCH   1  17
TORSDOF 6
ENDMDL
MODEL 4
REMARK VINA RESULT:      -4.4      8.911     10.090
REMARK  6 active torsions:
REMARK  status: ('A' for Active; 'I' for Inactive)
REMARK    1  A    between atoms: C_7  and  C_1 
REMARK    2  A    between atoms: N_5  and  C_3 
REMARK       I    between atoms: C_9  and  N_5 
REMARK    3  A    between atoms: C_8  and  S_11 
REMARK    4  A    between atoms: C_13  and  C_9 
REMARK    5  A    between atoms: S_11  and  C_13 
REMARK    6  A    between atoms: O_17  and  C_14 
ROOT
ATOM      1  C   UNL d   1     -39.475  14.739  21.360  0.00  0.00     0.137 A 
ATOM      2  S   UNL d   1     -39.043  14.805  20.654  0.00  0.00    -0.026 SA
ATOM      3  C   UNL d   1     -39.519  14.543  20.031  0.00  0.00     0.219 A 
ATOM      4  N   UNL d   1     -40.225  14.433  21.168  0.00  0.00    -0.139 NA
ATOM      5  N   UNL d   1     -40.252  14.312  20.349  0.00  0.00    -0.121 NA
ENDROOT
BRANCH   3   6
ATOM      6  N   UNL d   1     -39.310  14.513  19.233  0.00  0.00    -0.181 NA
ATOM      7  C   UNL d   1     -39.815  14.825  18.652  0.00  0.00     0.287 C 
ATOM      8  O   UNL d   1     -40.533  15.167  18.879  0.00  0.00    -0.265 OA
BRANCH   7   9
ATOM      9  C   UNL d   1     -39.598  14.792  17.853  0.00  0.00     0.089 C 
ATOM     10  C   UNL d   1     -40.109  15.087  17.276  0.00  0.00     0.012 C 
BRANCH   9  11
ATOM     11  S   UNL d   1     -38.865  14.460  17.642  0.00  0.00    -0.057 SA
BRANCH  11  12
ATOM     12  C   UNL d   1     -38.606  14.526  16.860  0.00  0.00     0.141 A 
ATOM     13  N   UNL d   1     -38.844  14.060  16.211  0.00  0.00    -0.230 NA
ATOM     14  C   UNL d   1     -38.440  14.325  15.537  0.00  0.00     0.107 A 
ATOM     15  C   UNL d   1     -37.948  14.958  15.761  0.00  0.00     0.058 A 
ATOM     16  S   UNL d   1     -38.049  15.083  16.578  0.00  0.00    -0.059 SA
ENDBRANCH  11  12
ENDBRANCH   9  11
ENDBRANCH   7   9
ENDBRANCH   3   6
BRANCH   1  17
ATOM     17  C   UNL d   1     -39.213  14.939  22.122  0.00  0.00     0.048 A 
ATOM     18  C   UNL d   1     -38.913  14.373  22.620  0.00  0.00     0.096 A 
ATOM     19  C   UNL d   1     -38.658  14.574  23.366  0.00  0.00     0.024 A 
ATOM     20  C   UNL d   1     -38.712  15.356  23.596  0.00  0.00     0.002 A 
ATOM     21  C   UNL d   1     -39.005  15.922  23.117  0.00  0.00     0.000 A 
ATOM     22  C   UNL d   1     -39.262  15.721  22.367  0.00  0.00     0.004 A 
BRANCH  18  23
ATOM     23  O   UNL d   1     -38.863  13.600  22.383  0.00  0.00    -0.328 OA
ATOM     24  C   UNL d   1     -38.438  13.036  23.001  0.00  0.00     0.181 C 
ENDBRANCH  18  23
ENDBRANCH   1  17
TORSDOF 6
ENDMDL
MODEL 5
REMARK VINA RESULT:      -4.1      9.202     10.137
REMARK  6 active torsions:
REMARK  status: ('A' for Active; 'I' for Inactive)
REMARK    1  A    between atoms: C_7  and  C_1 
REMARK    2  A    between atoms: N_5  and  C_3 
REMARK       I    between atoms: C_9  and  N_5 
REMARK    3  A    between atoms: C_8  and  S_11 
REMARK    4  A    between atoms: C_13  and  C_9 
REMARK    5  A    between atoms: S_11  and  C_13 
REMARK    6  A    between atoms: O_17  and  C_14 
ROOT
ATOM      1  C   UNL d   1     -38.994  14.727  17.745  0.00  0.00     0.137 A 
ATOM      2  S   UNL d   1     -38.652  14.928  18.474  0.00  0.00    -0.026 SA
ATOM      3  C   UNL d   1     -38.888  14.369  19.036  0.00  0.00     0.219 A 
ATOM      4  N   UNL d   1     -39.445  14.037  17.860  0.00  0.00    -0.139 NA
ATOM      5  N   UNL d   1     -39.380  13.816  18.657  0.00  0.00    -0.121 NA
ENDROOT
BRANCH   3   6
ATOM      6  N   UNL d   1     -38.677  14.357  19.833  0.00  0.00    -0.181 NA
ATOM      7  C   UNL d   1     -39.177  14.685  20.409  0.00  0.00     0.287 C 
ATOM      8  O   UNL d   1     -39.893  15.027  20.176  0.00  0.00    -0.265 OA
BRANCH   7   9
ATOM      9  C   UNL d   1     -38.958  14.670  21.208  0.00  0.00     0.089 C 
ATOM     10  C   UNL d   1     -38.467  15.259  21.511  0.00  0.00     0.012 C 
BRANCH   9  11
ATOM     11  S   UNL d   1     -39.239  14.057  21.696  0.00  0.00    -0.057 SA
BRANCH  11  12
ATOM     12  C   UNL d   1     -38.912  13.964  22.449  0.00  0.00     0.141 A 
ATOM     13  N   UNL d   1     -38.806  14.555  23.027  0.00  0.00    -0.230 NA
ATOM     14  C   UNL d   1     -38.458  14.208  23.695  0.00  0.00     0.107 A 
ATOM     15  C   UNL d   1     -38.345  13.398  23.539  0.00  0.00     0.058 A 
ATOM     16  S   UNL d   1     -38.625  13.246  22.769  0.00  0.00    -0.059 SA
ENDBRANCH  11  12
ENDBRANCH   9  11
ENDBRANCH   7   9
ENDBRANCH   3   6
BRANCH   1  17
ATOM     17  C   UNL d   1     -38.906  15.134  17.027  0.00  0.00     0.048 A 
ATOM     18  C   UNL d   1     -39.553  15.442  16.643  0.00  0.00     0.096 A 
ATOM     19  C   UNL d   1     -39.462  15.841  15.940  0.00  0.00     0.024 A 
ATOM     20  C   UNL d   1     -38.708  15.922  15.634  0.00  0.00     0.002 A 
ATOM     21  C   UNL d   1     -38.066  15.624  16.001  0.00  0.00     0.000 A 
ATOM     22  C   UNL d   1     -38.156  15.223  16.708  0.00  0.00     0.004 A 
BRANCH  18  23
ATOM     23  O   UNL d   1     -40.296  15.358  16.954  0.00  0.00    -0.328 OA
ATOM     24  C   UNL d   1     -40.939  15.922  16.570  0.00  0.00     0.181 C 
ENDBRANCH  18  23
ENDBRANCH   1  17
TORSDOF 6
ENDMDL
MODEL 6
REMARK VINA RESULT:      -3.7      2.715      3.698
REMARK  6 active torsions:
REMARK  status: ('A' for Active; 'I' for Inactive)
REMARK    1  A    between atoms: C_7  and  C_1 
REMARK    2  A    between atoms: N_5  and  C_3 
REMARK       I    between atoms: C_9  and  N_5 
REMARK    3  A    between atoms: C_8  and  S_11 
REMARK    4  A    between atoms: C_13  and  C_9 
REMARK    5  A    between atoms: S_11  and  C_13 
REMARK    6  A    between atoms: O_17  and  C_14 
ROOT
ATOM      1  C   UNL d   1     -46.695  12.885  22.869  0.00  0.00     0.137 A 
ATOM      2  S   UNL d   1     -46.226  12.962  22.188  0.00  0.00    -0.026 SA
ATOM      3  C   UNL d   1     -45.452  13.137  22.424  0.00  0.00     0.219 A 
ATOM      4  N   UNL d   1     -46.204  13.014  23.529  0.00  0.00    -0.139 NA
ATOM      5  N   UNL d   1     -45.438  13.169  23.254  0.00  0.00    -0.121 NA
ENDROOT
BRANCH   3   6
ATOM      6  N   UNL d   1     -44.805  13.259  21.926  0.00  0.00    -0.181 NA
ATOM      7  C   UNL d   1     -44.152  12.747  21.949  0.00  0.00     0.287 C 
ATOM      8  O   UNL d   1     -44.154  12.110  22.476  0.00  0.00    -0.265 OA
BRANCH   7   9
ATOM      9  C   UNL d   1     -43.506  12.875  21.447  0.00  0.00     0.089 C 
ATOM     10  C   UNL d   1     -43.613  12.868  20.629  0.00  0.00     0.012 C 
BRANCH   9  11
ATOM     11  S   UNL d   1     -42.753  13.009  21.776  0.00  0.00    -0.057 SA
BRANCH  11  12
ATOM     12  C   UNL d   1     -42.227  13.511  21.382  0.00  0.00     0.141 A 
ATOM     13  N   UNL d   1     -42.313  14.331  21.260  0.00  0.00    -0.230 NA
ATOM     14  C   UNL d   1     -41.652  14.603  20.839  0.00  0.00     0.107 A 
ATOM     15  C   UNL d   1     -41.150  13.954  20.696  0.00  0.00     0.058 A 
ATOM     16  S   UNL d   1     -41.504  13.279  21.032  0.00  0.00    -0.059 SA
ENDBRANCH  11  12
ENDBRANCH   9  11
ENDBRANCH   7   9
ENDBRANCH   3   6
BRANCH   1  17
ATOM     17  C   UNL d   1     -47.506  12.712  22.894  0.00  0.00     0.048 A 
ATOM     18  C   UNL d   1     -48.059  13.306  22.856  0.00  0.00     0.096 A 
ATOM     19  C   UNL d   1     -48.853  13.130  22.881  0.00  0.00     0.024 A 
ATOM     20  C   UNL d   1     -49.076  12.346  22.946  0.00  0.00     0.002 A 
ATOM     21  C   UNL d   1     -48.543  11.755  22.985  0.00  0.00     0.000 A 
ATOM     22  C   UNL d   1     -47.744  11.929  22.960  0.00  0.00     0.004 A 
BRANCH  18  23
ATOM     23  O   UNL d   1     -47.830  14.080  22.792  0.00  0.00    -0.328 OA
ATOM     24  C   UNL d   1     -48.541  14.690  22.769  0.00  0.00     0.181 C 
ENDBRANCH  18  23
ENDBRANCH   1  17
TORSDOF 6
ENDMDL
