MODEL 1
REMARK VINA RESULT:      -4.1      0.000      0.000
REMARK  9 active torsions:
REMARK  status: ('A' for Active; 'I' for Inactive)
REMARK    1  A    between atoms: N_6  and  C_1 
REMARK    2  A    between atoms: N_2  and  C_12 
REMARK    3  A    between atoms: C_3  and  N_6 
REMARK    4  A    between atoms: N_4  and  C_3 
REMARK       I    between atoms: C_7  and  N_4 
REMARK    5  A    between atoms: C_16  and  C_7 
REMARK    6  A    between atoms: C_10  and  C_8 
REMARK    7  A    between atoms: C_13  and  C_10 
REMARK    8  A    between atoms: O_24  and  C_13 
REMARK    9  A    between atoms: C_25  and  O_24 
ROOT
ATOM      1  C   UNL d   1      58.242  -0.169  29.502  0.00  0.00     0.277 C 
ATOM      2  S   UNL d   1      58.098   0.494  29.033  0.00  0.00    -0.023 SA
ENDROOT
BRANCH   1   3
ATOM      3  N   UNL d   1      58.912  -0.632  29.363  0.00  0.00    -0.347 NA
BRANCH   3   4
ATOM      4  C   UNL d   1      59.582  -1.088  29.224  0.00  0.00     0.248 A 
ATOM      5  N   UNL d   1      59.611  -1.817  28.827  0.00  0.00    -0.210 NA
ATOM      6  C   UNL d   1      60.396  -2.071  28.818  0.00  0.00     0.096 A 
ATOM      7  C   UNL d   1      60.850  -1.501  29.208  0.00  0.00     0.059 A 
ATOM      8  S   UNL d   1      60.353  -0.902  29.455  0.00  0.00    -0.033 SA
BRANCH   6   9
ATOM      9  C   UNL d   1      60.672  -2.766  28.481  0.00  0.00     0.088 C 
BRANCH   9  10
ATOM     10  C   UNL d   1      60.590  -3.483  28.875  0.00  0.00     0.302 C 
ATOM     11  O   UNL d   1      60.571  -3.490  29.699  0.00  0.00    -0.259 OA
BRANCH  10  12
ATOM     12  O   UNL d   1      60.528  -4.185  28.455  0.00  0.00    -0.271 OA
BRANCH  12  13
ATOM     13  C   UNL d   1      61.133  -4.743  28.490  0.00  0.00     0.126 C 
ATOM     14  C   UNL d   1      60.957  -5.545  28.455  0.00  0.00     0.029 C 
ENDBRANCH  12  13
ENDBRANCH  10  12
ENDBRANCH   9  10
ENDBRANCH   6   9
ENDBRANCH   3   4
ENDBRANCH   1   3
BRANCH   1  15
ATOM     15  N   UNL d   1      57.716  -0.364  30.105  0.00  0.00    -0.168 NA
ATOM     16  C   UNL d   1      57.721   0.059  30.816  0.00  0.00     0.282 C 
ATOM     17  O   UNL d   1      58.251   0.677  30.923  0.00  0.00    -0.265 OA
BRANCH  16  18
ATOM     18  C   UNL d   1      57.190  -0.142  31.417  0.00  0.00     0.058 A 
ATOM     19  C   UNL d   1      57.105  -0.919  31.644  0.00  0.00     0.006 A 
ATOM     20  C   UNL d   1      56.573  -1.120  32.246  0.00  0.00     0.024 A 
ATOM     21  C   UNL d   1      56.129  -0.529  32.617  0.00  0.00     0.127 A 
ATOM     22  C   UNL d   1      56.220   0.263  32.383  0.00  0.00     0.024 A 
ATOM     23  C   UNL d   1      56.747   0.457  31.786  0.00  0.00     0.006 A 
BRANCH  21  24
ATOM     24  N   UNL d   1      55.600  -0.722  33.216  0.00  0.00    -0.114 N 
ATOM     25  O   UNL d   1      54.900  -0.291  33.309  0.00  0.00    -0.532 OA
ATOM     26  O   UNL d   1      55.768  -1.346  33.722  0.00  0.00    -0.532 OA
ENDBRANCH  21  24
ENDBRANCH  16  18
ENDBRANCH   1  15
TORSDOF 9
ENDMDL
MODEL 2
REMARK VINA RESULT:      -2.6      1.753      2.277
REMARK  9 active torsions:
REMARK  status: ('A' for Active; 'I' for Inactive)
REMARK    1  A    between atoms: N_6  and  C_1 
REMARK    2  A    between atoms: N_2  and  C_12 
REMARK    3  A    between atoms: C_3  and  N_6 
REMARK    4  A    between atoms: N_4  and  C_3 
REMARK       I    between atoms: C_7  and  N_4 
REMARK    5  A    between atoms: C_16  and  C_7 
REMARK    6  A    between atoms: C_10  and  C_8 
REMARK    7  A    between atoms: C_13  and  C_10 
REMARK    8  A    between atoms: O_24  and  C_13 
REMARK    9  A    between atoms: C_25  and  O_24 
ROOT
ATOM      1  C   UNL d   1      58.195   0.507  31.624  0.00  0.00     0.277 C 
ATOM      2  S   UNL d   1      58.874   0.681  32.059  0.00  0.00    -0.023 SA
ENDROOT
BRANCH   1   3
ATOM      3  N   UNL d   1      58.262   0.266  30.837  0.00  0.00    -0.347 NA
BRANCH   3   4
ATOM      4  C   UNL d   1      58.324   0.023  30.053  0.00  0.00     0.248 A 
ATOM      5  N   UNL d   1      58.356  -0.760  29.779  0.00  0.00    -0.210 NA
ATOM      6  C   UNL d   1      58.416  -0.738  28.956  0.00  0.00     0.096 A 
ATOM      7  C   UNL d   1      58.421   0.055  28.724  0.00  0.00     0.059 A 
ATOM      8  S   UNL d   1      58.365   0.518  29.393  0.00  0.00    -0.033 SA
BRANCH   6   9
ATOM      9  C   UNL d   1      58.463  -1.391  28.461  0.00  0.00     0.088 C 
BRANCH   9  10
ATOM     10  C   UNL d   1      58.913  -2.045  28.674  0.00  0.00     0.302 C 
ATOM     11  O   UNL d   1      59.734  -2.006  28.614  0.00  0.00    -0.259 OA
BRANCH  10  12
ATOM     12  O   UNL d   1      58.551  -2.731  28.942  0.00  0.00    -0.271 OA
BRANCH  12  13
ATOM     13  C   UNL d   1      58.578  -3.419  28.489  0.00  0.00     0.126 C 
ATOM     14  C   UNL d   1      58.306  -4.128  28.800  0.00  0.00     0.029 C 
ENDBRANCH  12  13
ENDBRANCH  10  12
ENDBRANCH   9  10
ENDBRANCH   6   9
ENDBRANCH   3   4
ENDBRANCH   1   3
BRANCH   1  15
ATOM     15  N   UNL d   1      57.454   0.575  31.979  0.00  0.00    -0.168 NA
ATOM     16  C   UNL d   1      57.280   0.146  32.664  0.00  0.00     0.282 C 
ATOM     17  O   UNL d   1      57.844  -0.350  32.994  0.00  0.00    -0.265 OA
BRANCH  16  18
ATOM     18  C   UNL d   1      56.534   0.219  33.016  0.00  0.00     0.058 A 
ATOM     19  C   UNL d   1      55.876  -0.085  32.645  0.00  0.00     0.006 A 
ATOM     20  C   UNL d   1      55.131  -0.012  32.997  0.00  0.00     0.024 A 
ATOM     21  C   UNL d   1      55.056   0.372  33.727  0.00  0.00     0.127 A 
ATOM     22  C   UNL d   1      55.729   0.680  34.101  0.00  0.00     0.024 A 
ATOM     23  C   UNL d   1      56.466   0.605  33.748  0.00  0.00     0.006 A 
BRANCH  21  24
ATOM     24  N   UNL d   1      54.317   0.448  34.081  0.00  0.00    -0.114 N 
ATOM     25  O   UNL d   1      54.230   0.321  34.894  0.00  0.00    -0.532 OA
ATOM     26  O   UNL d   1      53.666   0.650  33.625  0.00  0.00    -0.532 OA
ENDBRANCH  21  24
ENDBRANCH  16  18
ENDBRANCH   1  15
TORSDOF 9
ENDMDL
MODEL 3
REMARK VINA RESULT:      -1.4      1.821      2.782
REMARK  9 active torsions:
REMARK  status: ('A' for Active; 'I' for Inactive)
REMARK    1  A    between atoms: N_6  and  C_1 
REMARK    2  A    between atoms: N_2  and  C_12 
REMARK    3  A    between atoms: C_3  and  N_6 
REMARK    4  A    between atoms: N_4  and  C_3 
REMARK       I    between atoms: C_7  and  N_4 
REMARK    5  A    between atoms: C_16  and  C_7 
REMARK    6  A    between atoms: C_10  and  C_8 
REMARK    7  A    between atoms: C_13  and  C_10 
REMARK    8  A    between atoms: O_24  and  C_13 
REMARK    9  A    between atoms: C_25  and  O_24 
ROOT
ATOM      1  C   UNL d   1      57.174  -0.842  31.425  0.00  0.00     0.277 C 
ATOM      2  S   UNL d   1      56.863  -1.550  31.139  0.00  0.00    -0.023 SA
ENDROOT
BRANCH   1   3
ATOM      3  N   UNL d   1      57.798  -0.478  31.027  0.00  0.00    -0.347 NA
BRANCH   3   4
ATOM      4  C   UNL d   1      58.418  -0.111  30.628  0.00  0.00     0.248 A 
ATOM      5  N   UNL d   1      58.617  -0.207  29.827  0.00  0.00    -0.210 NA
ATOM      6  C   UNL d   1      59.274   0.267  29.670  0.00  0.00     0.096 A 
ATOM      7  C   UNL d   1      59.479   0.654  30.370  0.00  0.00     0.059 A 
ATOM      8  S   UNL d   1      58.957   0.424  30.954  0.00  0.00    -0.033 SA
BRANCH   6   9
ATOM      9  C   UNL d   1      59.652   0.338  28.945  0.00  0.00     0.088 C 
BRANCH   9  10
ATOM     10  C   UNL d   1      60.333  -0.094  28.786  0.00  0.00     0.302 C 
ATOM     11  O   UNL d   1      61.069   0.270  28.865  0.00  0.00    -0.259 OA
BRANCH  10  12
ATOM     12  O   UNL d   1      60.285  -0.878  28.549  0.00  0.00    -0.271 OA
BRANCH  12  13
ATOM     13  C   UNL d   1      60.960  -1.350  28.540  0.00  0.00     0.126 C 
ATOM     14  C   UNL d   1      60.891  -2.167  28.487  0.00  0.00     0.029 C 
ENDBRANCH  12  13
ENDBRANCH  10  12
ENDBRANCH   9  10
ENDBRANCH   6   9
ENDBRANCH   3   4
ENDBRANCH   1   3
BRANCH   1  15
ATOM     15  N   UNL d   1      56.857  -0.503  32.106  0.00  0.00    -0.168 NA
ATOM     16  C   UNL d   1      56.216  -0.858  32.489  0.00  0.00     0.282 C 
ATOM     17  O   UNL d   1      55.892  -1.552  32.192  0.00  0.00    -0.265 OA
BRANCH  16  18
ATOM     18  C   UNL d   1      55.903  -0.512  33.172  0.00  0.00     0.058 A 
ATOM     19  C   UNL d   1      55.242  -0.041  33.126  0.00  0.00     0.006 A 
ATOM     20  C   UNL d   1      54.929   0.305  33.810  0.00  0.00     0.024 A 
ATOM     21  C   UNL d   1      55.291   0.170  34.541  0.00  0.00     0.127 A 
ATOM     22  C   UNL d   1      55.965  -0.312  34.585  0.00  0.00     0.024 A 
ATOM     23  C   UNL d   1      56.272  -0.652  33.904  0.00  0.00     0.006 A 
BRANCH  21  24
ATOM     24  N   UNL d   1      54.985   0.511  35.225  0.00  0.00    -0.114 N 
ATOM     25  O   UNL d   1      55.481   0.681  35.864  0.00  0.00    -0.532 OA
ATOM     26  O   UNL d   1      54.183   0.682  35.270  0.00  0.00    -0.532 OA
ENDBRANCH  21  24
ENDBRANCH  16  18
ENDBRANCH   1  15
TORSDOF 9
ENDMDL
