MODEL 1
REMARK VINA RESULT:       5.2      0.000      0.000
REMARK  1 active torsions:
REMARK  status: ('A' for Active; 'I' for Inactive)
REMARK    1  A    between atoms: C_5  and  C_1 
ROOT
ATOM      1  C   UNL d   1     -51.087  25.478  33.326  0.00  0.00     0.128 A 
ATOM      2  C   UNL d   1     -50.615  24.769  33.313  0.00  0.00     0.306 A 
ATOM      3  C   UNL d   1     -51.899  25.404  33.331  0.00  0.00     0.013 A 
ATOM      4  O   UNL d   1     -50.989  24.038  33.306  0.00  0.00    -0.273 OA
ATOM      5  C   UNL d   1     -52.270  24.661  33.325  0.00  0.00     0.023 A 
ATOM      6  C   UNL d   1     -51.811  23.972  33.312  0.00  0.00     0.103 A 
ATOM      7  O   UNL d   1     -49.772  24.795  33.306  0.00  0.00    -0.259 OA
ATOM      8  C   UNL d   1     -53.071  24.623  33.331  0.00  0.00     0.002 A 
ATOM      9  C   UNL d   1     -52.161  23.257  33.306  0.00  0.00     0.025 A 
ATOM     10  C   UNL d   1     -53.459  23.898  33.324  0.00  0.00     0.000 A 
ATOM     11  C   UNL d   1     -52.987  23.189  33.311  0.00  0.00     0.002 A 
ENDROOT
BRANCH   1  12
ATOM     12  C   UNL d   1     -50.726  26.185  33.332  0.00  0.00     0.216 C 
ATOM     13  O   UNL d   1     -51.145  26.896  33.370  0.00  0.00    -0.644 OA
ATOM     14  O   UNL d   1     -49.939  26.376  33.306  0.00  0.00    -0.644 OA
ENDBRANCH   1  12
TORSDOF 1
ENDMDL
MODEL 2
REMARK VINA RESULT:       7.8      1.046      2.772
REMARK  1 active torsions:
REMARK  status: ('A' for Active; 'I' for Inactive)
REMARK    1  A    between atoms: C_5  and  C_1 
ROOT
ATOM      1  C   UNL d   1     -51.949  24.469  33.376  0.00  0.00     0.128 A 
ATOM      2  C   UNL d   1     -51.202  24.062  33.337  0.00  0.00     0.306 A 
ATOM      3  C   UNL d   1     -51.949  25.284  33.389  0.00  0.00     0.013 A 
ATOM      4  O   UNL d   1     -50.508  24.500  33.315  0.00  0.00    -0.273 OA
ATOM      5  C   UNL d   1     -51.242  25.720  33.367  0.00  0.00     0.023 A 
ATOM      6  C   UNL d   1     -50.515  25.325  33.329  0.00  0.00     0.103 A 
ATOM      7  O   UNL d   1     -51.153  23.221  33.321  0.00  0.00    -0.259 OA
ATOM      8  C   UNL d   1     -51.276  26.522  33.381  0.00  0.00     0.002 A 
ATOM      9  C   UNL d   1     -49.835  25.738  33.307  0.00  0.00     0.025 A 
ATOM     10  C   UNL d   1     -50.588  26.973  33.359  0.00  0.00     0.000 A 
ATOM     11  C   UNL d   1     -49.840  26.566  33.321  0.00  0.00     0.002 A 
ENDROOT
BRANCH   1  12
ATOM     12  C   UNL d   1     -52.622  24.046  33.398  0.00  0.00     0.216 C 
ATOM     13  O   UNL d   1     -53.366  24.392  33.311  0.00  0.00    -0.644 OA
ATOM     14  O   UNL d   1     -52.741  23.251  33.499  0.00  0.00    -0.644 OA
ENDBRANCH   1  12
TORSDOF 1
ENDMDL
