MODEL 1
REMARK VINA RESULT:      -7.5      0.000      0.000
REMARK  1 active torsions:
REMARK  status: ('A' for Active; 'I' for Inactive)
REMARK    1  A    between atoms: C_4  and  C_2 
ROOT
ATOM      1  C   UNL d   1     -49.325  12.933  22.722  0.00  0.00     0.141 C 
ATOM      2  C   UNL d   1     -49.446  12.935  21.911  0.00  0.00     0.112 C 
ATOM      3  C   UNL d   1     -49.667  13.523  23.201  0.00  0.00     0.112 C 
ATOM      4  N   UNL d   1     -50.015  14.123  23.698  0.00  0.00    -0.191 NA
ATOM      5  N   UNL d   1     -49.576  12.947  21.082  0.00  0.00    -0.191 NA
ENDROOT
BRANCH   1   6
ATOM      6  C   UNL d   1     -48.855  12.333  23.056  0.00  0.00     0.079 A 
ATOM      7  C   UNL d   1     -49.139  11.632  23.329  0.00  0.00     0.281 A 
ATOM      8  N   UNL d   1     -48.513  11.193  23.613  0.00  0.00    -0.208 NA
ATOM      9  O   UNL d   1     -49.947  11.418  23.311  0.00  0.00    -0.265 OA
ATOM     10  C   UNL d   1     -47.839  11.627  23.514  0.00  0.00     0.085 A 
ATOM     11  C   UNL d   1     -47.045  11.466  23.698  0.00  0.00     0.019 A 
ATOM     12  C   UNL d   1     -48.040  12.349  23.163  0.00  0.00     0.024 A 
ATOM     13  C   UNL d   1     -46.477  12.010  23.535  0.00  0.00     0.002 A 
ATOM     14  C   UNL d   1     -46.693  12.737  23.180  0.00  0.00     0.000 A 
ATOM     15  C   UNL d   1     -47.483  12.890  23.000  0.00  0.00     0.002 A 
ENDBRANCH   1   6
TORSDOF 1
ENDMDL
MODEL 2
REMARK VINA RESULT:      -7.2      1.466      2.158
REMARK  1 active torsions:
REMARK  status: ('A' for Active; 'I' for Inactive)
REMARK    1  A    between atoms: C_4  and  C_2 
ROOT
ATOM      1  C   UNL d   1     -48.783  13.725  22.616  0.00  0.00     0.141 C 
ATOM      2  C   UNL d   1     -49.254  14.123  23.154  0.00  0.00     0.112 C 
ATOM      3  C   UNL d   1     -49.070  13.547  21.853  0.00  0.00     0.112 C 
ATOM      4  N   UNL d   1     -49.356  13.362  21.071  0.00  0.00    -0.191 NA
ATOM      5  N   UNL d   1     -49.747  14.531  23.698  0.00  0.00    -0.191 NA
ENDROOT
BRANCH   1   6
ATOM      6  C   UNL d   1     -48.014  13.501  22.844  0.00  0.00     0.079 A 
ATOM      7  C   UNL d   1     -47.374  13.989  22.823  0.00  0.00     0.281 A 
ATOM      8  N   UNL d   1     -46.725  13.573  23.087  0.00  0.00    -0.208 NA
ATOM      9  O   UNL d   1     -47.403  14.784  22.569  0.00  0.00    -0.265 OA
ATOM     10  C   UNL d   1     -46.966  12.824  23.271  0.00  0.00     0.085 A 
ATOM     11  C   UNL d   1     -46.552  12.164  23.562  0.00  0.00     0.019 A 
ATOM     12  C   UNL d   1     -47.778  12.765  23.122  0.00  0.00     0.024 A 
ATOM     13  C   UNL d   1     -46.942  11.475  23.697  0.00  0.00     0.002 A 
ATOM     14  C   UNL d   1     -47.763  11.428  23.543  0.00  0.00     0.000 A 
ATOM     15  C   UNL d   1     -48.167  12.086  23.254  0.00  0.00     0.002 A 
ENDBRANCH   1   6
TORSDOF 1
ENDMDL
MODEL 3
REMARK VINA RESULT:      -7.2      2.134      3.429
REMARK  1 active torsions:
REMARK  status: ('A' for Active; 'I' for Inactive)
REMARK    1  A    between atoms: C_4  and  C_2 
ROOT
ATOM      1  C   UNL d   1     -46.153  12.806  22.724  0.00  0.00     0.141 C 
ATOM      2  C   UNL d   1     -45.489  12.953  22.266  0.00  0.00     0.112 C 
ATOM      3  C   UNL d   1     -46.192  12.126  23.204  0.00  0.00     0.112 C 
ATOM      4  N   UNL d   1     -46.239  11.431  23.698  0.00  0.00    -0.191 NA
ATOM      5  N   UNL d   1     -44.805  13.093  21.801  0.00  0.00    -0.191 NA
ENDROOT
BRANCH   1   6
ATOM      6  C   UNL d   1     -46.784  13.347  22.700  0.00  0.00     0.079 A 
ATOM      7  C   UNL d   1     -46.808  14.036  23.115  0.00  0.00     0.281 A 
ATOM      8  N   UNL d   1     -47.512  14.413  22.948  0.00  0.00    -0.208 NA
ATOM      9  O   UNL d   1     -46.198  14.295  23.624  0.00  0.00    -0.265 OA
ATOM     10  C   UNL d   1     -47.924  13.952  22.426  0.00  0.00     0.085 A 
ATOM     11  C   UNL d   1     -48.666  14.053  22.066  0.00  0.00     0.019 A 
ATOM     12  C   UNL d   1     -47.476  13.277  22.262  0.00  0.00     0.024 A 
ATOM     13  C   UNL d   1     -48.944  13.494  21.560  0.00  0.00     0.002 A 
ATOM     14  C   UNL d   1     -48.482  12.815  21.401  0.00  0.00     0.000 A 
ATOM     15  C   UNL d   1     -47.747  12.723  21.763  0.00  0.00     0.002 A 
ENDBRANCH   1   6
TORSDOF 1
ENDMDL
MODEL 4
REMARK VINA RESULT:      -6.9      1.621      3.127
REMARK  1 active torsions:
REMARK  status: ('A' for Active; 'I' for Inactive)
REMARK    1  A    between atoms: C_4  and  C_2 
ROOT
ATOM      1  C   UNL d   1     -47.682  13.068  22.841  0.00  0.00     0.141 C 
ATOM      2  C   UNL d   1     -47.852  12.386  23.262  0.00  0.00     0.112 C 
ATOM      3  C   UNL d   1     -46.918  13.401  22.869  0.00  0.00     0.112 C 
ATOM      4  N   UNL d   1     -46.138  13.748  22.892  0.00  0.00    -0.191 NA
ATOM      5  N   UNL d   1     -48.015  11.687  23.696  0.00  0.00    -0.191 NA
ENDROOT
BRANCH   1   6
ATOM      6  C   UNL d   1     -48.284  13.421  22.388  0.00  0.00     0.079 A 
ATOM      7  C   UNL d   1     -48.465  13.214  21.632  0.00  0.00     0.281 A 
ATOM      8  N   UNL d   1     -49.082  13.682  21.377  0.00  0.00    -0.208 NA
ATOM      9  O   UNL d   1     -48.068  12.615  21.206  0.00  0.00    -0.265 OA
ATOM     10  C   UNL d   1     -49.282  14.181  21.981  0.00  0.00     0.085 A 
ATOM     11  C   UNL d   1     -49.863  14.772  22.040  0.00  0.00     0.019 A 
ATOM     12  C   UNL d   1     -48.787  14.027  22.625  0.00  0.00     0.024 A 
ATOM     13  C   UNL d   1     -49.940  15.191  22.721  0.00  0.00     0.002 A 
ATOM     14  C   UNL d   1     -49.433  15.027  23.366  0.00  0.00     0.000 A 
ATOM     15  C   UNL d   1     -48.859  14.438  23.299  0.00  0.00     0.002 A 
ENDBRANCH   1   6
TORSDOF 1
ENDMDL
