MODEL 1
REMARK VINA RESULT:      62.6      0.000      0.000
REMARK  6 active torsions:
REMARK  status: ('A' for Active; 'I' for Inactive)
REMARK       I    between atoms: C_2  and  N_1 
REMARK    1  A    between atoms: O_20  and  C_2 
REMARK       I    between atoms: C_5  and  N_3 
REMARK    2  A    between atoms: C_15  and  C_5 
REMARK    3  A    between atoms: C_7  and  S_13 
REMARK    4  A    between atoms: C_18  and  C_8 
REMARK    5  A    between atoms: S_13  and  C_15 
REMARK    6  A    between atoms: C_26  and  O_20 
ROOT
ATOM      1  C   UNL d   1     -50.330  27.521  33.587  0.00  0.00     0.098 C 
ENDROOT
BRANCH   1   2
ATOM      2  S   UNL d   1     -49.773  28.066  33.331  0.00  0.00    -0.061 SA
BRANCH   2   3
ATOM      3  C   UNL d   1     -49.264  28.428  33.870  0.00  0.00     0.133 A 
ATOM      4  N   UNL d   1     -48.602  28.035  34.147  0.00  0.00    -0.141 NA
ATOM      5  N   UNL d   1     -48.093  28.397  34.686  0.00  0.00    -0.148 NA
ATOM      6  C   UNL d   1     -48.250  29.166  34.953  0.00  0.00     0.103 A 
ATOM      7  C   UNL d   1     -48.918  29.566  34.674  0.00  0.00     0.023 A 
ATOM      8  C   UNL d   1     -49.423  29.202  34.136  0.00  0.00     0.029 A 
BRANCH   6   9
ATOM      9  C   UNL d   1     -47.741  29.529  35.492  0.00  0.00     0.022 A 
ATOM     10  C   UNL d   1     -48.049  29.817  36.207  0.00  0.00     0.022 A 
ATOM     11  C   UNL d   1     -47.533  30.178  36.741  0.00  0.00     0.099 A 
ATOM     12  N   UNL d   1     -46.736  30.250  36.568  0.00  0.00    -0.242 NA
ATOM     13  C   UNL d   1     -46.441  29.956  35.847  0.00  0.00     0.099 A 
ATOM     14  C   UNL d   1     -46.949  29.598  35.316  0.00  0.00     0.022 A 
ENDBRANCH   6   9
ENDBRANCH   2   3
ENDBRANCH   1   2
BRANCH   1  15
ATOM     15  C   UNL d   1     -50.208  26.715  33.446  0.00  0.00     0.272 C 
ATOM     16  N   UNL d   1     -50.848  26.198  33.447  0.00  0.00    -0.269 N 
ATOM     17  C   UNL d   1     -50.727  25.401  33.307  0.00  0.00     0.102 A 
ATOM     18  C   UNL d   1     -51.611  26.491  33.589  0.00  0.00     0.102 A 
ATOM     19  C   UNL d   1     -51.366  24.879  33.307  0.00  0.00     0.104 A 
ATOM     20  N   UNL d   1     -52.129  25.168  33.449  0.00  0.00    -0.249 N 
ATOM     21  C   UNL d   1     -52.759  24.644  33.447  0.00  0.00     0.378 C 
ATOM     22  C   UNL d   1     -52.241  25.970  33.588  0.00  0.00     0.104 A 
ATOM     23  O   UNL d   1     -53.521  24.932  33.589  0.00  0.00    -0.237 OA
ATOM     24  O   UNL d   1     -49.458  26.429  33.306  0.00  0.00    -0.266 OA
BRANCH  21  25
ATOM     25  O   UNL d   1     -52.637  23.843  33.307  0.00  0.00    -0.257 OA
BRANCH  25  26
ATOM     26  C   UNL d   1     -53.061  23.282  33.723  0.00  0.00     0.128 C 
ATOM     27  C   UNL d   1     -53.864  23.203  33.608  0.00  0.00     0.029 C 
ENDBRANCH  25  26
ENDBRANCH  21  25
ENDBRANCH   1  15
TORSDOF 6
ENDMDL
MODEL 2
REMARK VINA RESULT:      63.0      2.047      6.543
REMARK  6 active torsions:
REMARK  status: ('A' for Active; 'I' for Inactive)
REMARK       I    between atoms: C_2  and  N_1 
REMARK    1  A    between atoms: O_20  and  C_2 
REMARK       I    between atoms: C_5  and  N_3 
REMARK    2  A    between atoms: C_15  and  C_5 
REMARK    3  A    between atoms: C_7  and  S_13 
REMARK    4  A    between atoms: C_18  and  C_8 
REMARK    5  A    between atoms: S_13  and  C_15 
REMARK    6  A    between atoms: C_26  and  O_20 
ROOT
ATOM      1  C   UNL d   1     -49.255  27.839  34.598  0.00  0.00     0.098 C 
ENDROOT
BRANCH   1   2
ATOM      2  S   UNL d   1     -49.252  27.386  33.913  0.00  0.00    -0.061 SA
BRANCH   2   3
ATOM      3  C   UNL d   1     -49.799  26.777  33.814  0.00  0.00     0.133 A 
ATOM      4  N   UNL d   1     -49.593  26.001  33.974  0.00  0.00    -0.141 NA
ATOM      5  N   UNL d   1     -50.140  25.392  33.875  0.00  0.00    -0.148 NA
ATOM      6  C   UNL d   1     -50.908  25.561  33.610  0.00  0.00     0.103 A 
ATOM      7  C   UNL d   1     -51.119  26.344  33.447  0.00  0.00     0.023 A 
ATOM      8  C   UNL d   1     -50.570  26.950  33.547  0.00  0.00     0.029 A 
BRANCH   6   9
ATOM      9  C   UNL d   1     -51.455  24.952  33.510  0.00  0.00     0.022 A 
ATOM     10  C   UNL d   1     -51.187  24.166  33.503  0.00  0.00     0.022 A 
ATOM     11  C   UNL d   1     -51.742  23.563  33.402  0.00  0.00     0.099 A 
ATOM     12  N   UNL d   1     -52.537  23.736  33.313  0.00  0.00    -0.242 NA
ATOM     13  C   UNL d   1     -52.791  24.529  33.323  0.00  0.00     0.099 A 
ATOM     14  C   UNL d   1     -52.244  25.130  33.422  0.00  0.00     0.022 A 
ENDBRANCH   6   9
ENDBRANCH   2   3
ENDBRANCH   1   2
BRANCH   1  15
ATOM     15  C   UNL d   1     -48.539  28.113  34.909  0.00  0.00     0.272 C 
ATOM     16  N   UNL d   1     -48.342  28.909  34.842  0.00  0.00    -0.269 N 
ATOM     17  C   UNL d   1     -47.634  29.179  35.150  0.00  0.00     0.102 A 
ATOM     18  C   UNL d   1     -48.863  29.430  34.462  0.00  0.00     0.102 A 
ATOM     19  C   UNL d   1     -47.432  29.977  35.085  0.00  0.00     0.104 A 
ATOM     20  N   UNL d   1     -47.950  30.499  34.707  0.00  0.00    -0.249 N 
ATOM     21  C   UNL d   1     -47.743  31.290  34.646  0.00  0.00     0.378 C 
ATOM     22  C   UNL d   1     -48.660  30.219  34.400  0.00  0.00     0.104 A 
ATOM     23  O   UNL d   1     -48.261  31.812  34.268  0.00  0.00    -0.237 OA
ATOM     24  O   UNL d   1     -48.028  27.600  35.281  0.00  0.00    -0.266 OA
BRANCH  21  25
ATOM     25  O   UNL d   1     -47.032  31.562  34.955  0.00  0.00    -0.257 OA
BRANCH  25  26
ATOM     26  C   UNL d   1     -46.940  32.350  35.149  0.00  0.00     0.128 C 
ATOM     27  C   UNL d   1     -46.210  32.707  35.089  0.00  0.00     0.029 C 
ENDBRANCH  25  26
ENDBRANCH  21  25
ENDBRANCH   1  15
TORSDOF 6
ENDMDL
MODEL 3
REMARK VINA RESULT:      64.6      1.895      2.192
REMARK  6 active torsions:
REMARK  status: ('A' for Active; 'I' for Inactive)
REMARK       I    between atoms: C_2  and  N_1 
REMARK    1  A    between atoms: O_20  and  C_2 
REMARK       I    between atoms: C_5  and  N_3 
REMARK    2  A    between atoms: C_15  and  C_5 
REMARK    3  A    between atoms: C_7  and  S_13 
REMARK    4  A    between atoms: C_18  and  C_8 
REMARK    5  A    between atoms: S_13  and  C_15 
REMARK    6  A    between atoms: C_26  and  O_20 
ROOT
ATOM      1  C   UNL d   1     -49.206  28.204  34.654  0.00  0.00     0.098 C 
ENDROOT
BRANCH   1   2
ATOM      2  S   UNL d   1     -48.597  28.615  35.019  0.00  0.00    -0.061 SA
BRANCH   2   3
ATOM      3  C   UNL d   1     -48.458  29.407  34.834  0.00  0.00     0.133 A 
ATOM      4  N   UNL d   1     -48.839  29.760  34.201  0.00  0.00    -0.141 NA
ATOM      5  N   UNL d   1     -48.700  30.552  34.016  0.00  0.00    -0.148 NA
ATOM      6  C   UNL d   1     -48.172  30.999  34.473  0.00  0.00     0.103 A 
ATOM      7  C   UNL d   1     -47.786  30.645  35.113  0.00  0.00     0.023 A 
ATOM      8  C   UNL d   1     -47.927  29.855  35.295  0.00  0.00     0.029 A 
BRANCH   6   9
ATOM      9  C   UNL d   1     -48.033  31.791  34.288  0.00  0.00     0.022 A 
ATOM     10  C   UNL d   1     -48.677  32.312  34.236  0.00  0.00     0.022 A 
ATOM     11  C   UNL d   1     -48.529  33.103  34.050  0.00  0.00     0.099 A 
ATOM     12  N   UNL d   1     -47.765  33.366  33.921  0.00  0.00    -0.242 NA
ATOM     13  C   UNL d   1     -47.129  32.832  33.976  0.00  0.00     0.099 A 
ATOM     14  C   UNL d   1     -47.271  32.047  34.160  0.00  0.00     0.022 A 
ENDBRANCH   6   9
ENDBRANCH   2   3
ENDBRANCH   1   2
BRANCH   1  15
ATOM     15  C   UNL d   1     -49.059  27.455  34.335  0.00  0.00     0.272 C 
ATOM     16  N   UNL d   1     -49.689  26.955  34.158  0.00  0.00    -0.269 N 
ATOM     17  C   UNL d   1     -49.543  26.214  33.843  0.00  0.00     0.102 A 
ATOM     18  C   UNL d   1     -50.465  27.208  34.302  0.00  0.00     0.102 A 
ATOM     19  C   UNL d   1     -50.172  25.710  33.665  0.00  0.00     0.104 A 
ATOM     20  N   UNL d   1     -50.948  25.959  33.806  0.00  0.00    -0.249 N 
ATOM     21  C   UNL d   1     -51.567  25.452  33.627  0.00  0.00     0.378 C 
ATOM     22  C   UNL d   1     -51.085  26.705  34.123  0.00  0.00     0.104 A 
ATOM     23  O   UNL d   1     -52.343  25.701  33.769  0.00  0.00    -0.237 OA
ATOM     24  O   UNL d   1     -48.296  27.208  34.195  0.00  0.00    -0.266 OA
BRANCH  21  25
ATOM     25  O   UNL d   1     -51.421  24.708  33.310  0.00  0.00    -0.257 OA
BRANCH  25  26
ATOM     26  C   UNL d   1     -51.881  24.069  33.527  0.00  0.00     0.128 C 
ATOM     27  C   UNL d   1     -52.673  24.047  33.334  0.00  0.00     0.029 C 
ENDBRANCH  25  26
ENDBRANCH  21  25
ENDBRANCH   1  15
TORSDOF 6
ENDMDL
