MODEL 1
REMARK VINA RESULT:      -3.9      0.000      0.000
REMARK  2 active torsions:
REMARK  status: ('A' for Active; 'I' for Inactive)
REMARK    1  A    between atoms: C_8  and  N_1 
REMARK    2  A    between atoms: C_12  and  C_8 
ROOT
ATOM      1  N   UNL d   1      57.861   0.672  31.098  0.00  0.00    -0.238 N 
ATOM      2  C   UNL d   1      57.829   0.666  30.425  0.00  0.00     0.267 A 
ATOM      3  C   UNL d   1      58.518   0.674  31.527  0.00  0.00     0.267 A 
ATOM      4  C   UNL d   1      59.293   0.670  31.240  0.00  0.00     0.057 A 
ATOM      5  C   UNL d   1      58.371   0.659  29.834  0.00  0.00     0.057 A 
ATOM      6  C   UNL d   1      59.533   0.661  30.443  0.00  0.00     0.005 A 
ATOM      7  C   UNL d   1      59.065   0.657  29.825  0.00  0.00     0.005 A 
ATOM      8  O   UNL d   1      57.000   0.666  30.134  0.00  0.00    -0.267 OA
ATOM      9  O   UNL d   1      58.437   0.682  32.306  0.00  0.00    -0.267 OA
ATOM     10  C   UNL d   1      58.011   0.655  29.250  0.00  0.00     0.005 A 
ATOM     11  C   UNL d   1      59.846   0.674  31.854  0.00  0.00     0.005 A 
ATOM     12  C   UNL d   1      60.337   0.657  30.272  0.00  0.00     0.000 A 
ATOM     13  C   UNL d   1      59.400   0.650  29.213  0.00  0.00     0.000 A 
ATOM     14  C   UNL d   1      60.655   0.670  31.671  0.00  0.00     0.000 A 
ATOM     15  C   UNL d   1      60.898   0.662  30.878  0.00  0.00     0.000 A 
ATOM     16  C   UNL d   1      59.034   0.646  28.624  0.00  0.00     0.000 A 
ATOM     17  C   UNL d   1      58.344   0.648  28.640  0.00  0.00     0.000 A 
ENDROOT
BRANCH   1  18
ATOM     18  C   UNL d   1      57.093   0.679  31.543  0.00  0.00     0.111 C 
BRANCH  18  19
ATOM     19  C   UNL d   1      56.787  -0.066  31.901  0.00  0.00     0.118 A 
ATOM     20  O   UNL d   1      56.844  -0.871  31.545  0.00  0.00    -0.304 OA
ATOM     21  C   UNL d   1      56.464  -1.440  32.099  0.00  0.00     0.123 A 
ATOM     22  C   UNL d   1      56.171  -0.987  32.800  0.00  0.00     0.029 A 
ATOM     23  C   UNL d   1      56.372  -0.138  32.673  0.00  0.00     0.028 A 
ENDBRANCH  18  19
ENDBRANCH   1  18
TORSDOF 2
ENDMDL
MODEL 2
REMARK VINA RESULT:      -3.9      9.710     10.546
REMARK  2 active torsions:
REMARK  status: ('A' for Active; 'I' for Inactive)
REMARK    1  A    between atoms: C_8  and  N_1 
REMARK    2  A    between atoms: C_12  and  C_8 
ROOT
ATOM      1  N   UNL d   1      59.680  -9.742  33.889  0.00  0.00    -0.238 N 
ATOM      2  C   UNL d   1      60.191  -9.753  33.450  0.00  0.00     0.267 A 
ATOM      3  C   UNL d   1      58.917  -9.750  33.707  0.00  0.00     0.267 A 
ATOM      4  C   UNL d   1      58.593  -9.773  32.947  0.00  0.00     0.057 A 
ATOM      5  C   UNL d   1      60.248  -9.776  32.651  0.00  0.00     0.057 A 
ATOM      6  C   UNL d   1      59.007  -9.792  32.225  0.00  0.00     0.005 A 
ATOM      7  C   UNL d   1      59.777  -9.792  32.141  0.00  0.00     0.005 A 
ATOM      8  O   UNL d   1      60.973  -9.739  33.852  0.00  0.00    -0.267 OA
ATOM      9  O   UNL d   1      58.406  -9.735  34.301  0.00  0.00    -0.267 OA
ATOM     10  C   UNL d   1      60.919  -9.778  32.510  0.00  0.00     0.005 A 
ATOM     11  C   UNL d   1      57.767  -9.775  32.967  0.00  0.00     0.005 A 
ATOM     12  C   UNL d   1      58.578  -9.814  31.524  0.00  0.00     0.000 A 
ATOM     13  C   UNL d   1      59.991  -9.811  31.476  0.00  0.00     0.000 A 
ATOM     14  C   UNL d   1      57.344  -9.797  32.254  0.00  0.00     0.000 A 
ATOM     15  C   UNL d   1      57.753  -9.816  31.533  0.00  0.00     0.000 A 
ATOM     16  C   UNL d   1      60.671  -9.812  31.338  0.00  0.00     0.000 A 
ATOM     17  C   UNL d   1      61.133  -9.796  31.850  0.00  0.00     0.000 A 
ENDROOT
BRANCH   1  18
ATOM     18  C   UNL d   1      59.885  -9.717  34.752  0.00  0.00     0.111 C 
BRANCH  18  19
ATOM     19  C   UNL d   1      59.839  -8.955  35.192  0.00  0.00     0.118 A 
ATOM     20  O   UNL d   1      60.273  -8.215  34.986  0.00  0.00    -0.304 OA
ATOM     21  C   UNL d   1      60.056  -7.600  35.580  0.00  0.00     0.123 A 
ATOM     22  C   UNL d   1      59.488  -7.961  36.153  0.00  0.00     0.029 A 
ATOM     23  C   UNL d   1      59.357  -8.798  35.910  0.00  0.00     0.028 A 
ENDBRANCH  18  19
ENDBRANCH   1  18
TORSDOF 2
ENDMDL
MODEL 3
REMARK VINA RESULT:      -3.6      9.719     10.510
REMARK  2 active torsions:
REMARK  status: ('A' for Active; 'I' for Inactive)
REMARK    1  A    between atoms: C_8  and  N_1 
REMARK    2  A    between atoms: C_12  and  C_8 
ROOT
ATOM      1  N   UNL d   1      59.784  -9.757  33.823  0.00  0.00    -0.238 N 
ATOM      2  C   UNL d   1      59.130  -9.768  33.662  0.00  0.00     0.267 A 
ATOM      3  C   UNL d   1      60.383  -9.760  33.317  0.00  0.00     0.267 A 
ATOM      4  C   UNL d   1      60.330  -9.777  32.492  0.00  0.00     0.057 A 
ATOM      5  C   UNL d   1      58.719  -9.787  32.974  0.00  0.00     0.057 A 
ATOM      6  C   UNL d   1      59.635  -9.794  32.035  0.00  0.00     0.005 A 
ATOM      7  C   UNL d   1      58.909  -9.798  32.306  0.00  0.00     0.005 A 
ATOM      8  O   UNL d   1      58.613  -9.760  34.373  0.00  0.00    -0.267 OA
ATOM      9  O   UNL d   1      61.107  -9.745  33.617  0.00  0.00    -0.267 OA
ATOM     10  C   UNL d   1      58.056  -9.791  33.151  0.00  0.00     0.005 A 
ATOM     11  C   UNL d   1      61.077  -9.775  32.138  0.00  0.00     0.005 A 
ATOM     12  C   UNL d   1      59.702  -9.810  31.215  0.00  0.00     0.000 A 
ATOM     13  C   UNL d   1      58.419  -9.814  31.809  0.00  0.00     0.000 A 
ATOM     14  C   UNL d   1      61.133  -9.791  31.311  0.00  0.00     0.000 A 
ATOM     15  C   UNL d   1      60.443  -9.808  30.852  0.00  0.00     0.000 A 
ATOM     16  C   UNL d   1      57.750  -9.818  31.992  0.00  0.00     0.000 A 
ATOM     17  C   UNL d   1      57.568  -9.807  32.658  0.00  0.00     0.000 A 
ENDROOT
BRANCH   1  18
ATOM     18  C   UNL d   1      59.990  -9.737  34.687  0.00  0.00     0.111 C 
BRANCH  18  19
ATOM     19  C   UNL d   1      60.168  -8.968  35.078  0.00  0.00     0.118 A 
ATOM     20  O   UNL d   1      59.619  -8.280  35.136  0.00  0.00    -0.304 OA
ATOM     21  C   UNL d   1      60.035  -7.638  35.573  0.00  0.00     0.123 A 
ATOM     22  C   UNL d   1      60.843  -7.929  35.786  0.00  0.00     0.029 A 
ATOM     23  C   UNL d   1      60.920  -8.751  35.478  0.00  0.00     0.028 A 
ENDBRANCH  18  19
ENDBRANCH   1  18
TORSDOF 2
ENDMDL
MODEL 4
REMARK VINA RESULT:      -3.5      1.954      2.576
REMARK  2 active torsions:
REMARK  status: ('A' for Active; 'I' for Inactive)
REMARK    1  A    between atoms: C_8  and  N_1 
REMARK    2  A    between atoms: C_12  and  C_8 
ROOT
ATOM      1  N   UNL d   1      58.465  -0.544  29.727  0.00  0.00    -0.238 N 
ATOM      2  C   UNL d   1      59.005  -0.143  29.715  0.00  0.00     0.267 A 
ATOM      3  C   UNL d   1      58.454  -1.308  29.548  0.00  0.00     0.267 A 
ATOM      4  C   UNL d   1      59.101  -1.767  29.312  0.00  0.00     0.057 A 
ATOM      5  C   UNL d   1      59.781  -0.246  29.538  0.00  0.00     0.057 A 
ATOM      6  C   UNL d   1      59.887  -1.513  29.218  0.00  0.00     0.005 A 
ATOM      7  C   UNL d   1      60.153  -0.795  29.335  0.00  0.00     0.005 A 
ATOM      8  O   UNL d   1      58.811   0.682  29.948  0.00  0.00    -0.267 OA
ATOM      9  O   UNL d   1      57.766  -1.679  29.596  0.00  0.00    -0.267 OA
ATOM     10  C   UNL d   1      60.076   0.368  29.625  0.00  0.00     0.005 A 
ATOM     11  C   UNL d   1      58.883  -2.551  29.170  0.00  0.00     0.005 A 
ATOM     12  C   UNL d   1      60.452  -2.061  28.977  0.00  0.00     0.000 A 
ATOM     13  C   UNL d   1      60.838  -0.721  29.218  0.00  0.00     0.000 A 
ATOM     14  C   UNL d   1      59.460  -3.094  28.928  0.00  0.00     0.000 A 
ATOM     15  C   UNL d   1      60.245  -2.846  28.832  0.00  0.00     0.000 A 
ATOM     16  C   UNL d   1      61.133  -0.100  29.307  0.00  0.00     0.000 A 
ATOM     17  C   UNL d   1      60.757   0.442  29.509  0.00  0.00     0.000 A 
ENDROOT
BRANCH   1  18
ATOM     18  C   UNL d   1      57.691  -0.179  29.965  0.00  0.00     0.111 C 
BRANCH  18  19
ATOM     19  C   UNL d   1      57.404  -0.261  30.794  0.00  0.00     0.118 A 
ATOM     20  O   UNL d   1      57.048  -0.987  31.146  0.00  0.00    -0.304 OA
ATOM     21  C   UNL d   1      56.845  -0.809  31.985  0.00  0.00     0.123 A 
ATOM     22  C   UNL d   1      57.076   0.027  32.152  0.00  0.00     0.029 A 
ATOM     23  C   UNL d   1      57.421   0.362  31.414  0.00  0.00     0.028 A 
ENDBRANCH  18  19
ENDBRANCH   1  18
TORSDOF 2
ENDMDL
MODEL 5
REMARK VINA RESULT:      -3.4      0.277      2.031
REMARK  2 active torsions:
REMARK  status: ('A' for Active; 'I' for Inactive)
REMARK    1  A    between atoms: C_8  and  N_1 
REMARK    2  A    between atoms: C_12  and  C_8 
ROOT
ATOM      1  N   UNL d   1      57.778   0.681  31.314  0.00  0.00    -0.238 N 
ATOM      2  C   UNL d   1      58.373   0.681  31.629  0.00  0.00     0.267 A 
ATOM      3  C   UNL d   1      57.668   0.680  30.537  0.00  0.00     0.267 A 
ATOM      4  C   UNL d   1      58.257   0.680  29.957  0.00  0.00     0.057 A 
ATOM      5  C   UNL d   1      59.139   0.681  31.389  0.00  0.00     0.057 A 
ATOM      6  C   UNL d   1      59.080   0.680  30.078  0.00  0.00     0.005 A 
ATOM      7  C   UNL d   1      59.441   0.681  30.765  0.00  0.00     0.005 A 
ATOM      8  O   UNL d   1      58.286   0.682  32.504  0.00  0.00    -0.267 OA
ATOM      9  O   UNL d   1      56.928   0.680  30.280  0.00  0.00    -0.267 OA
ATOM     10  C   UNL d   1      59.515   0.682  31.963  0.00  0.00     0.005 A 
ATOM     11  C   UNL d   1      57.936   0.679  29.196  0.00  0.00     0.005 A 
ATOM     12  C   UNL d   1      59.576   0.680  29.422  0.00  0.00     0.000 A 
ATOM     13  C   UNL d   1      60.138   0.681  30.720  0.00  0.00     0.000 A 
ATOM     14  C   UNL d   1      58.445   0.679  28.541  0.00  0.00     0.000 A 
ATOM     15  C   UNL d   1      59.266   0.679  28.658  0.00  0.00     0.000 A 
ATOM     16  C   UNL d   1      60.516   0.681  31.302  0.00  0.00     0.000 A 
ATOM     17  C   UNL d   1      60.208   0.682  31.920  0.00  0.00     0.000 A 
ENDROOT
BRANCH   1  18
ATOM     18  C   UNL d   1      57.049   0.681  31.821  0.00  0.00     0.111 C 
BRANCH  18  19
ATOM     19  C   UNL d   1      56.718  -0.081  32.114  0.00  0.00     0.118 A 
ATOM     20  O   UNL d   1      56.687  -0.837  31.660  0.00  0.00    -0.304 OA
ATOM     21  C   UNL d   1      56.309  -1.446  32.174  0.00  0.00     0.123 A 
ATOM     22  C   UNL d   1      56.106  -1.065  32.946  0.00  0.00     0.029 A 
ATOM     23  C   UNL d   1      56.360  -0.222  32.904  0.00  0.00     0.028 A 
ENDBRANCH  18  19
ENDBRANCH   1  18
TORSDOF 2
ENDMDL
MODEL 6
REMARK VINA RESULT:      -2.6      2.447      3.383
REMARK  2 active torsions:
REMARK  status: ('A' for Active; 'I' for Inactive)
REMARK    1  A    between atoms: C_8  and  N_1 
REMARK    2  A    between atoms: C_12  and  C_8 
ROOT
ATOM      1  N   UNL d   1      59.114  -1.124  29.065  0.00  0.00    -0.238 N 
ATOM      2  C   UNL d   1      59.720  -0.834  29.099  0.00  0.00     0.267 A 
ATOM      3  C   UNL d   1      58.495  -0.952  29.515  0.00  0.00     0.267 A 
ATOM      4  C   UNL d   1      58.467  -0.385  30.117  0.00  0.00     0.057 A 
ATOM      5  C   UNL d   1      60.046  -0.259  29.554  0.00  0.00     0.057 A 
ATOM      6  C   UNL d   1      59.085   0.115  30.364  0.00  0.00     0.005 A 
ATOM      7  C   UNL d   1      59.802   0.135  30.070  0.00  0.00     0.005 A 
ATOM      8  O   UNL d   1      60.280  -1.166  28.509  0.00  0.00    -0.267 OA
ATOM      9  O   UNL d   1      57.835  -1.354  29.388  0.00  0.00    -0.267 OA
ATOM     10  C   UNL d   1      60.694  -0.194  29.337  0.00  0.00     0.005 A 
ATOM     11  C   UNL d   1      57.723  -0.355  30.474  0.00  0.00     0.005 A 
ATOM     12  C   UNL d   1      58.943   0.645  30.977  0.00  0.00     0.000 A 
ATOM     13  C   UNL d   1      60.221   0.604  30.373  0.00  0.00     0.000 A 
ATOM     14  C   UNL d   1      57.590   0.183  31.091  0.00  0.00     0.000 A 
ATOM     15  C   UNL d   1      58.203   0.682  31.340  0.00  0.00     0.000 A 
ATOM     16  C   UNL d   1      60.876   0.667  30.152  0.00  0.00     0.000 A 
ATOM     17  C   UNL d   1      61.112   0.272  29.638  0.00  0.00     0.000 A 
ENDROOT
BRANCH   1  18
ATOM     18  C   UNL d   1      59.000  -1.759  28.455  0.00  0.00     0.111 C 
BRANCH  18  19
ATOM     19  C   UNL d   1      59.136  -2.603  28.669  0.00  0.00     0.118 A 
ATOM     20  O   UNL d   1      59.860  -2.926  29.057  0.00  0.00    -0.304 OA
ATOM     21  C   UNL d   1      59.747  -3.793  29.162  0.00  0.00     0.123 A 
ATOM     22  C   UNL d   1      58.952  -4.008  28.839  0.00  0.00     0.029 A 
ATOM     23  C   UNL d   1      58.578  -3.269  28.535  0.00  0.00     0.028 A 
ENDBRANCH  18  19
ENDBRANCH   1  18
TORSDOF 2
ENDMDL
MODEL 7
REMARK VINA RESULT:      -2.4      1.712      3.810
REMARK  2 active torsions:
REMARK  status: ('A' for Active; 'I' for Inactive)
REMARK    1  A    between atoms: C_8  and  N_1 
REMARK    2  A    between atoms: C_12  and  C_8 
ROOT
ATOM      1  N   UNL d   1      56.977   0.679  32.226  0.00  0.00    -0.238 N 
ATOM      2  C   UNL d   1      56.323   0.679  32.388  0.00  0.00     0.267 A 
ATOM      3  C   UNL d   1      57.577   0.679  32.732  0.00  0.00     0.267 A 
ATOM      4  C   UNL d   1      57.524   0.679  33.557  0.00  0.00     0.057 A 
ATOM      5  C   UNL d   1      55.912   0.679  33.076  0.00  0.00     0.057 A 
ATOM      6  C   UNL d   1      56.829   0.679  34.015  0.00  0.00     0.005 A 
ATOM      7  C   UNL d   1      56.103   0.679  33.744  0.00  0.00     0.005 A 
ATOM      8  O   UNL d   1      55.806   0.679  31.677  0.00  0.00    -0.267 OA
ATOM      9  O   UNL d   1      58.300   0.679  32.431  0.00  0.00    -0.267 OA
ATOM     10  C   UNL d   1      55.249   0.679  32.899  0.00  0.00     0.005 A 
ATOM     11  C   UNL d   1      58.270   0.679  33.911  0.00  0.00     0.005 A 
ATOM     12  C   UNL d   1      56.896   0.679  34.835  0.00  0.00     0.000 A 
ATOM     13  C   UNL d   1      55.612   0.679  34.241  0.00  0.00     0.000 A 
ATOM     14  C   UNL d   1      58.327   0.679  34.738  0.00  0.00     0.000 A 
ATOM     15  C   UNL d   1      57.637   0.679  35.198  0.00  0.00     0.000 A 
ATOM     16  C   UNL d   1      54.943   0.679  34.059  0.00  0.00     0.000 A 
ATOM     17  C   UNL d   1      54.761   0.679  33.393  0.00  0.00     0.000 A 
ENDROOT
BRANCH   1  18
ATOM     18  C   UNL d   1      57.183   0.679  31.362  0.00  0.00     0.111 C 
BRANCH  18  19
ATOM     19  C   UNL d   1      57.472  -0.060  30.980  0.00  0.00     0.118 A 
ATOM     20  O   UNL d   1      57.183  -0.876  31.150  0.00  0.00    -0.304 OA
ATOM     21  C   UNL d   1      57.632  -1.435  30.638  0.00  0.00     0.123 A 
ATOM     22  C   UNL d   1      58.199  -0.965  30.150  0.00  0.00     0.029 A 
ATOM     23  C   UNL d   1      58.097  -0.116  30.364  0.00  0.00     0.028 A 
ENDBRANCH  18  19
ENDBRANCH   1  18
TORSDOF 2
ENDMDL
MODEL 8
REMARK VINA RESULT:      -1.3      2.222      3.018
REMARK  2 active torsions:
REMARK  status: ('A' for Active; 'I' for Inactive)
REMARK    1  A    between atoms: C_8  and  N_1 
REMARK    2  A    between atoms: C_12  and  C_8 
ROOT
ATOM      1  N   UNL d   1      59.027  -0.881  29.149  0.00  0.00    -0.238 N 
ATOM      2  C   UNL d   1      58.465  -0.629  29.421  0.00  0.00     0.267 A 
ATOM      3  C   UNL d   1      59.760  -0.732  29.386  0.00  0.00     0.267 A 
ATOM      4  C   UNL d   1      59.984  -0.241  30.012  0.00  0.00     0.057 A 
ATOM      5  C   UNL d   1      58.306  -0.131  30.029  0.00  0.00     0.057 A 
ATOM      6  C   UNL d   1      59.482   0.192  30.515  0.00  0.00     0.005 A 
ATOM      7  C   UNL d   1      58.708   0.210  30.482  0.00  0.00     0.005 A 
ATOM      8  O   UNL d   1      57.741  -0.916  29.013  0.00  0.00    -0.267 OA
ATOM      9  O   UNL d   1      60.342  -1.081  28.993  0.00  0.00    -0.267 OA
ATOM     10  C   UNL d   1      57.623  -0.074  30.052  0.00  0.00     0.005 A 
ATOM     11  C   UNL d   1      60.805  -0.217  30.101  0.00  0.00     0.005 A 
ATOM     12  C   UNL d   1      59.818   0.650  31.109  0.00  0.00     0.000 A 
ATOM     13  C   UNL d   1      58.411   0.616  30.966  0.00  0.00     0.000 A 
ATOM     14  C   UNL d   1      61.133   0.249  30.704  0.00  0.00     0.000 A 
ATOM     15  C   UNL d   1      60.636   0.682  31.207  0.00  0.00     0.000 A 
ATOM     16  C   UNL d   1      57.720   0.672  30.986  0.00  0.00     0.000 A 
ATOM     17  C   UNL d   1      57.327   0.330  30.533  0.00  0.00     0.000 A 
ENDROOT
BRANCH   1  18
ATOM     18  C   UNL d   1      58.934  -1.431  28.458  0.00  0.00     0.111 C 
BRANCH  18  19
ATOM     19  C   UNL d   1      58.939  -2.302  28.587  0.00  0.00     0.118 A 
ATOM     20  O   UNL d   1      58.228  -2.809  28.712  0.00  0.00    -0.304 OA
ATOM     21  C   UNL d   1      58.503  -3.640  28.816  0.00  0.00     0.123 A 
ATOM     22  C   UNL d   1      59.385  -3.647  28.755  0.00  0.00     0.029 A 
ATOM     23  C   UNL d   1      59.650  -2.819  28.614  0.00  0.00     0.028 A 
ENDBRANCH  18  19
ENDBRANCH   1  18
TORSDOF 2
ENDMDL
MODEL 9
REMARK VINA RESULT:      -1.1      1.393      3.815
REMARK  2 active torsions:
REMARK  status: ('A' for Active; 'I' for Inactive)
REMARK    1  A    between atoms: C_8  and  N_1 
REMARK    2  A    between atoms: C_12  and  C_8 
ROOT
ATOM      1  N   UNL d   1      57.417   0.411  31.583  0.00  0.00    -0.238 N 
ATOM      2  C   UNL d   1      57.905   0.509  32.036  0.00  0.00     0.267 A 
ATOM      3  C   UNL d   1      56.665   0.252  31.742  0.00  0.00     0.267 A 
ATOM      4  C   UNL d   1      56.327   0.175  32.493  0.00  0.00     0.057 A 
ATOM      5  C   UNL d   1      57.939   0.509  32.838  0.00  0.00     0.057 A 
ATOM      6  C   UNL d   1      56.713   0.249  33.226  0.00  0.00     0.005 A 
ATOM      7  C   UNL d   1      57.464   0.405  33.334  0.00  0.00     0.005 A 
ATOM      8  O   UNL d   1      58.680   0.674  31.658  0.00  0.00    -0.267 OA
ATOM      9  O   UNL d   1      56.181   0.157  31.133  0.00  0.00    -0.267 OA
ATOM     10  C   UNL d   1      58.592   0.644  32.998  0.00  0.00     0.005 A 
ATOM     11  C   UNL d   1      55.519   0.007  32.448  0.00  0.00     0.005 A 
ATOM     12  C   UNL d   1      56.274   0.151  33.915  0.00  0.00     0.000 A 
ATOM     13  C   UNL d   1      57.656   0.440  34.004  0.00  0.00     0.000 A 
ATOM     14  C   UNL d   1      55.086  -0.090  33.148  0.00  0.00     0.000 A 
ATOM     15  C   UNL d   1      55.467  -0.017  33.881  0.00  0.00     0.000 A 
ATOM     16  C   UNL d   1      58.317   0.576  34.163  0.00  0.00     0.000 A 
ATOM     17  C   UNL d   1      58.783   0.678  33.664  0.00  0.00     0.000 A 
ENDROOT
BRANCH   1  18
ATOM     18  C   UNL d   1      57.641   0.465  30.725  0.00  0.00     0.111 C 
BRANCH  18  19
ATOM     19  C   UNL d   1      57.955  -0.244  30.308  0.00  0.00     0.118 A 
ATOM     20  O   UNL d   1      57.608  -1.054  30.336  0.00  0.00    -0.304 OA
ATOM     21  C   UNL d   1      58.108  -1.581  29.836  0.00  0.00     0.123 A 
ATOM     22  C   UNL d   1      58.765  -1.095  29.498  0.00  0.00     0.029 A 
ATOM     23  C   UNL d   1      58.667  -0.270  29.792  0.00  0.00     0.028 A 
ENDBRANCH  18  19
ENDBRANCH   1  18
TORSDOF 2
ENDMDL
