MODEL 1
REMARK VINA RESULT:      64.8      0.000      0.000
REMARK  4 active torsions:
REMARK  status: ('A' for Active; 'I' for Inactive)
REMARK    1  A    between atoms: N_5  and  C_1 
REMARK    2  A    between atoms: N_8  and  C_3 
REMARK    3  A    between atoms: C_19  and  N_8 
REMARK    4  A    between atoms: C_21  and  C_19 
ROOT
ATOM      1  C   UNL d   1      60.190  49.479  52.051  0.00  0.00     0.200 A 
ATOM      2  C   UNL d   1      61.004  49.353  52.070  0.00  0.00     0.288 A 
ATOM      3  C   UNL d   1      59.794  49.583  51.325  0.00  0.00     0.109 A 
ATOM      4  N   UNL d   1      61.432  49.332  51.359  0.00  0.00    -0.270 N 
ATOM      5  C   UNL d   1      60.230  49.560  50.618  0.00  0.00     0.036 A 
ATOM      6  C   UNL d   1      61.046  49.434  50.636  0.00  0.00     0.069 A 
ATOM      7  O   UNL d   1      61.389  49.251  52.792  0.00  0.00    -0.265 OA
ATOM      8  C   UNL d   1      62.245  49.207  51.377  0.00  0.00     0.102 C 
ATOM      9  C   UNL d   1      59.844  49.662  49.896  0.00  0.00     0.003 A 
ATOM     10  C   UNL d   1      61.475  49.412  49.933  0.00  0.00     0.018 A 
ATOM     11  C   UNL d   1      60.276  49.639  49.192  0.00  0.00     0.000 A 
ATOM     12  C   UNL d   1      61.090  49.514  49.211  0.00  0.00     0.002 A 
ENDROOT
BRANCH   3  13
ATOM     13  N   UNL d   1      58.981  49.708  51.305  0.00  0.00    -0.242 NA
BRANCH  13  14
ATOM     14  C   UNL d   1      58.463  49.091  51.485  0.00  0.00     0.099 C 
BRANCH  14  15
ATOM     15  C   UNL d   1      57.855  48.899  50.963  0.00  0.00     0.021 A 
ATOM     16  C   UNL d   1      57.596  49.453  50.413  0.00  0.00     0.028 A 
ATOM     17  C   UNL d   1      56.988  49.260  49.892  0.00  0.00     0.119 A 
ATOM     18  O   UNL d   1      56.620  49.684  49.297  0.00  0.00    -0.300 OA
ATOM     19  C   UNL d   1      56.640  48.513  49.921  0.00  0.00     0.119 A 
ATOM     20  C   UNL d   1      56.043  49.208  48.954  0.00  0.00     0.304 A 
ATOM     21  O   UNL d   1      56.059  48.481  49.345  0.00  0.00    -0.300 OA
ATOM     22  C   UNL d   1      56.904  47.956  50.479  0.00  0.00     0.026 A 
ATOM     23  C   UNL d   1      57.511  48.150  50.999  0.00  0.00     0.004 A 
ENDBRANCH  14  15
ENDBRANCH  13  14
ENDBRANCH   3  13
BRANCH   1  24
ATOM     24  N   UNL d   1      59.756  49.502  52.758  0.00  0.00    -0.107 N 
ATOM     25  O   UNL d   1      58.934  49.554  52.732  0.00  0.00    -0.531 OA
ATOM     26  O   UNL d   1      60.145  49.473  53.487  0.00  0.00    -0.531 OA
ENDBRANCH   1  24
TORSDOF 4
ENDMDL
