MODEL 1
REMARK VINA RESULT:      64.5      0.000      0.000
REMARK  5 active torsions:
REMARK  status: ('A' for Active; 'I' for Inactive)
REMARK    1  A    between atoms: N_7  and  C_1 
REMARK    2  A    between atoms: C_13  and  C_2 
REMARK    3  A    between atoms: N_4  and  C_9 
REMARK       I    between atoms: C_10  and  N_7 
REMARK       I    between atoms: C_15  and  N_8 
REMARK    4  A    between atoms: C_18  and  C_10 
REMARK    5  A    between atoms: O_27  and  C_13 
ROOT
ATOM      1  C   UNL d   1      45.094 -16.861  38.504  0.00  0.00     0.119 A 
ATOM      2  C   UNL d   1      45.356 -16.239  38.034  0.00  0.00     0.088 A 
ATOM      3  C   UNL d   1      44.026 -16.301  37.922  0.00  0.00     0.049 A 
ATOM      4  C   UNL d   1      44.694 -15.893  37.674  0.00  0.00     0.016 A 
ATOM      5  S   UNL d   1      44.267 -16.902  38.436  0.00  0.00    -0.066 SA
ATOM      6  N   UNL d   1      43.200 -15.444  37.129  0.00  0.00    -0.272 N 
ATOM      7  C   UNL d   1      43.272 -16.069  37.642  0.00  0.00     0.089 A 
ATOM      8  C   UNL d   1      42.460 -15.209  36.848  0.00  0.00     0.265 C 
ATOM      9  C   UNL d   1      44.622 -15.252  37.148  0.00  0.00     0.020 A 
ATOM     10  C   UNL d   1      43.881 -15.032  36.879  0.00  0.00     0.083 A 
ATOM     11  O   UNL d   1      41.787 -15.616  37.095  0.00  0.00    -0.267 OA
ATOM     12  C   UNL d   1      42.384 -14.579  36.330  0.00  0.00     0.066 C 
ENDROOT
BRANCH   1  13
ATOM     13  N   UNL d   1      45.566 -17.362  38.966  0.00  0.00    -0.201 NA
ATOM     14  C   UNL d   1      45.234 -17.748  39.619  0.00  0.00     0.280 C 
ATOM     15  O   UNL d   1      44.440 -17.640  39.816  0.00  0.00    -0.265 OA
BRANCH  14  16
ATOM     16  C   UNL d   1      45.704 -18.246  40.079  0.00  0.00     0.059 A 
ATOM     17  C   UNL d   1      45.698 -18.168  40.895  0.00  0.00     0.022 A 
ATOM     18  C   UNL d   1      46.168 -18.666  41.354  0.00  0.00     0.070 A 
ATOM     19  C   UNL d   1      46.644 -19.243  40.998  0.00  0.00     0.018 A 
ATOM     20  C   UNL d   1      46.643 -19.314  40.166  0.00  0.00     0.002 A 
ATOM     21  C   UNL d   1      46.173 -18.816  39.707  0.00  0.00     0.005 A 
BRANCH  18  22
ATOM     22  N   UNL d   1      46.171 -18.597  42.182  0.00  0.00    -0.242 N 
ATOM     23  C   UNL d   1      46.269 -17.921  42.637  0.00  0.00     0.267 A 
ATOM     24  C   UNL d   1      46.229 -18.135  43.433  0.00  0.00     0.066 A 
ATOM     25  O   UNL d   1      46.388 -17.159  42.370  0.00  0.00    -0.267 OA
ATOM     26  C   UNL d   1      46.106 -18.945  43.464  0.00  0.00     0.066 A 
ATOM     27  C   UNL d   1      46.066 -19.253  42.677  0.00  0.00     0.267 A 
ATOM     28  O   UNL d   1      45.950 -20.028  42.452  0.00  0.00    -0.267 OA
ENDBRANCH  18  22
ENDBRANCH  14  16
ENDBRANCH   1  13
BRANCH   2  29
ATOM     29  C   UNL d   1      46.137 -16.007  37.942  0.00  0.00     0.298 C 
ATOM     30  O   UNL d   1      46.576 -15.790  38.610  0.00  0.00    -0.259 OA
BRANCH  29  31
ATOM     31  O   UNL d   1      46.483 -15.991  37.186  0.00  0.00    -0.296 OA
ATOM     32  C   UNL d   1      46.610 -15.267  36.802  0.00  0.00     0.185 C 
ENDBRANCH  29  31
ENDBRANCH   2  29
TORSDOF 5
ENDMDL
MODEL 2
REMARK VINA RESULT:      66.9      1.306      5.680
REMARK  5 active torsions:
REMARK  status: ('A' for Active; 'I' for Inactive)
REMARK    1  A    between atoms: N_7  and  C_1 
REMARK    2  A    between atoms: C_13  and  C_2 
REMARK    3  A    between atoms: N_4  and  C_9 
REMARK       I    between atoms: C_10  and  N_7 
REMARK       I    between atoms: C_15  and  N_8 
REMARK    4  A    between atoms: C_18  and  C_10 
REMARK    5  A    between atoms: O_27  and  C_13 
ROOT
ATOM      1  C   UNL d   1      46.081 -18.190  40.712  0.00  0.00     0.119 A 
ATOM      2  C   UNL d   1      46.334 -18.916  41.004  0.00  0.00     0.088 A 
ATOM      3  C   UNL d   1      46.179 -18.090  42.043  0.00  0.00     0.049 A 
ATOM      4  C   UNL d   1      46.394 -18.853  41.829  0.00  0.00     0.016 A 
ATOM      5  S   UNL d   1      45.984 -17.674  41.356  0.00  0.00    -0.066 SA
ATOM      6  N   UNL d   1      46.411 -18.405  43.419  0.00  0.00    -0.272 N 
ATOM      7  C   UNL d   1      46.190 -17.869  42.850  0.00  0.00     0.089 A 
ATOM      8  C   UNL d   1      46.423 -18.195  44.217  0.00  0.00     0.265 C 
ATOM      9  C   UNL d   1      46.621 -19.404  42.410  0.00  0.00     0.020 A 
ATOM     10  C   UNL d   1      46.629 -19.179  43.197  0.00  0.00     0.083 A 
ATOM     11  O   UNL d   1      46.208 -17.429  44.437  0.00  0.00    -0.267 OA
ATOM     12  C   UNL d   1      46.646 -18.733  44.794  0.00  0.00     0.066 C 
ENDROOT
BRANCH   1  13
ATOM     13  N   UNL d   1      45.945 -18.000  39.916  0.00  0.00    -0.201 NA
ATOM     14  C   UNL d   1      45.308 -17.508  39.717  0.00  0.00     0.280 C 
ATOM     15  O   UNL d   1      44.809 -17.205  40.300  0.00  0.00    -0.265 OA
BRANCH  14  16
ATOM     16  C   UNL d   1      45.173 -17.319  38.926  0.00  0.00     0.059 A 
ATOM     17  C   UNL d   1      45.171 -16.534  38.692  0.00  0.00     0.022 A 
ATOM     18  C   UNL d   1      45.036 -16.345  37.901  0.00  0.00     0.070 A 
ATOM     19  C   UNL d   1      44.902 -16.942  37.343  0.00  0.00     0.018 A 
ATOM     20  C   UNL d   1      44.905 -17.739  37.591  0.00  0.00     0.002 A 
ATOM     21  C   UNL d   1      45.041 -17.928  38.382  0.00  0.00     0.005 A 
BRANCH  18  22
ATOM     22  N   UNL d   1      45.032 -15.553  37.652  0.00  0.00    -0.242 N 
ATOM     23  C   UNL d   1      45.661 -15.100  37.381  0.00  0.00     0.267 A 
ATOM     24  C   UNL d   1      45.379 -14.346  37.201  0.00  0.00     0.066 A 
ATOM     25  O   UNL d   1      46.438 -15.335  37.297  0.00  0.00    -0.267 OA
ATOM     26  C   UNL d   1      44.576 -14.338  37.361  0.00  0.00     0.066 A 
ATOM     27  C   UNL d   1      44.340 -15.097  37.649  0.00  0.00     0.267 A 
ATOM     28  O   UNL d   1      43.593 -15.334  37.875  0.00  0.00    -0.267 OA
ENDBRANCH  18  22
ENDBRANCH  14  16
ENDBRANCH   1  13
BRANCH   2  29
ATOM     29  C   UNL d   1      46.496 -19.581  40.553  0.00  0.00     0.298 C 
ATOM     30  O   UNL d   1      46.586 -20.313  40.930  0.00  0.00    -0.259 OA
BRANCH  29  31
ATOM     31  O   UNL d   1      46.568 -19.519  39.727  0.00  0.00    -0.296 OA
ATOM     32  C   UNL d   1      46.640 -20.202  39.262  0.00  0.00     0.185 C 
ENDBRANCH  29  31
ENDBRANCH   2  29
TORSDOF 5
ENDMDL
