MODEL 1
REMARK VINA RESULT:      31.4      0.000      0.000
REMARK  5 active torsions:
REMARK  status: ('A' for Active; 'I' for Inactive)
REMARK    1  A    between atoms: C_2  and  S_1 
REMARK    2  A    between atoms: N_5  and  S_1 
REMARK    3  A    between atoms: O_18  and  C_4 
REMARK    4  A    between atoms: C_13  and  N_5 
REMARK    5  A    between atoms: C_11  and  C_13 
ROOT
ATOM      1  C   UNL d   1     -51.596  25.104  33.340  0.00  0.00     0.128 A 
ATOM      2  C   UNL d   1     -52.374  25.379  33.352  0.00  0.00     0.026 A 
ATOM      3  C   UNL d   1     -51.446  24.293  33.318  0.00  0.00     0.106 A 
ATOM      4  C   UNL d   1     -53.003  24.842  33.342  0.00  0.00     0.059 A 
ATOM      5  C   UNL d   1     -52.075  23.756  33.308  0.00  0.00     0.026 A 
ATOM      6  C   UNL d   1     -52.853  24.031  33.320  0.00  0.00     0.013 A 
ATOM      7 CL   UNL d   1     -53.780  25.116  33.354  0.00  0.00    -0.082 Cl
ATOM      8  C   UNL d   1     -53.482  23.494  33.311  0.00  0.00     0.001 C 
ENDROOT
BRANCH   1   9
ATOM      9  S   UNL d   1     -50.967  25.641  33.350  0.00  0.00     0.287 S 
ATOM     10  O   UNL d   1     -51.503  26.269  33.308  0.00  0.00    -0.198 OA
ATOM     11  O   UNL d   1     -50.432  25.013  33.392  0.00  0.00    -0.198 OA
BRANCH   9  12
ATOM     12  N   UNL d   1     -50.338  26.178  33.360  0.00  0.00    -0.155 NA
BRANCH  12  13
ATOM     13  C   UNL d   1     -50.487  26.988  33.402  0.00  0.00     0.137 C 
BRANCH  13  14
ATOM     14  C   UNL d   1     -49.954  27.488  33.789  0.00  0.00     0.120 A 
ATOM     15  O   UNL d   1     -49.248  27.259  34.155  0.00  0.00    -0.304 OA
ATOM     16  C   UNL d   1     -48.894  27.931  34.468  0.00  0.00     0.123 A 
ATOM     17  C   UNL d   1     -49.379  28.579  34.299  0.00  0.00     0.029 A 
ATOM     18  C   UNL d   1     -50.029  28.303  33.882  0.00  0.00     0.028 A 
ENDBRANCH  13  14
ENDBRANCH  12  13
ENDBRANCH   9  12
ENDBRANCH   1   9
BRANCH   3  19
ATOM     19  O   UNL d   1     -50.666  24.016  33.306  0.00  0.00    -0.327 OA
ATOM     20  C   UNL d   1     -50.494  23.255  33.574  0.00  0.00     0.181 C 
ENDBRANCH   3  19
TORSDOF 5
ENDMDL
