MODEL 1
REMARK VINA RESULT:      -8.8      0.000      0.000
REMARK  1 active torsions:
REMARK  status: ('A' for Active; 'I' for Inactive)
REMARK    1  A    between atoms: C_10  and  C_4 
ROOT
ATOM      1  N   UNL d   1     -47.499  12.064  23.291  0.00  0.00    -0.202 N 
ATOM      2  C   UNL d   1     -47.883  12.719  22.969  0.00  0.00     0.166 A 
ATOM      3  N   UNL d   1     -48.078  11.494  23.475  0.00  0.00    -0.163 NA
ATOM      4  C   UNL d   1     -48.701  12.555  22.952  0.00  0.00     0.055 A 
ATOM      5  C   UNL d   1     -46.675  12.069  23.376  0.00  0.00     0.143 A 
ATOM      6  C   UNL d   1     -48.806  11.804  23.265  0.00  0.00     0.104 A 
ATOM      7  N   UNL d   1     -47.449  13.376  22.732  0.00  0.00    -0.227 NA
ATOM      8  C   UNL d   1     -46.239  12.731  23.138  0.00  0.00     0.050 A 
ATOM      9  C   UNL d   1     -46.629  13.390  22.813  0.00  0.00     0.086 A 
ATOM     10 CL   UNL d   1     -46.288  11.417  23.698  0.00  0.00    -0.061 Cl
ATOM     11  C   UNL d   1     -49.532  11.421  23.352  0.00  0.00     0.023 C 
ATOM     12  C   UNL d   1     -46.196  14.047  22.576  0.00  0.00     0.021 C 
ENDROOT
BRANCH   4  13
ATOM     13  C   UNL d   1     -49.293  13.058  22.673  0.00  0.00     0.004 A 
ATOM     14  C   UNL d   1     -49.531  13.017  21.884  0.00  0.00     0.001 A 
ATOM     15  C   UNL d   1     -50.120  13.518  21.609  0.00  0.00     0.011 A 
ATOM     16  C   UNL d   1     -50.476  14.063  22.115  0.00  0.00     0.058 A 
ATOM     17  C   UNL d   1     -50.241  14.106  22.901  0.00  0.00     0.011 A 
ATOM     18 CL   UNL d   1     -51.063  14.562  21.837  0.00  0.00    -0.082 Cl
ATOM     19  C   UNL d   1     -49.649  13.605  23.186  0.00  0.00     0.001 A 
ENDBRANCH   4  13
TORSDOF 1
ENDMDL
MODEL 2
REMARK VINA RESULT:      -8.4      1.075      2.165
REMARK  1 active torsions:
REMARK  status: ('A' for Active; 'I' for Inactive)
REMARK    1  A    between atoms: C_10  and  C_4 
ROOT
ATOM      1  N   UNL d   1     -46.849  12.554  23.319  0.00  0.00    -0.202 N 
ATOM      2  C   UNL d   1     -47.620  12.819  23.194  0.00  0.00     0.166 A 
ATOM      3  N   UNL d   1     -46.332  13.185  23.147  0.00  0.00    -0.163 NA
ATOM      4  C   UNL d   1     -47.582  13.615  22.945  0.00  0.00     0.055 A 
ATOM      5  C   UNL d   1     -46.715  11.776  23.571  0.00  0.00     0.143 A 
ATOM      6  C   UNL d   1     -46.789  13.825  22.920  0.00  0.00     0.104 A 
ATOM      7  N   UNL d   1     -48.255  12.313  23.321  0.00  0.00    -0.227 NA
ATOM      8  C   UNL d   1     -47.356  11.268  23.698  0.00  0.00     0.050 A 
ATOM      9  C   UNL d   1     -48.132  11.538  23.572  0.00  0.00     0.086 A 
ATOM     10 CL   UNL d   1     -45.947  11.508  23.696  0.00  0.00    -0.061 Cl
ATOM     11  C   UNL d   1     -46.499  14.565  22.702  0.00  0.00     0.023 C 
ATOM     12  C   UNL d   1     -48.768  11.032  23.698  0.00  0.00     0.021 C 
ENDROOT
BRANCH   4  13
ATOM     13  C   UNL d   1     -48.224  14.098  22.759  0.00  0.00     0.004 A 
ATOM     14  C   UNL d   1     -48.551  14.590  23.335  0.00  0.00     0.001 A 
ATOM     15  C   UNL d   1     -49.190  15.070  23.147  0.00  0.00     0.011 A 
ATOM     16  C   UNL d   1     -49.507  15.065  22.386  0.00  0.00     0.058 A 
ATOM     17  C   UNL d   1     -49.183  14.577  21.810  0.00  0.00     0.011 A 
ATOM     18 CL   UNL d   1     -50.144  15.545  22.202  0.00  0.00    -0.082 Cl
ATOM     19  C   UNL d   1     -48.540  14.090  21.991  0.00  0.00     0.001 A 
ENDBRANCH   4  13
TORSDOF 1
ENDMDL
MODEL 3
REMARK VINA RESULT:      -8.4      1.369      3.261
REMARK  1 active torsions:
REMARK  status: ('A' for Active; 'I' for Inactive)
REMARK    1  A    between atoms: C_10  and  C_4 
ROOT
ATOM      1  N   UNL d   1     -49.667  13.104  23.361  0.00  0.00    -0.202 N 
ATOM      2  C   UNL d   1     -48.971  13.480  23.126  0.00  0.00     0.166 A 
ATOM      3  N   UNL d   1     -49.500  12.291  23.451  0.00  0.00    -0.163 NA
ATOM      4  C   UNL d   1     -48.372  12.901  23.070  0.00  0.00     0.055 A 
ATOM      5  C   UNL d   1     -50.360  13.544  23.463  0.00  0.00     0.143 A 
ATOM      6  C   UNL d   1     -48.709  12.180  23.271  0.00  0.00     0.104 A 
ATOM      7  N   UNL d   1     -48.966  14.291  22.994  0.00  0.00    -0.227 NA
ATOM      8  C   UNL d   1     -50.354  14.361  23.330  0.00  0.00     0.050 A 
ATOM      9  C   UNL d   1     -49.651  14.737  23.093  0.00  0.00     0.086 A 
ATOM     10 CL   UNL d   1     -51.057  13.172  23.698  0.00  0.00    -0.061 Cl
ATOM     11  C   UNL d   1     -48.312  11.457  23.289  0.00  0.00     0.023 C 
ATOM     12  C   UNL d   1     -49.646  15.548  22.960  0.00  0.00     0.021 C 
ENDROOT
BRANCH   4  13
ATOM     13  C   UNL d   1     -47.587  13.033  22.852  0.00  0.00     0.004 A 
ATOM     14  C   UNL d   1     -47.369  13.002  22.057  0.00  0.00     0.001 A 
ATOM     15  C   UNL d   1     -46.587  13.134  21.843  0.00  0.00     0.011 A 
ATOM     16  C   UNL d   1     -46.018  13.295  22.417  0.00  0.00     0.058 A 
ATOM     17  C   UNL d   1     -46.232  13.326  23.210  0.00  0.00     0.011 A 
ATOM     18 CL   UNL d   1     -45.239  13.425  22.200  0.00  0.00    -0.082 Cl
ATOM     19  C   UNL d   1     -47.017  13.195  23.433  0.00  0.00     0.001 A 
ENDBRANCH   4  13
TORSDOF 1
ENDMDL
MODEL 4
REMARK VINA RESULT:      -8.3      1.425      3.599
REMARK  1 active torsions:
REMARK  status: ('A' for Active; 'I' for Inactive)
REMARK    1  A    between atoms: C_10  and  C_4 
ROOT
ATOM      1  N   UNL d   1     -49.644  13.616  23.225  0.00  0.00    -0.202 N 
ATOM      2  C   UNL d   1     -48.919  13.235  23.126  0.00  0.00     0.166 A 
ATOM      3  N   UNL d   1     -49.541  14.419  23.025  0.00  0.00    -0.163 NA
ATOM      4  C   UNL d   1     -48.365  13.802  22.865  0.00  0.00     0.055 A 
ATOM      5  C   UNL d   1     -50.304  13.187  23.484  0.00  0.00     0.143 A 
ATOM      6  C   UNL d   1     -48.758  14.520  22.808  0.00  0.00     0.104 A 
ATOM      7  N   UNL d   1     -48.851  12.432  23.284  0.00  0.00    -0.227 NA
ATOM      8  C   UNL d   1     -50.234  12.378  23.641  0.00  0.00     0.050 A 
ATOM      9  C   UNL d   1     -49.501  11.997  23.541  0.00  0.00     0.086 A 
ATOM     10 CL   UNL d   1     -51.030  13.563  23.584  0.00  0.00    -0.061 Cl
ATOM     11  C   UNL d   1     -48.417  15.232  22.568  0.00  0.00     0.023 C 
ATOM     12  C   UNL d   1     -49.433  11.193  23.698  0.00  0.00     0.021 C 
ENDROOT
BRANCH   4  13
ATOM     13  C   UNL d   1     -47.569  13.663  22.696  0.00  0.00     0.004 A 
ATOM     14  C   UNL d   1     -46.999  13.763  23.284  0.00  0.00     0.001 A 
ATOM     15  C   UNL d   1     -46.208  13.624  23.114  0.00  0.00     0.011 A 
ATOM     16  C   UNL d   1     -45.978  13.385  22.358  0.00  0.00     0.058 A 
ATOM     17  C   UNL d   1     -46.544  13.285  21.771  0.00  0.00     0.011 A 
ATOM     18 CL   UNL d   1     -45.189  13.248  22.192  0.00  0.00    -0.082 Cl
ATOM     19  C   UNL d   1     -47.342  13.423  21.935  0.00  0.00     0.001 A 
ENDBRANCH   4  13
TORSDOF 1
ENDMDL
MODEL 5
REMARK VINA RESULT:      -8.2      1.423      2.192
REMARK  1 active torsions:
REMARK  status: ('A' for Active; 'I' for Inactive)
REMARK    1  A    between atoms: C_10  and  C_4 
ROOT
ATOM      1  N   UNL d   1     -47.155  14.170  22.713  0.00  0.00    -0.202 N 
ATOM      2  C   UNL d   1     -47.629  13.511  22.860  0.00  0.00     0.166 A 
ATOM      3  N   UNL d   1     -47.659  14.813  22.545  0.00  0.00    -0.163 NA
ATOM      4  C   UNL d   1     -48.426  13.745  22.783  0.00  0.00     0.055 A 
ATOM      5  C   UNL d   1     -46.330  14.103  22.750  0.00  0.00     0.143 A 
ATOM      6  C   UNL d   1     -48.429  14.542  22.591  0.00  0.00     0.104 A 
ATOM      7  N   UNL d   1     -47.283  12.788  23.043  0.00  0.00    -0.227 NA
ATOM      8  C   UNL d   1     -45.984  13.375  22.935  0.00  0.00     0.050 A 
ATOM      9  C   UNL d   1     -46.464  12.711  23.082  0.00  0.00     0.086 A 
ATOM     10 CL   UNL d   1     -45.854  14.759  22.604  0.00  0.00    -0.061 Cl
ATOM     11  C   UNL d   1     -49.105  14.999  22.463  0.00  0.00     0.023 C 
ATOM     12  C   UNL d   1     -46.118  11.989  23.265  0.00  0.00     0.021 C 
ENDROOT
BRANCH   4  13
ATOM     13  C   UNL d   1     -49.087  13.261  22.883  0.00  0.00     0.004 A 
ATOM     14  C   UNL d   1     -49.494  13.261  23.601  0.00  0.00     0.001 A 
ATOM     15  C   UNL d   1     -50.151  12.779  23.698  0.00  0.00     0.011 A 
ATOM     16  C   UNL d   1     -50.409  12.294  23.083  0.00  0.00     0.058 A 
ATOM     17  C   UNL d   1     -50.005  12.291  22.367  0.00  0.00     0.011 A 
ATOM     18 CL   UNL d   1     -51.064  11.814  23.183  0.00  0.00    -0.082 Cl
ATOM     19  C   UNL d   1     -49.343  12.774  22.261  0.00  0.00     0.001 A 
ENDBRANCH   4  13
TORSDOF 1
ENDMDL
MODEL 6
REMARK VINA RESULT:      -7.1      1.776      3.330
REMARK  1 active torsions:
REMARK  status: ('A' for Active; 'I' for Inactive)
REMARK    1  A    between atoms: C_10  and  C_4 
ROOT
ATOM      1  N   UNL d   1     -50.241  14.555  23.264  0.00  0.00    -0.202 N 
ATOM      2  C   UNL d   1     -49.584  14.097  23.066  0.00  0.00     0.166 A 
ATOM      3  N   UNL d   1     -50.842  14.038  23.525  0.00  0.00    -0.163 NA
ATOM      4  C   UNL d   1     -49.776  13.297  23.204  0.00  0.00     0.055 A 
ATOM      5  C   UNL d   1     -50.211  15.378  23.182  0.00  0.00     0.143 A 
ATOM      6  C   UNL d   1     -50.548  13.276  23.484  0.00  0.00     0.104 A 
ATOM      7  N   UNL d   1     -48.900  14.458  22.788  0.00  0.00    -0.227 NA
ATOM      8  C   UNL d   1     -49.522  15.740  22.902  0.00  0.00     0.050 A 
ATOM      9  C   UNL d   1     -48.860  15.276  22.704  0.00  0.00     0.086 A 
ATOM     10 CL   UNL d   1     -50.866  15.839  23.379  0.00  0.00    -0.061 Cl
ATOM     11  C   UNL d   1     -50.961  12.592  23.691  0.00  0.00     0.023 C 
ATOM     12  C   UNL d   1     -48.176  15.637  22.426  0.00  0.00     0.021 C 
ENDROOT
BRANCH   4  13
ATOM     13  C   UNL d   1     -49.281  12.649  23.081  0.00  0.00     0.004 A 
ATOM     14  C   UNL d   1     -48.811  12.366  23.697  0.00  0.00     0.001 A 
ATOM     15  C   UNL d   1     -48.319  11.720  23.572  0.00  0.00     0.011 A 
ATOM     16  C   UNL d   1     -48.290  11.353  22.835  0.00  0.00     0.058 A 
ATOM     17  C   UNL d   1     -48.757  11.633  22.219  0.00  0.00     0.011 A 
ATOM     18 CL   UNL d   1     -47.798  10.710  22.713  0.00  0.00    -0.082 Cl
ATOM     19  C   UNL d   1     -49.255  12.281  22.337  0.00  0.00     0.001 A 
ENDBRANCH   4  13
TORSDOF 1
ENDMDL
