MODEL 1
REMARK VINA RESULT:      -7.8      0.000      0.000
REMARK  6 active torsions:
REMARK  status: ('A' for Active; 'I' for Inactive)
REMARK       I    between atoms: C_2  and  N_1 
REMARK    1  A    between atoms: C_3  and  N_1 
REMARK    2  A    between atoms: C_8  and  C_2 
REMARK    3  A    between atoms: C_4  and  C_9 
REMARK    4  A    between atoms: O_10  and  C_4 
REMARK    5  A    between atoms: O_11  and  C_5 
REMARK    6  A    between atoms: C_9  and  C_8 
ROOT
ATOM      1  N   UNL d   1      53.193  32.106  52.768  0.00  0.00    -0.320 N 
ATOM      2  C   UNL d   1      53.069  31.273  52.745  0.00  0.00     0.258 C 
ATOM      3  O   UNL d   1      52.815  30.913  52.052  0.00  0.00    -0.267 OA
ATOM      4  H   UNL d   1      53.059  32.561  52.098  0.00  0.00     0.169 HD
ENDROOT
BRANCH   1   5
ATOM      5  C   UNL d   1      53.454  32.464  53.484  0.00  0.00     0.082 A 
ATOM      6  C   UNL d   1      52.991  33.069  53.832  0.00  0.00     0.110 A 
ATOM      7  C   UNL d   1      53.244  33.426  54.539  0.00  0.00     0.026 A 
ATOM      8  C   UNL d   1      53.941  33.186  54.890  0.00  0.00     0.002 A 
ATOM      9  C   UNL d   1      54.397  32.590  54.547  0.00  0.00     0.002 A 
ATOM     10  C   UNL d   1      54.156  32.234  53.853  0.00  0.00     0.019 A 
BRANCH   6  11
ATOM     11  O   UNL d   1      52.283  33.307  53.468  0.00  0.00    -0.327 OA
ATOM     12  C   UNL d   1      51.971  34.053  53.630  0.00  0.00     0.181 C 
ENDBRANCH   6  11
ENDBRANCH   1   5
BRANCH   2  13
ATOM     13  C   UNL d   1      53.205  30.817  53.421  0.00  0.00     0.067 C 
BRANCH  13  14
ATOM     14  C   UNL d   1      53.191  29.993  53.371  0.00  0.00     0.072 C 
BRANCH  14  15
ATOM     15  C   UNL d   1      52.937  29.546  54.012  0.00  0.00     0.178 C 
ATOM     16  O   UNL d   1      53.485  29.141  54.477  0.00  0.00    -0.646 OA
BRANCH  15  17
ATOM     17  O   UNL d   1      52.135  29.500  54.195  0.00  0.00    -0.773 OA
ATOM     18  H   UNL d   1      51.673  30.182  54.176  0.00  0.00     0.167 HD
ENDBRANCH  15  17
ENDBRANCH  14  15
ENDBRANCH  13  14
ENDBRANCH   2  13
TORSDOF 6
ENDMDL
MODEL 2
REMARK VINA RESULT:      -7.3      1.613      2.741
REMARK  6 active torsions:
REMARK  status: ('A' for Active; 'I' for Inactive)
REMARK       I    between atoms: C_2  and  N_1 
REMARK    1  A    between atoms: C_3  and  N_1 
REMARK    2  A    between atoms: C_8  and  C_2 
REMARK    3  A    between atoms: C_4  and  C_9 
REMARK    4  A    between atoms: O_10  and  C_4 
REMARK    5  A    between atoms: O_11  and  C_5 
REMARK    6  A    between atoms: C_9  and  C_8 
ROOT
ATOM      1  N   UNL d   1      53.751  31.960  53.351  0.00  0.00    -0.320 N 
ATOM      2  C   UNL d   1      52.990  32.125  53.031  0.00  0.00     0.258 C 
ATOM      3  O   UNL d   1      52.695  31.674  52.411  0.00  0.00    -0.267 OA
ATOM      4  H   UNL d   1      54.202  31.346  53.044  0.00  0.00     0.169 HD
ENDROOT
BRANCH   1   5
ATOM      5  C   UNL d   1      54.042  32.429  53.986  0.00  0.00     0.082 A 
ATOM      6  C   UNL d   1      54.721  32.904  53.866  0.00  0.00     0.110 A 
ATOM      7  C   UNL d   1      55.013  33.369  54.490  0.00  0.00     0.026 A 
ATOM      8  C   UNL d   1      54.638  33.362  55.214  0.00  0.00     0.002 A 
ATOM      9  C   UNL d   1      53.968  32.894  55.332  0.00  0.00     0.002 A 
ATOM     10  C   UNL d   1      53.675  32.434  54.725  0.00  0.00     0.019 A 
BRANCH   6  11
ATOM     11  O   UNL d   1      55.098  32.905  53.125  0.00  0.00    -0.327 OA
ATOM     12  C   UNL d   1      55.839  33.258  53.044  0.00  0.00     0.181 C 
ENDBRANCH   6  11
ENDBRANCH   1   5
BRANCH   2  13
ATOM     13  C   UNL d   1      52.537  32.743  53.342  0.00  0.00     0.067 C 
BRANCH  13  14
ATOM     14  C   UNL d   1      51.842  32.975  52.963  0.00  0.00     0.072 C 
BRANCH  14  15
ATOM     15  C   UNL d   1      51.380  33.576  53.281  0.00  0.00     0.178 C 
ATOM     16  O   UNL d   1      51.524  34.362  53.074  0.00  0.00    -0.646 OA
BRANCH  15  17
ATOM     17  O   UNL d   1      50.773  33.399  53.808  0.00  0.00    -0.773 OA
ATOM     18  H   UNL d   1      50.927  33.385  54.618  0.00  0.00     0.167 HD
ENDBRANCH  15  17
ENDBRANCH  14  15
ENDBRANCH  13  14
ENDBRANCH   2  13
TORSDOF 6
ENDMDL
MODEL 3
REMARK VINA RESULT:      -7.2      1.470      3.600
REMARK  6 active torsions:
REMARK  status: ('A' for Active; 'I' for Inactive)
REMARK       I    between atoms: C_2  and  N_1 
REMARK    1  A    between atoms: C_3  and  N_1 
REMARK    2  A    between atoms: C_8  and  C_2 
REMARK    3  A    between atoms: C_4  and  C_9 
REMARK    4  A    between atoms: O_10  and  C_4 
REMARK    5  A    between atoms: O_11  and  C_5 
REMARK    6  A    between atoms: C_9  and  C_8 
ROOT
ATOM      1  N   UNL d   1      52.615  33.336  52.714  0.00  0.00    -0.320 N 
ATOM      2  C   UNL d   1      52.376  34.092  52.996  0.00  0.00     0.258 C 
ATOM      3  O   UNL d   1      51.775  34.503  52.616  0.00  0.00    -0.267 OA
ATOM      4  H   UNL d   1      52.248  33.005  52.058  0.00  0.00     0.169 HD
ENDROOT
BRANCH   1   5
ATOM      5  C   UNL d   1      53.233  32.924  53.111  0.00  0.00     0.082 A 
ATOM      6  C   UNL d   1      53.120  32.123  53.325  0.00  0.00     0.110 A 
ATOM      7  C   UNL d   1      53.727  31.712  53.717  0.00  0.00     0.026 A 
ATOM      8  C   UNL d   1      54.428  32.090  53.892  0.00  0.00     0.002 A 
ATOM      9  C   UNL d   1      54.539  32.880  53.681  0.00  0.00     0.002 A 
ATOM     10  C   UNL d   1      53.949  33.291  53.295  0.00  0.00     0.019 A 
BRANCH   6  11
ATOM     11  O   UNL d   1      52.402  31.745  53.143  0.00  0.00    -0.327 OA
ATOM     12  C   UNL d   1      52.366  30.921  53.129  0.00  0.00     0.181 C 
ENDBRANCH   6  11
ENDBRANCH   1   5
BRANCH   2  13
ATOM     13  C   UNL d   1      52.747  34.423  53.656  0.00  0.00     0.067 C 
BRANCH  13  14
ATOM     14  C   UNL d   1      52.462  35.126  53.980  0.00  0.00     0.072 C 
BRANCH  14  15
ATOM     15  C   UNL d   1      52.874  35.496  54.587  0.00  0.00     0.178 C 
ATOM     16  O   UNL d   1      53.377  36.129  54.421  0.00  0.00    -0.646 OA
BRANCH  15  17
ATOM     17  O   UNL d   1      52.786  35.239  55.365  0.00  0.00    -0.773 OA
ATOM     18  H   UNL d   1      53.439  34.942  55.772  0.00  0.00     0.167 HD
ENDBRANCH  15  17
ENDBRANCH  14  15
ENDBRANCH  13  14
ENDBRANCH   2  13
TORSDOF 6
ENDMDL
MODEL 4
REMARK VINA RESULT:      -7.0      2.135      3.385
REMARK  6 active torsions:
REMARK  status: ('A' for Active; 'I' for Inactive)
REMARK       I    between atoms: C_2  and  N_1 
REMARK    1  A    between atoms: C_3  and  N_1 
REMARK    2  A    between atoms: C_8  and  C_2 
REMARK    3  A    between atoms: C_4  and  C_9 
REMARK    4  A    between atoms: O_10  and  C_4 
REMARK    5  A    between atoms: O_11  and  C_5 
REMARK    6  A    between atoms: C_9  and  C_8 
ROOT
ATOM      1  N   UNL d   1      53.529  34.049  53.472  0.00  0.00    -0.320 N 
ATOM      2  C   UNL d   1      52.817  34.449  53.269  0.00  0.00     0.258 C 
ATOM      3  O   UNL d   1      52.815  35.263  53.164  0.00  0.00    -0.267 OA
ATOM      4  H   UNL d   1      54.226  34.473  53.567  0.00  0.00     0.169 HD
ENDROOT
BRANCH   1   5
ATOM      5  C   UNL d   1      53.518  33.214  53.577  0.00  0.00     0.082 A 
ATOM      6  C   UNL d   1      53.769  32.889  54.306  0.00  0.00     0.110 A 
ATOM      7  C   UNL d   1      53.761  32.065  54.415  0.00  0.00     0.026 A 
ATOM      8  C   UNL d   1      53.508  31.577  53.811  0.00  0.00     0.002 A 
ATOM      9  C   UNL d   1      53.260  31.898  53.093  0.00  0.00     0.002 A 
ATOM     10  C   UNL d   1      53.265  32.706  52.977  0.00  0.00     0.019 A 
BRANCH   6  11
ATOM     11  O   UNL d   1      54.026  33.393  54.915  0.00  0.00    -0.327 OA
ATOM     12  C   UNL d   1      54.512  33.098  55.513  0.00  0.00     0.181 C 
ENDBRANCH   6  11
ENDBRANCH   1   5
BRANCH   2  13
ATOM     13  C   UNL d   1      52.116  34.021  53.173  0.00  0.00     0.067 C 
BRANCH  13  14
ATOM     14  C   UNL d   1      51.419  34.411  52.967  0.00  0.00     0.072 C 
BRANCH  14  15
ATOM     15  C   UNL d   1      50.697  34.024  53.028  0.00  0.00     0.178 C 
ATOM     16  O   UNL d   1      50.274  33.828  52.347  0.00  0.00    -0.646 OA
BRANCH  15  17
ATOM     17  O   UNL d   1      50.390  33.830  53.768  0.00  0.00    -0.773 OA
ATOM     18  H   UNL d   1      49.665  33.441  53.819  0.00  0.00     0.167 HD
ENDBRANCH  15  17
ENDBRANCH  14  15
ENDBRANCH  13  14
ENDBRANCH   2  13
TORSDOF 6
ENDMDL
MODEL 5
REMARK VINA RESULT:      -7.0      1.241      2.173
REMARK  6 active torsions:
REMARK  status: ('A' for Active; 'I' for Inactive)
REMARK       I    between atoms: C_2  and  N_1 
REMARK    1  A    between atoms: C_3  and  N_1 
REMARK    2  A    between atoms: C_8  and  C_2 
REMARK    3  A    between atoms: C_4  and  C_9 
REMARK    4  A    between atoms: O_10  and  C_4 
REMARK    5  A    between atoms: O_11  and  C_5 
REMARK    6  A    between atoms: C_9  and  C_8 
ROOT
ATOM      1  N   UNL d   1      53.717  33.496  53.415  0.00  0.00    -0.320 N 
ATOM      2  C   UNL d   1      53.856  32.665  53.408  0.00  0.00     0.258 C 
ATOM      3  O   UNL d   1      54.606  32.370  53.565  0.00  0.00    -0.267 OA
ATOM      4  H   UNL d   1      54.332  34.015  53.578  0.00  0.00     0.169 HD
ENDROOT
BRANCH   1   5
ATOM      5  C   UNL d   1      52.944  33.786  53.252  0.00  0.00     0.082 A 
ATOM      6  C   UNL d   1      52.594  34.335  53.778  0.00  0.00     0.110 A 
ATOM      7  C   UNL d   1      51.830  34.625  53.623  0.00  0.00     0.026 A 
ATOM      8  C   UNL d   1      51.427  34.374  52.960  0.00  0.00     0.002 A 
ATOM      9  C   UNL d   1      51.772  33.833  52.442  0.00  0.00     0.002 A 
ATOM     10  C   UNL d   1      52.521  33.543  52.586  0.00  0.00     0.019 A 
BRANCH   6  11
ATOM     11  O   UNL d   1      53.013  34.585  54.452  0.00  0.00    -0.327 OA
ATOM     12  C   UNL d   1      52.851  35.324  54.782  0.00  0.00     0.181 C 
ENDBRANCH   6  11
ENDBRANCH   1   5
BRANCH   2  13
ATOM     13  C   UNL d   1      53.235  32.145  53.243  0.00  0.00     0.067 C 
BRANCH  13  14
ATOM     14  C   UNL d   1      53.324  31.338  53.390  0.00  0.00     0.072 C 
BRANCH  14  15
ATOM     15  C   UNL d   1      52.871  30.791  52.976  0.00  0.00     0.178 C 
ATOM     16  O   UNL d   1      52.175  30.496  53.307  0.00  0.00    -0.646 OA
BRANCH  15  17
ATOM     17  O   UNL d   1      53.107  30.535  52.230  0.00  0.00    -0.773 OA
ATOM     18  H   UNL d   1      53.911  30.470  52.057  0.00  0.00     0.167 HD
ENDBRANCH  15  17
ENDBRANCH  14  15
ENDBRANCH  13  14
ENDBRANCH   2  13
TORSDOF 6
ENDMDL
MODEL 6
REMARK VINA RESULT:      -6.8      1.870      2.940
REMARK  6 active torsions:
REMARK  status: ('A' for Active; 'I' for Inactive)
REMARK       I    between atoms: C_2  and  N_1 
REMARK    1  A    between atoms: C_3  and  N_1 
REMARK    2  A    between atoms: C_8  and  C_2 
REMARK    3  A    between atoms: C_4  and  C_9 
REMARK    4  A    between atoms: O_10  and  C_4 
REMARK    5  A    between atoms: O_11  and  C_5 
REMARK    6  A    between atoms: C_9  and  C_8 
ROOT
ATOM      1  N   UNL d   1      53.245  32.730  52.992  0.00  0.00    -0.320 N 
ATOM      2  C   UNL d   1      53.913  32.613  53.491  0.00  0.00     0.258 C 
ATOM      3  O   UNL d   1      54.373  31.937  53.414  0.00  0.00    -0.267 OA
ATOM      4  H   UNL d   1      53.050  32.169  52.426  0.00  0.00     0.169 HD
ENDROOT
BRANCH   1   5
ATOM      5  C   UNL d   1      52.781  33.427  53.080  0.00  0.00     0.082 A 
ATOM      6  C   UNL d   1      51.958  33.357  53.214  0.00  0.00     0.110 A 
ATOM      7  C   UNL d   1      51.495  34.042  53.302  0.00  0.00     0.026 A 
ATOM      8  C   UNL d   1      51.845  34.778  53.258  0.00  0.00     0.002 A 
ATOM      9  C   UNL d   1      52.656  34.847  53.127  0.00  0.00     0.002 A 
ATOM     10  C   UNL d   1      53.118  34.180  53.039  0.00  0.00     0.019 A 
BRANCH   6  11
ATOM     11  O   UNL d   1      51.610  32.603  53.257  0.00  0.00    -0.327 OA
ATOM     12  C   UNL d   1      50.789  32.530  53.227  0.00  0.00     0.181 C 
ENDBRANCH   6  11
ENDBRANCH   1   5
BRANCH   2  13
ATOM     13  C   UNL d   1      54.107  33.180  54.060  0.00  0.00     0.067 C 
BRANCH  13  14
ATOM     14  C   UNL d   1      54.797  33.098  54.506  0.00  0.00     0.072 C 
BRANCH  14  15
ATOM     15  C   UNL d   1      54.856  33.454  55.244  0.00  0.00     0.178 C 
ATOM     16  O   UNL d   1      55.308  34.137  55.338  0.00  0.00    -0.646 OA
BRANCH  15  17
ATOM     17  O   UNL d   1      54.465  33.132  55.893  0.00  0.00    -0.773 OA
ATOM     18  H   UNL d   1      53.703  33.388  56.078  0.00  0.00     0.167 HD
ENDBRANCH  15  17
ENDBRANCH  14  15
ENDBRANCH  13  14
ENDBRANCH   2  13
TORSDOF 6
ENDMDL
