MODEL 1
REMARK VINA RESULT:      39.7      0.000      0.000
REMARK  3 active torsions:
REMARK  status: ('A' for Active; 'I' for Inactive)
REMARK    1  A    between atoms: C_6  and  C_1 
REMARK       I    between atoms: N_8  and  C_6 
REMARK    2  A    between atoms: C_16  and  N_8 
REMARK       I    between atoms: C_12  and  N_13 
REMARK    3  A    between atoms: N_13  and  C_17 
ROOT
ATOM      1  C   UNL d   1     -54.786-101.929 -40.911  0.00  0.00     0.302 C 
ATOM      2  N   UNL d   1     -54.711-101.427 -40.260  0.00  0.00    -0.206 NA
ATOM      3  O   UNL d   1     -54.874-102.736 -40.800  0.00  0.00    -0.263 OA
ENDROOT
BRANCH   1   4
ATOM      4  C   UNL d   1     -54.773-101.615 -41.674  0.00  0.00     0.158 A 
ATOM      5  O   UNL d   1     -54.766-102.049 -42.381  0.00  0.00    -0.302 OA
ATOM      6  C   UNL d   1     -54.752-101.503 -43.010  0.00  0.00     0.100 A 
ATOM      7  C   UNL d   1     -54.741-101.603 -43.835  0.00  0.00     0.025 A 
ATOM      8  C   UNL d   1     -54.751-100.737 -42.695  0.00  0.00     0.025 A 
ATOM      9  C   UNL d   1     -54.729-100.946 -44.330  0.00  0.00     0.002 A 
ATOM     10  C   UNL d   1     -54.718-101.047 -45.151  0.00  0.00     0.000 C 
ATOM     11  C   UNL d   1     -54.727-100.182 -44.008  0.00  0.00     0.000 A 
ATOM     12  C   UNL d   1     -54.739-100.079 -43.191  0.00  0.00     0.002 A 
ATOM     13  C   UNL d   1     -54.715 -99.528 -44.506  0.00  0.00     0.000 C 
ATOM     14  C   UNL d   1     -54.763-100.788 -41.876  0.00  0.00     0.029 A 
ATOM     15  C   UNL d   1     -54.766-100.160 -41.339  0.00  0.00     0.002 C 
ENDBRANCH   1   4
BRANCH   2  16
ATOM     16  C   UNL d   1     -54.725-101.737 -39.495  0.00  0.00     0.085 A 
ATOM     17  C   UNL d   1     -54.736-102.555 -39.391  0.00  0.00     0.021 A 
ATOM     18  C   UNL d   1     -54.749-102.862 -38.632  0.00  0.00     0.021 A 
ATOM     19  C   UNL d   1     -54.751-102.359 -37.972  0.00  0.00     0.085 A 
ATOM     20  C   UNL d   1     -54.739-101.542 -38.085  0.00  0.00     0.021 A 
ATOM     21  C   UNL d   1     -54.726-101.227 -38.848  0.00  0.00     0.021 A 
BRANCH  19  22
ATOM     22  N   UNL d   1     -54.764-102.672 -37.210  0.00  0.00    -0.208 NA
ATOM     23  C   UNL d   1     -54.834-102.167 -36.560  0.00  0.00     0.279 C 
ATOM     24  O   UNL d   1     -54.891-101.346 -36.668  0.00  0.00    -0.265 OA
ATOM     25  C   UNL d   1     -54.848-102.473 -35.794  0.00  0.00     0.068 C 
ENDBRANCH  19  22
ENDBRANCH   2  16
TORSDOF 3
ENDMDL
