MODEL 1
REMARK VINA RESULT:      18.4      0.000      0.000
REMARK  1 active torsions:
REMARK  status: ('A' for Active; 'I' for Inactive)
REMARK    1  A    between atoms: C_6  and  C_1 
ROOT
ATOM      1  C   UNL d   1     -58.492 -98.792 -44.628  0.00  0.00     0.085 A 
ATOM      2  C   UNL d   1     -57.680 -98.794 -44.462  0.00  0.00     0.137 A 
ATOM      3  C   UNL d   1     -58.901 -98.787 -43.931  0.00  0.00     0.013 A 
ATOM      4  C   UNL d   1     -58.346 -98.785 -43.329  0.00  0.00     0.031 A 
ATOM      5  S   UNL d   1     -57.594 -98.790 -43.670  0.00  0.00    -0.066 SA
ATOM      6  C   UNL d   1     -59.709 -98.783 -43.756  0.00  0.00     0.001 A 
ATOM      7  C   UNL d   1     -58.585 -98.780 -42.560  0.00  0.00     0.006 A 
ATOM      8  N   UNL d   1     -57.033 -98.799 -45.034  0.00  0.00    -0.141 N 
ATOM      9  C   UNL d   1     -59.959 -98.778 -42.994  0.00  0.00     0.000 A 
ATOM     10  C   UNL d   1     -59.372 -98.776 -42.373  0.00  0.00     0.001 A 
ATOM     11  C   UNL d   1     -59.627 -98.771 -41.543  0.00  0.00     0.000 C 
ENDROOT
BRANCH   1  12
ATOM     12  C   UNL d   1     -58.818 -98.796 -45.405  0.00  0.00     0.299 C 
ATOM     13  O   UNL d   1     -58.324 -98.838 -46.058  0.00  0.00    -0.264 OA
ATOM     14  N   UNL d   1     -59.659 -98.756 -45.522  0.00  0.00    -0.102 N 
ENDBRANCH   1  12
TORSDOF 1
ENDMDL
MODEL 2
REMARK VINA RESULT:      18.5      1.307      2.548
REMARK  1 active torsions:
REMARK  status: ('A' for Active; 'I' for Inactive)
REMARK    1  A    between atoms: C_6  and  C_1 
ROOT
ATOM      1  C   UNL d   1     -58.456 -98.767 -44.226  0.00  0.00     0.085 A 
ATOM      2  C   UNL d   1     -58.537 -98.762 -43.401  0.00  0.00     0.137 A 
ATOM      3  C   UNL d   1     -57.669 -98.765 -44.411  0.00  0.00     0.013 A 
ATOM      4  C   UNL d   1     -57.258 -98.759 -43.703  0.00  0.00     0.031 A 
ATOM      5  S   UNL d   1     -57.806 -98.757 -43.086  0.00  0.00    -0.066 SA
ATOM      6  C   UNL d   1     -57.263 -98.768 -45.132  0.00  0.00     0.001 A 
ATOM      7  C   UNL d   1     -56.453 -98.757 -43.705  0.00  0.00     0.006 A 
ATOM      8  N   UNL d   1     -59.274 -98.761 -42.952  0.00  0.00    -0.141 N 
ATOM      9  C   UNL d   1     -56.461 -98.766 -45.146  0.00  0.00     0.000 A 
ATOM     10  C   UNL d   1     -56.041 -98.760 -44.402  0.00  0.00     0.001 A 
ATOM     11  C   UNL d   1     -55.173 -98.757 -44.400  0.00  0.00     0.000 C 
ENDROOT
BRANCH   1  12
ATOM     12  C   UNL d   1     -59.102 -98.772 -44.767  0.00  0.00     0.299 C 
ATOM     13  O   UNL d   1     -58.962 -98.759 -45.575  0.00  0.00    -0.264 OA
ATOM     14  N   UNL d   1     -59.903 -98.791 -44.485  0.00  0.00    -0.102 N 
ENDBRANCH   1  12
TORSDOF 1
ENDMDL
MODEL 3
REMARK VINA RESULT:      20.8      1.615      2.907
REMARK  1 active torsions:
REMARK  status: ('A' for Active; 'I' for Inactive)
REMARK    1  A    between atoms: C_6  and  C_1 
ROOT
ATOM      1  C   UNL d   1     -58.321 -98.852 -44.082  0.00  0.00     0.085 A 
ATOM      2  C   UNL d   1     -58.608 -98.790 -44.857  0.00  0.00     0.137 A 
ATOM      3  C   UNL d   1     -57.514 -98.855 -44.102  0.00  0.00     0.013 A 
ATOM      4  C   UNL d   1     -57.295 -98.795 -44.889  0.00  0.00     0.031 A 
ATOM      5  S   UNL d   1     -57.981 -98.756 -45.346  0.00  0.00    -0.066 SA
ATOM      6  C   UNL d   1     -56.939 -98.904 -43.510  0.00  0.00     0.001 A 
ATOM      7  C   UNL d   1     -56.515 -98.784 -45.091  0.00  0.00     0.006 A 
ATOM      8  N   UNL d   1     -59.436 -98.767 -45.104  0.00  0.00    -0.141 N 
ATOM      9  C   UNL d   1     -56.159 -98.893 -43.698  0.00  0.00     0.000 A 
ATOM     10  C   UNL d   1     -55.941 -98.831 -44.523  0.00  0.00     0.001 A 
ATOM     11  C   UNL d   1     -55.102 -98.818 -44.744  0.00  0.00     0.000 C 
ENDROOT
BRANCH   1  12
ATOM     12  C   UNL d   1     -58.810 -98.902 -43.397  0.00  0.00     0.299 C 
ATOM     13  O   UNL d   1     -59.605 -99.087 -43.472  0.00  0.00    -0.264 OA
ATOM     14  N   UNL d   1     -58.487 -98.763 -42.623  0.00  0.00    -0.102 N 
ENDBRANCH   1  12
TORSDOF 1
ENDMDL
