MODEL 1
REMARK VINA RESULT:      -2.6      0.000      0.000
REMARK  2 active torsions:
REMARK  status: ('A' for Active; 'I' for Inactive)
REMARK    1  A    between atoms: N_7  and  C_3 
REMARK    2  A    between atoms: C_11  and  N_8 
ROOT
ATOM      1  N   UNL d   1      32.636  18.052 -23.796  0.00  0.00    -0.286 N 
ATOM      2  N   UNL d   1      32.838  19.459 -22.966  0.00  0.00    -0.301 N 
ATOM      3  C   UNL d   1      32.883  18.032 -23.008  0.00  0.00     0.101 A 
ATOM      4  C   UNL d   1      32.492  18.766 -24.165  0.00  0.00     0.101 A 
ATOM      5  C   UNL d   1      32.983  18.739 -22.596  0.00  0.00     0.100 A 
ATOM      6  C   UNL d   1      32.592  19.474 -23.753  0.00  0.00     0.100 A 
ENDROOT
BRANCH   1   7
ATOM      7  C   UNL d   1      32.536  17.348 -24.207  0.00  0.00     0.154 A 
ATOM      8  C   UNL d   1      31.790  17.038 -24.304  0.00  0.00     0.091 A 
ATOM      9  C   UNL d   1      31.690  16.334 -24.715  0.00  0.00     0.170 A 
ATOM     10  C   UNL d   1      31.048  17.304 -24.055  0.00  0.00     0.127 A 
ATOM     11  N   UNL d   1      30.881  16.160 -24.722  0.00  0.00    -0.209 N 
ATOM     12  N   UNL d   1      32.337  15.945 -25.027  0.00  0.00    -0.205 NA
ATOM     13  C   UNL d   1      30.536  15.499 -25.078  0.00  0.00     0.123 C 
ATOM     14  N   UNL d   1      30.488  16.757 -24.316  0.00  0.00    -0.162 NA
ATOM     15  C   UNL d   1      33.084  16.259 -24.927  0.00  0.00     0.202 A 
ATOM     16  N   UNL d   1      33.184  16.965 -24.515  0.00  0.00    -0.206 NA
ENDBRANCH   1   7
BRANCH   2  17
ATOM     17  C   UNL d   1      32.940  20.164 -22.550  0.00  0.00     0.065 A 
ATOM     18  C   UNL d   1      32.840  20.172 -21.736  0.00  0.00     0.030 A 
ATOM     19  C   UNL d   1      32.939  20.871 -21.309  0.00  0.00     0.070 A 
ATOM     20 CL   UNL d   1      32.837  20.873 -20.489  0.00  0.00    -0.081 Cl
ATOM     21  C   UNL d   1      33.140  21.569 -21.710  0.00  0.00     0.068 A 
ATOM     22  C   UNL d   1      33.241  21.561 -22.533  0.00  0.00     0.014 A 
ATOM     23 CL   UNL d   1      33.241  22.272 -21.290  0.00  0.00    -0.082 Cl
ATOM     24  C   UNL d   1      33.140  20.858 -22.953  0.00  0.00     0.018 A 
ENDBRANCH   2  17
TORSDOF 2
ENDMDL
MODEL 2
REMARK VINA RESULT:      -2.5      0.482      1.033
REMARK  2 active torsions:
REMARK  status: ('A' for Active; 'I' for Inactive)
REMARK    1  A    between atoms: N_7  and  C_3 
REMARK    2  A    between atoms: C_11  and  N_8 
ROOT
ATOM      1  N   UNL d   1      32.675  18.298 -23.607  0.00  0.00    -0.286 N 
ATOM      2  N   UNL d   1      32.863  19.647 -22.683  0.00  0.00    -0.301 N 
ATOM      3  C   UNL d   1      32.703  19.041 -23.967  0.00  0.00     0.101 A 
ATOM      4  C   UNL d   1      32.740  18.229 -22.796  0.00  0.00     0.101 A 
ATOM      5  C   UNL d   1      32.798  19.715 -23.499  0.00  0.00     0.100 A 
ATOM      6  C   UNL d   1      32.835  18.903 -22.329  0.00  0.00     0.100 A 
ENDROOT
BRANCH   1   7
ATOM      7  C   UNL d   1      32.581  17.627 -24.071  0.00  0.00     0.154 A 
ATOM      8  C   UNL d   1      31.836  17.323 -24.197  0.00  0.00     0.091 A 
ATOM      9  C   UNL d   1      31.742  16.652 -24.661  0.00  0.00     0.170 A 
ATOM     10  C   UNL d   1      31.091  17.567 -23.935  0.00  0.00     0.127 A 
ATOM     11  N   UNL d   1      30.934  16.477 -24.688  0.00  0.00    -0.209 N 
ATOM     12  N   UNL d   1      32.392  16.290 -24.997  0.00  0.00    -0.205 NA
ATOM     13  C   UNL d   1      30.593  15.844 -25.096  0.00  0.00     0.123 C 
ATOM     14  N   UNL d   1      30.536  17.040 -24.241  0.00  0.00    -0.162 NA
ATOM     15  C   UNL d   1      33.138  16.598 -24.868  0.00  0.00     0.202 A 
ATOM     16  N   UNL d   1      33.232  17.271 -24.402  0.00  0.00    -0.206 NA
ENDBRANCH   1   7
BRANCH   2  17
ATOM     17  C   UNL d   1      32.958  20.323 -22.219  0.00  0.00     0.065 A 
ATOM     18  C   UNL d   1      32.999  21.059 -22.580  0.00  0.00     0.030 A 
ATOM     19  C   UNL d   1      33.093  21.742 -22.127  0.00  0.00     0.070 A 
ATOM     20 CL   UNL d   1      33.133  22.480 -22.496  0.00  0.00    -0.081 Cl
ATOM     21  C   UNL d   1      33.146  21.680 -21.301  0.00  0.00     0.068 A 
ATOM     22  C   UNL d   1      33.105  20.936 -20.937  0.00  0.00     0.014 A 
ATOM     23 CL   UNL d   1      33.241  22.359 -20.842  0.00  0.00    -0.082 Cl
ATOM     24  C   UNL d   1      33.011  20.258 -21.397  0.00  0.00     0.018 A 
ENDBRANCH   2  17
TORSDOF 2
ENDMDL
MODEL 3
REMARK VINA RESULT:      -1.7      1.057      1.672
REMARK  2 active torsions:
REMARK  status: ('A' for Active; 'I' for Inactive)
REMARK    1  A    between atoms: N_7  and  C_3 
REMARK    2  A    between atoms: C_11  and  N_8 
ROOT
ATOM      1  N   UNL d   1      32.795  19.285 -23.169  0.00  0.00    -0.286 N 
ATOM      2  N   UNL d   1      32.835  20.328 -21.895  0.00  0.00    -0.301 N 
ATOM      3  C   UNL d   1      33.223  19.088 -22.491  0.00  0.00     0.101 A 
ATOM      4  C   UNL d   1      32.391  19.994 -23.210  0.00  0.00     0.101 A 
ATOM      5  C   UNL d   1      33.241  19.614 -21.855  0.00  0.00     0.100 A 
ATOM      6  C   UNL d   1      32.408  20.519 -22.575  0.00  0.00     0.100 A 
ENDROOT
BRANCH   1   7
ATOM      7  C   UNL d   1      32.776  18.763 -23.802  0.00  0.00     0.154 A 
ATOM      8  C   UNL d   1      32.295  18.107 -23.773  0.00  0.00     0.091 A 
ATOM      9  C   UNL d   1      32.277  17.585 -24.406  0.00  0.00     0.170 A 
ATOM     10  C   UNL d   1      31.776  17.832 -23.191  0.00  0.00     0.127 A 
ATOM     11  N   UNL d   1      31.743  16.981 -24.218  0.00  0.00    -0.209 N 
ATOM     12  N   UNL d   1      32.740  17.721 -25.065  0.00  0.00    -0.205 NA
ATOM     13  C   UNL d   1      31.556  16.338 -24.703  0.00  0.00     0.123 C 
ATOM     14  N   UNL d   1      31.436  17.135 -23.472  0.00  0.00    -0.162 NA
ATOM     15  C   UNL d   1      33.222  18.380 -25.091  0.00  0.00     0.202 A 
ATOM     16  N   UNL d   1      33.240  18.904 -24.455  0.00  0.00    -0.206 NA
ENDBRANCH   1   7
BRANCH   2  17
ATOM     17  C   UNL d   1      32.855  20.850 -21.257  0.00  0.00     0.065 A 
ATOM     18  C   UNL d   1      32.518  21.594 -21.331  0.00  0.00     0.030 A 
ATOM     19  C   UNL d   1      32.532  22.125 -20.699  0.00  0.00     0.070 A 
ATOM     20 CL   UNL d   1      32.191  22.872 -20.780  0.00  0.00    -0.081 Cl
ATOM     21  C   UNL d   1      32.892  21.900 -19.986  0.00  0.00     0.068 A 
ATOM     22  C   UNL d   1      33.232  21.148 -19.911  0.00  0.00     0.014 A 
ATOM     23 CL   UNL d   1      32.910  22.425 -19.350  0.00  0.00    -0.082 Cl
ATOM     24  C   UNL d   1      33.214  20.623 -20.548  0.00  0.00     0.018 A 
ENDBRANCH   2  17
TORSDOF 2
ENDMDL
MODEL 4
REMARK VINA RESULT:      -1.6      2.348      5.015
REMARK  2 active torsions:
REMARK  status: ('A' for Active; 'I' for Inactive)
REMARK    1  A    between atoms: N_7  and  C_3 
REMARK    2  A    between atoms: C_11  and  N_8 
ROOT
ATOM      1  N   UNL d   1      32.876  20.248 -22.746  0.00  0.00    -0.286 N 
ATOM      2  N   UNL d   1      32.863  18.705 -23.319  0.00  0.00    -0.301 N 
ATOM      3  C   UNL d   1      32.500  20.079 -23.462  0.00  0.00     0.101 A 
ATOM      4  C   UNL d   1      33.241  19.653 -22.321  0.00  0.00     0.101 A 
ATOM      5  C   UNL d   1      32.496  19.305 -23.746  0.00  0.00     0.100 A 
ATOM      6  C   UNL d   1      33.237  18.878 -22.605  0.00  0.00     0.100 A 
ENDROOT
BRANCH   1   7
ATOM      7  C   UNL d   1      32.881  21.019 -22.463  0.00  0.00     0.154 A 
ATOM      8  C   UNL d   1      32.530  21.190 -21.748  0.00  0.00     0.091 A 
ATOM      9  C   UNL d   1      32.535  21.960 -21.465  0.00  0.00     0.170 A 
ATOM     10  C   UNL d   1      32.136  20.711 -21.201  0.00  0.00     0.127 A 
ATOM     11  N   UNL d   1      32.142  21.962 -20.737  0.00  0.00    -0.209 N 
ATOM     12  N   UNL d   1      32.890  22.555 -21.897  0.00  0.00    -0.205 NA
ATOM     13  C   UNL d   1      32.020  22.626 -20.259  0.00  0.00     0.123 C 
ATOM     14  N   UNL d   1      31.898  21.194 -20.576  0.00  0.00    -0.162 NA
ATOM     15  C   UNL d   1      33.241  22.379 -22.613  0.00  0.00     0.202 A 
ATOM     16  N   UNL d   1      33.236  21.606 -22.898  0.00  0.00    -0.206 NA
ENDBRANCH   1   7
BRANCH   2  17
ATOM     17  C   UNL d   1      32.856  17.931 -23.607  0.00  0.00     0.065 A 
ATOM     18  C   UNL d   1      32.477  17.343 -23.179  0.00  0.00     0.030 A 
ATOM     19  C   UNL d   1      32.464  16.566 -23.457  0.00  0.00     0.070 A 
ATOM     20 CL   UNL d   1      32.081  15.978 -23.021  0.00  0.00    -0.081 Cl
ATOM     21  C   UNL d   1      32.838  16.383 -24.175  0.00  0.00     0.068 A 
ATOM     22  C   UNL d   1      33.221  16.979 -24.608  0.00  0.00     0.014 A 
ATOM     23 CL   UNL d   1      32.829  15.609 -24.459  0.00  0.00    -0.082 Cl
ATOM     24  C   UNL d   1      33.229  17.753 -24.323  0.00  0.00     0.018 A 
ENDBRANCH   2  17
TORSDOF 2
ENDMDL
MODEL 5
REMARK VINA RESULT:      -1.2      1.051      1.456
REMARK  2 active torsions:
REMARK  status: ('A' for Active; 'I' for Inactive)
REMARK    1  A    between atoms: N_7  and  C_3 
REMARK    2  A    between atoms: C_11  and  N_8 
ROOT
ATOM      1  N   UNL d   1      32.663  18.761 -23.097  0.00  0.00    -0.286 N 
ATOM      2  N   UNL d   1      32.821  20.346 -22.680  0.00  0.00    -0.301 N 
ATOM      3  C   UNL d   1      32.414  19.016 -22.352  0.00  0.00     0.101 A 
ATOM      4  C   UNL d   1      32.987  19.291 -23.627  0.00  0.00     0.101 A 
ATOM      5  C   UNL d   1      32.495  19.811 -22.147  0.00  0.00     0.100 A 
ATOM      6  C   UNL d   1      33.068  20.086 -23.422  0.00  0.00     0.100 A 
ENDROOT
BRANCH   1   7
ATOM      7  C   UNL d   1      32.582  17.970 -23.302  0.00  0.00     0.154 A 
ATOM      8  C   UNL d   1      31.971  17.738 -23.787  0.00  0.00     0.091 A 
ATOM      9  C   UNL d   1      31.891  16.947 -23.992  0.00  0.00     0.170 A 
ATOM     10  C   UNL d   1      31.363  18.165 -24.148  0.00  0.00     0.127 A 
ATOM     11  N   UNL d   1      31.229  16.881 -24.483  0.00  0.00    -0.209 N 
ATOM     12  N   UNL d   1      32.421  16.393 -23.711  0.00  0.00    -0.205 NA
ATOM     13  C   UNL d   1      30.946  16.179 -24.817  0.00  0.00     0.123 C 
ATOM     14  N   UNL d   1      30.905  17.630 -24.578  0.00  0.00    -0.162 NA
ATOM     15  C   UNL d   1      33.033  16.630 -23.224  0.00  0.00     0.202 A 
ATOM     16  N   UNL d   1      33.114  17.424 -23.019  0.00  0.00    -0.206 NA
ENDBRANCH   1   7
BRANCH   2  17
ATOM     17  C   UNL d   1      32.900  21.140 -22.470  0.00  0.00     0.065 A 
ATOM     18  C   UNL d   1      32.886  21.717 -23.054  0.00  0.00     0.030 A 
ATOM     19  C   UNL d   1      32.964  22.514 -22.856  0.00  0.00     0.070 A 
ATOM     20 CL   UNL d   1      32.949  23.089 -23.449  0.00  0.00    -0.081 Cl
ATOM     21  C   UNL d   1      33.058  22.730 -22.061  0.00  0.00     0.068 A 
ATOM     22  C   UNL d   1      33.073  22.147 -21.471  0.00  0.00     0.014 A 
ATOM     23 CL   UNL d   1      33.137  23.525 -21.856  0.00  0.00    -0.082 Cl
ATOM     24  C   UNL d   1      32.994  21.351 -21.677  0.00  0.00     0.018 A 
ENDBRANCH   2  17
TORSDOF 2
ENDMDL
MODEL 6
REMARK VINA RESULT:      -0.3      2.032      3.549
REMARK  2 active torsions:
REMARK  status: ('A' for Active; 'I' for Inactive)
REMARK    1  A    between atoms: N_7  and  C_3 
REMARK    2  A    between atoms: C_11  and  N_8 
ROOT
ATOM      1  N   UNL d   1      33.043  20.904 -22.036  0.00  0.00    -0.286 N 
ATOM      2  N   UNL d   1      33.013  21.839 -20.681  0.00  0.00    -0.301 N 
ATOM      3  C   UNL d   1      33.241  21.705 -22.085  0.00  0.00     0.101 A 
ATOM      4  C   UNL d   1      32.832  20.575 -21.319  0.00  0.00     0.101 A 
ATOM      5  C   UNL d   1      33.225  22.170 -21.404  0.00  0.00     0.100 A 
ATOM      6  C   UNL d   1      32.816  21.040 -20.638  0.00  0.00     0.100 A 
ENDROOT
BRANCH   1   7
ATOM      7  C   UNL d   1      33.059  20.441 -22.714  0.00  0.00     0.154 A 
ATOM      8  C   UNL d   1      33.122  19.632 -22.650  0.00  0.00     0.091 A 
ATOM      9  C   UNL d   1      33.138  19.168 -23.327  0.00  0.00     0.170 A 
ATOM     10  C   UNL d   1      33.179  19.135 -21.991  0.00  0.00     0.127 A 
ATOM     11  N   UNL d   1      33.205  18.379 -23.090  0.00  0.00    -0.209 N 
ATOM     12  N   UNL d   1      33.090  19.516 -24.065  0.00  0.00    -0.205 NA
ATOM     13  C   UNL d   1      33.240  17.727 -23.596  0.00  0.00     0.123 C 
ATOM     14  N   UNL d   1      33.230  18.360 -22.269  0.00  0.00    -0.162 NA
ATOM     15  C   UNL d   1      33.027  20.328 -24.125  0.00  0.00     0.202 A 
ATOM     16  N   UNL d   1      33.011  20.793 -23.445  0.00  0.00    -0.206 NA
ENDBRANCH   1   7
BRANCH   2  17
ATOM     17  C   UNL d   1      32.998  22.308 -20.002  0.00  0.00     0.065 A 
ATOM     18  C   UNL d   1      33.124  21.963 -19.269  0.00  0.00     0.030 A 
ATOM     19  C   UNL d   1      33.112  22.422 -18.583  0.00  0.00     0.070 A 
ATOM     20 CL   UNL d   1      33.240  22.068 -17.848  0.00  0.00    -0.081 Cl
ATOM     21  C   UNL d   1      32.970  23.238 -18.641  0.00  0.00     0.068 A 
ATOM     22  C   UNL d   1      32.843  23.586 -19.382  0.00  0.00     0.014 A 
ATOM     23 CL   UNL d   1      32.957  23.702 -17.959  0.00  0.00    -0.082 Cl
ATOM     24  C   UNL d   1      32.857  23.120 -20.063  0.00  0.00     0.018 A 
ENDBRANCH   2  17
TORSDOF 2
ENDMDL
