MODEL 1
REMARK VINA RESULT:      -4.2      0.000      0.000
REMARK  3 active torsions:
REMARK  status: ('A' for Active; 'I' for Inactive)
REMARK    1  A    between atoms: N_5  and  C_1 
REMARK    2  A    between atoms: C_7  and  N_4 
REMARK    3  A    between atoms: C_12  and  C_7 
ROOT
ATOM      1  C   UNL d   1     -41.929-122.919 -50.885  0.00  0.00     0.232 A 
ATOM      2  N   UNL d   1     -42.164-122.135 -50.872  0.00  0.00    -0.204 NA
ATOM      3  C   UNL d   1     -41.507-123.068 -51.568  0.00  0.00     0.141 A 
ATOM      4  N   UNL d   1     -41.472-122.358 -52.004  0.00  0.00    -0.282 N 
ATOM      5  C   UNL d   1     -41.882-121.777 -51.570  0.00  0.00     0.150 A 
ATOM      6 BR   UNL d   1     -41.163-123.792 -51.806  0.00  0.00    -0.026 Br
ATOM      7  C   UNL d   1     -42.005-120.959 -51.779  0.00  0.00     0.041 C 
ENDROOT
BRANCH   4   8
ATOM      8  C   UNL d   1     -41.123-122.164 -52.737  0.00  0.00     0.082 C 
BRANCH   8   9
ATOM      9  C   UNL d   1     -41.492-122.353 -53.454  0.00  0.00     0.018 A 
ATOM     10  C   UNL d   1     -41.958-121.795 -53.834  0.00  0.00     0.002 A 
ATOM     11  C   UNL d   1     -42.333-121.966 -54.548  0.00  0.00     0.000 A 
ATOM     12  C   UNL d   1     -42.250-122.698 -54.899  0.00  0.00     0.000 A 
ATOM     13  C   UNL d   1     -41.779-123.277 -54.525  0.00  0.00     0.000 A 
ATOM     14  C   UNL d   1     -41.396-123.127 -53.811  0.00  0.00     0.002 A 
ENDBRANCH   8   9
ENDBRANCH   4   8
BRANCH   1  15
ATOM     15  N   UNL d   1     -42.091-123.468 -50.302  0.00  0.00    -0.093 N 
ATOM     16  O   UNL d   1     -42.847-123.756 -50.109  0.00  0.00    -0.530 OA
ATOM     17  O   UNL d   1     -41.524-123.816 -49.822  0.00  0.00    -0.530 OA
ENDBRANCH   1  15
TORSDOF 3
ENDMDL
MODEL 2
REMARK VINA RESULT:      -3.9      2.489      3.653
REMARK  3 active torsions:
REMARK  status: ('A' for Active; 'I' for Inactive)
REMARK    1  A    between atoms: N_5  and  C_1 
REMARK    2  A    between atoms: C_7  and  N_4 
REMARK    3  A    between atoms: C_12  and  C_7 
ROOT
ATOM      1  C   UNL d   1     -42.415-122.244 -54.668  0.00  0.00     0.232 A 
ATOM      2  N   UNL d   1     -42.093-122.994 -54.739  0.00  0.00    -0.204 NA
ATOM      3  C   UNL d   1     -42.117-121.880 -54.000  0.00  0.00     0.141 A 
ATOM      4  N   UNL d   1     -41.590-122.414 -53.635  0.00  0.00    -0.282 N 
ATOM      5  C   UNL d   1     -41.575-123.107 -54.096  0.00  0.00     0.150 A 
ATOM      6 BR   UNL d   1     -42.295-121.115 -53.716  0.00  0.00    -0.026 Br
ATOM      7  C   UNL d   1     -41.123-123.817 -53.958  0.00  0.00     0.041 C 
ENDROOT
BRANCH   4   8
ATOM      8  C   UNL d   1     -41.123-122.360 -52.945  0.00  0.00     0.082 C 
BRANCH   8   9
ATOM      9  C   UNL d   1     -41.448-122.480 -52.193  0.00  0.00     0.018 A 
ATOM     10  C   UNL d   1     -41.654-121.837 -51.728  0.00  0.00     0.002 A 
ATOM     11  C   UNL d   1     -41.979-121.938 -50.978  0.00  0.00     0.000 A 
ATOM     12  C   UNL d   1     -42.106-122.685 -50.674  0.00  0.00     0.000 A 
ATOM     13  C   UNL d   1     -41.903-123.350 -51.135  0.00  0.00     0.000 A 
ATOM     14  C   UNL d   1     -41.576-123.272 -51.888  0.00  0.00     0.002 A 
ENDBRANCH   8   9
ENDBRANCH   4   8
BRANCH   1  15
ATOM     15  N   UNL d   1     -42.952-121.912 -55.186  0.00  0.00    -0.093 N 
ATOM     16  O   UNL d   1     -43.779-121.927 -55.098  0.00  0.00    -0.530 OA
ATOM     17  O   UNL d   1     -42.747-121.513 -55.873  0.00  0.00    -0.530 OA
ENDBRANCH   1  15
TORSDOF 3
ENDMDL
MODEL 3
REMARK VINA RESULT:      -2.7      1.881      2.705
REMARK  3 active torsions:
REMARK  status: ('A' for Active; 'I' for Inactive)
REMARK    1  A    between atoms: N_5  and  C_1 
REMARK    2  A    between atoms: C_7  and  N_4 
REMARK    3  A    between atoms: C_12  and  C_7 
ROOT
ATOM      1  C   UNL d   1     -42.262-123.099 -48.507  0.00  0.00     0.232 A 
ATOM      2  N   UNL d   1     -42.956-122.752 -48.768  0.00  0.00    -0.204 NA
ATOM      3  C   UNL d   1     -41.856-123.414 -49.142  0.00  0.00     0.141 A 
ATOM      4  N   UNL d   1     -42.305-123.264 -49.828  0.00  0.00    -0.282 N 
ATOM      5  C   UNL d   1     -42.991-122.852 -49.596  0.00  0.00     0.150 A 
ATOM      6 BR   UNL d   1     -41.124-123.817 -49.128  0.00  0.00    -0.026 Br
ATOM      7  C   UNL d   1     -43.626-122.571 -50.091  0.00  0.00     0.041 C 
ENDROOT
BRANCH   4   8
ATOM      8  C   UNL d   1     -42.181-123.448 -50.633  0.00  0.00     0.082 C 
BRANCH   8   9
ATOM      9  C   UNL d   1     -41.833-122.904 -51.151  0.00  0.00     0.018 A 
ATOM     10  C   UNL d   1     -41.521-123.159 -51.865  0.00  0.00     0.002 A 
ATOM     11  C   UNL d   1     -41.170-122.632 -52.392  0.00  0.00     0.000 A 
ATOM     12  C   UNL d   1     -41.123-121.836 -52.218  0.00  0.00     0.000 A 
ATOM     13  C   UNL d   1     -41.436-121.559 -51.496  0.00  0.00     0.000 A 
ATOM     14  C   UNL d   1     -41.790-122.070 -50.954  0.00  0.00     0.002 A 
ENDBRANCH   8   9
ENDBRANCH   4   8
BRANCH   1  15
ATOM     15  N   UNL d   1     -42.013-123.125 -47.729  0.00  0.00    -0.093 N 
ATOM     16  O   UNL d   1     -42.282-123.664 -47.155  0.00  0.00    -0.530 OA
ATOM     17  O   UNL d   1     -41.458-122.617 -47.403  0.00  0.00    -0.530 OA
ENDBRANCH   1  15
TORSDOF 3
ENDMDL
MODEL 4
REMARK VINA RESULT:      -1.5      2.576      4.600
REMARK  3 active torsions:
REMARK  status: ('A' for Active; 'I' for Inactive)
REMARK    1  A    between atoms: N_5  and  C_1 
REMARK    2  A    between atoms: C_7  and  N_4 
REMARK    3  A    between atoms: C_12  and  C_7 
ROOT
ATOM      1  C   UNL d   1     -41.996-122.616 -50.709  0.00  0.00     0.232 A 
ATOM      2  N   UNL d   1     -42.569-123.200 -50.730  0.00  0.00    -0.204 NA
ATOM      3  C   UNL d   1     -41.941-122.311 -49.953  0.00  0.00     0.141 A 
ATOM      4  N   UNL d   1     -42.496-122.713 -49.478  0.00  0.00    -0.282 N 
ATOM      5  C   UNL d   1     -42.887-123.267 -49.962  0.00  0.00     0.150 A 
ATOM      6 BR   UNL d   1     -41.431-121.707 -49.684  0.00  0.00    -0.026 Br
ATOM      7  C   UNL d   1     -43.503-123.814 -49.738  0.00  0.00     0.041 C 
ENDROOT
BRANCH   4   8
ATOM      8  C   UNL d   1     -42.697-122.648 -48.670  0.00  0.00     0.082 C 
BRANCH   8   9
ATOM      9  C   UNL d   1     -42.218-122.976 -48.079  0.00  0.00     0.018 A 
ATOM     10  C   UNL d   1     -42.354-122.791 -47.292  0.00  0.00     0.002 A 
ATOM     11  C   UNL d   1     -41.887-123.108 -46.691  0.00  0.00     0.000 A 
ATOM     12  C   UNL d   1     -41.274-123.619 -46.864  0.00  0.00     0.000 A 
ATOM     13  C   UNL d   1     -41.123-123.817 -47.659  0.00  0.00     0.000 A 
ATOM     14  C   UNL d   1     -41.577-123.512 -48.276  0.00  0.00     0.002 A 
ENDBRANCH   8   9
ENDBRANCH   4   8
BRANCH   1  15
ATOM     15  N   UNL d   1     -41.547-122.375 -51.348  0.00  0.00    -0.093 N 
ATOM     16  O   UNL d   1     -41.354-121.587 -51.531  0.00  0.00    -0.530 OA
ATOM     17  O   UNL d   1     -41.221-122.883 -51.903  0.00  0.00    -0.530 OA
ENDBRANCH   1  15
TORSDOF 3
ENDMDL
