MODEL 1
REMARK VINA RESULT:      47.6      0.000      0.000
REMARK  4 active torsions:
REMARK  status: ('A' for Active; 'I' for Inactive)
REMARK    1  A    between atoms: N_7  and  S_1 
REMARK    2  A    between atoms: C_8  and  S_1 
REMARK    3  A    between atoms: C_16  and  N_7 
REMARK    4  A    between atoms: C_15  and  C_16 
ROOT
ATOM      1  C   UNL d   1      13.114  13.487  -4.109  0.00  0.00     0.112 C 
ENDROOT
BRANCH   1   2
ATOM      2  C   UNL d   1      13.305  14.234  -4.398  0.00  0.00     0.020 A 
ATOM      3  C   UNL d   1      13.959  14.646  -4.093  0.00  0.00     0.003 A 
ATOM      4  C   UNL d   1      14.145  15.395  -4.387  0.00  0.00     0.018 A 
ATOM      5  C   UNL d   1      14.748  15.928  -4.197  0.00  0.00     0.019 A 
ATOM      6  C   UNL d   1      13.687  15.738  -4.982  0.00  0.00     0.064 A 
ATOM      7  C   UNL d   1      14.660  16.592  -4.672  0.00  0.00     0.064 A 
ATOM      8  C   UNL d   1      15.146  17.258  -4.663  0.00  0.00     0.019 C 
ATOM      9  N   UNL d   1      14.005  16.474  -5.156  0.00  0.00    -0.304 N 
ATOM     10  C   UNL d   1      13.720  17.009  -5.720  0.00  0.00     0.099 C 
ATOM     11  C   UNL d   1      13.038  15.334  -5.287  0.00  0.00     0.018 A 
ATOM     12  C   UNL d   1      12.842  14.581  -4.999  0.00  0.00     0.003 A 
ENDBRANCH   1   2
BRANCH   1  13
ATOM     13  N   UNL d   1      13.254  13.298  -3.320  0.00  0.00    -0.157 NA
BRANCH  13  14
ATOM     14  S   UNL d   1      13.561  12.561  -3.117  0.00  0.00     0.285 S 
ATOM     15  O   UNL d   1      13.834  11.780  -3.126  0.00  0.00    -0.198 OA
ATOM     16  O   UNL d   1      13.387  12.506  -3.928  0.00  0.00    -0.198 OA
BRANCH  14  17
ATOM     17  C   UNL d   1      13.799  12.408  -2.349  0.00  0.00     0.105 A 
ATOM     18  C   UNL d   1      13.328  11.936  -1.864  0.00  0.00     0.013 A 
ATOM     19  C   UNL d   1      13.567  11.779  -1.084  0.00  0.00     0.001 A 
ATOM     20  C   UNL d   1      14.273  12.097  -0.798  0.00  0.00     0.000 A 
ATOM     21  C   UNL d   1      14.743  12.573  -1.294  0.00  0.00     0.001 A 
ATOM     22  C   UNL d   1      14.513  11.944  -0.026  0.00  0.00     0.000 C 
ATOM     23  C   UNL d   1      14.500  12.723  -2.063  0.00  0.00     0.013 A 
ENDBRANCH  14  17
ENDBRANCH  13  14
ENDBRANCH   1  13
TORSDOF 4
ENDMDL
