MODEL 1
REMARK VINA RESULT:      -3.8      0.000      0.000
REMARK  5 active torsions:
REMARK  status: ('A' for Active; 'I' for Inactive)
REMARK       I    between atoms: N_2  and  C_5 
REMARK    1  A    between atoms: C_3  and  N_2 
REMARK    2  A    between atoms: C_14  and  C_4 
REMARK    3  A    between atoms: C_5  and  C_13 
REMARK    4  A    between atoms: C_17  and  C_6 
REMARK    5  A    between atoms: C_13  and  C_14 
ROOT
ATOM      1  N   UNL d   1      58.655  -0.452  28.455  0.00  0.00    -0.208 NA
ATOM      2  C   UNL d   1      58.178  -0.003  28.941  0.00  0.00     0.279 C 
ATOM      3  O   UNL d   1      57.813   0.682  28.648  0.00  0.00    -0.265 OA
ENDROOT
BRANCH   2   4
ATOM      4  C   UNL d   1      58.059  -0.227  29.726  0.00  0.00     0.065 C 
BRANCH   4   5
ATOM      5  C   UNL d   1      57.646   0.268  30.241  0.00  0.00     0.030 C 
BRANCH   5   6
ATOM      6  C   UNL d   1      57.426  -0.003  30.985  0.00  0.00     0.100 A 
ATOM      7  O   UNL d   1      56.816  -0.543  31.153  0.00  0.00    -0.307 OA
ATOM      8  C   UNL d   1      56.790  -0.655  31.962  0.00  0.00     0.100 A 
ATOM      9  C   UNL d   1      57.378  -0.190  32.307  0.00  0.00     0.027 A 
ATOM     10  C   UNL d   1      57.767   0.210  31.701  0.00  0.00     0.027 A 
BRANCH   8  11
ATOM     11  C   UNL d   1      56.266  -1.147  32.358  0.00  0.00     0.025 C 
ATOM     12  C   UNL d   1      55.963  -0.920  33.095  0.00  0.00     0.002 C 
ENDBRANCH   8  11
ENDBRANCH   5   6
ENDBRANCH   4   5
ENDBRANCH   2   4
BRANCH   1  13
ATOM     13  C   UNL d   1      59.019  -1.134  28.748  0.00  0.00     0.085 A 
ATOM     14  C   UNL d   1      59.839  -1.168  28.799  0.00  0.00     0.018 A 
ATOM     15  C   UNL d   1      60.200  -1.847  29.090  0.00  0.00     0.002 A 
ATOM     16  C   UNL d   1      60.295  -0.521  28.557  0.00  0.00     0.002 C 
ATOM     17  C   UNL d   1      59.740  -2.488  29.329  0.00  0.00     0.000 A 
ATOM     18  C   UNL d   1      58.920  -2.454  29.278  0.00  0.00     0.002 A 
ATOM     19  C   UNL d   1      60.106  -3.173  29.623  0.00  0.00     0.000 C 
ATOM     20  C   UNL d   1      58.559  -1.764  28.982  0.00  0.00     0.019 A 
ENDBRANCH   1  13
TORSDOF 5
ENDMDL
MODEL 2
REMARK VINA RESULT:      -2.1      1.195      3.971
REMARK  5 active torsions:
REMARK  status: ('A' for Active; 'I' for Inactive)
REMARK       I    between atoms: N_2  and  C_5 
REMARK    1  A    between atoms: C_3  and  N_2 
REMARK    2  A    between atoms: C_14  and  C_4 
REMARK    3  A    between atoms: C_5  and  C_13 
REMARK    4  A    between atoms: C_17  and  C_6 
REMARK    5  A    between atoms: C_13  and  C_14 
ROOT
ATOM      1  N   UNL d   1      57.721   0.505  30.986  0.00  0.00    -0.208 NA
ATOM      2  C   UNL d   1      58.137   0.184  30.361  0.00  0.00     0.279 C 
ATOM      3  O   UNL d   1      58.537   0.680  29.829  0.00  0.00    -0.265 OA
ENDROOT
BRANCH   2   4
ATOM      4  C   UNL d   1      58.161  -0.634  30.256  0.00  0.00     0.065 C 
BRANCH   4   5
ATOM      5  C   UNL d   1      58.313  -0.953  29.510  0.00  0.00     0.030 C 
BRANCH   5   6
ATOM      6  C   UNL d   1      58.732  -1.655  29.440  0.00  0.00     0.100 A 
ATOM      7  O   UNL d   1      59.560  -1.737  29.431  0.00  0.00    -0.307 OA
ATOM      8  C   UNL d   1      59.737  -2.531  29.352  0.00  0.00     0.100 A 
ATOM      9  C   UNL d   1      59.029  -2.951  29.312  0.00  0.00     0.027 A 
ATOM     10  C   UNL d   1      58.412  -2.408  29.366  0.00  0.00     0.027 A 
BRANCH   8  11
ATOM     11  C   UNL d   1      60.494  -2.849  29.320  0.00  0.00     0.025 C 
ATOM     12  C   UNL d   1      60.619  -3.636  29.543  0.00  0.00     0.002 C 
ENDBRANCH   8  11
ENDBRANCH   5   6
ENDBRANCH   4   5
ENDBRANCH   2   4
BRANCH   1  13
ATOM     13  C   UNL d   1      57.323   0.010  31.515  0.00  0.00     0.085 A 
ATOM     14  C   UNL d   1      57.442   0.099  32.324  0.00  0.00     0.018 A 
ATOM     15  C   UNL d   1      57.046  -0.393  32.849  0.00  0.00     0.002 A 
ATOM     16  C   UNL d   1      57.959   0.682  32.603  0.00  0.00     0.002 C 
ATOM     17  C   UNL d   1      56.532  -0.971  32.564  0.00  0.00     0.000 A 
ATOM     18  C   UNL d   1      56.413  -1.060  31.755  0.00  0.00     0.002 A 
ATOM     19  C   UNL d   1      56.132  -1.468  33.097  0.00  0.00     0.000 C 
ATOM     20  C   UNL d   1      56.817  -0.559  31.228  0.00  0.00     0.019 A 
ENDBRANCH   1  13
TORSDOF 5
ENDMDL
