MODEL 1
REMARK VINA RESULT:      -6.7      0.000      0.000
REMARK  5 active torsions:
REMARK  status: ('A' for Active; 'I' for Inactive)
REMARK    1  A    between atoms: C_11  and  C_3 
REMARK    2  A    between atoms: C_13  and  N_5 
REMARK    3  A    between atoms: C_12  and  C_7 
REMARK    4  A    between atoms: O_21  and  C_11 
REMARK    5  A    between atoms: C_20  and  C_13 
ROOT
ATOM      1  C   UNL d   1     -48.289  12.383  23.294  0.00  0.00     0.080 A 
ATOM      2  C   UNL d   1     -48.887  12.944  23.172  0.00  0.00     0.267 A 
ATOM      3  C   UNL d   1     -46.912  12.026  23.283  0.00  0.00     0.106 A 
ATOM      4  C   UNL d   1     -48.487  11.624  23.547  0.00  0.00     0.108 A 
ATOM      5  N   UNL d   1     -49.683  12.735  23.308  0.00  0.00    -0.271 N 
ATOM      6  C   UNL d   1     -47.110  11.261  23.539  0.00  0.00     0.208 A 
ATOM      7  C   UNL d   1     -47.505  12.582  23.163  0.00  0.00     0.015 A 
ATOM      8  O   UNL d   1     -47.897  11.060  23.670  0.00  0.00    -0.288 OA
ATOM      9  C   UNL d   1     -49.271  11.408  23.683  0.00  0.00     0.043 A 
ATOM     10  C   UNL d   1     -49.866  11.966  23.562  0.00  0.00     0.069 A 
ATOM     11  O   UNL d   1     -48.701  13.709  22.918  0.00  0.00    -0.267 OA
ATOM     12  N   UNL d   1     -46.515  10.702  23.660  0.00  0.00    -0.121 N 
ATOM     13  C   UNL d   1     -50.671  11.759  23.698  0.00  0.00     0.019 C 
ENDROOT
BRANCH   7  14
ATOM     14  C   UNL d   1     -47.313  13.341  22.910  0.00  0.00     0.001 A 
ATOM     15  C   UNL d   1     -47.324  13.514  22.101  0.00  0.00     0.001 A 
ATOM     16  C   UNL d   1     -47.132  14.274  21.849  0.00  0.00     0.011 A 
ATOM     17  C   UNL d   1     -46.930  14.858  22.396  0.00  0.00     0.058 A 
ATOM     18  C   UNL d   1     -46.919  14.681  23.208  0.00  0.00     0.011 A 
ATOM     19 CL   UNL d   1     -46.738  15.617  22.143  0.00  0.00    -0.082 Cl
ATOM     20  C   UNL d   1     -47.111  13.921  23.461  0.00  0.00     0.001 A 
ENDBRANCH   7  14
BRANCH   3  21
ATOM     21  C   UNL d   1     -46.125  12.227  23.152  0.00  0.00     0.299 C 
ATOM     22  O   UNL d   1     -45.719  12.694  23.698  0.00  0.00    -0.259 OA
BRANCH  21  23
ATOM     23  O   UNL d   1     -45.738  11.962  22.473  0.00  0.00    -0.296 OA
ATOM     24  C   UNL d   1     -44.928  11.807  22.490  0.00  0.00     0.185 C 
ENDBRANCH  21  23
ENDBRANCH   3  21
BRANCH   5  25
ATOM     25  C   UNL d   1     -50.278  13.293  23.187  0.00  0.00     0.108 C 
BRANCH  25  26
ATOM     26  C   UNL d   1     -50.583  13.413  22.432  0.00  0.00     0.118 A 
ATOM     27  O   UNL d   1     -50.755  12.824  21.874  0.00  0.00    -0.304 OA
ATOM     28  C   UNL d   1     -51.051  13.188  21.194  0.00  0.00     0.123 A 
ATOM     29  C   UNL d   1     -51.064  14.003  21.324  0.00  0.00     0.029 A 
ATOM     30  C   UNL d   1     -50.777  14.143  22.086  0.00  0.00     0.028 A 
ENDBRANCH  25  26
ENDBRANCH   5  25
TORSDOF 5
ENDMDL
MODEL 2
REMARK VINA RESULT:      -6.5      1.178      3.712
REMARK  5 active torsions:
REMARK  status: ('A' for Active; 'I' for Inactive)
REMARK    1  A    between atoms: C_11  and  C_3 
REMARK    2  A    between atoms: C_13  and  N_5 
REMARK    3  A    between atoms: C_12  and  C_7 
REMARK    4  A    between atoms: O_21  and  C_11 
REMARK    5  A    between atoms: C_20  and  C_13 
ROOT
ATOM      1  C   UNL d   1     -47.827  12.352  23.165  0.00  0.00     0.080 A 
ATOM      2  C   UNL d   1     -47.115  12.774  23.131  0.00  0.00     0.267 A 
ATOM      3  C   UNL d   1     -49.242  12.307  23.029  0.00  0.00     0.106 A 
ATOM      4  C   UNL d   1     -47.818  11.552  23.369  0.00  0.00     0.108 A 
ATOM      5  N   UNL d   1     -46.396  12.387  23.304  0.00  0.00    -0.271 N 
ATOM      6  C   UNL d   1     -49.235  11.502  23.234  0.00  0.00     0.208 A 
ATOM      7  C   UNL d   1     -48.536  12.726  22.996  0.00  0.00     0.015 A 
ATOM      8  O   UNL d   1     -48.523  11.125  23.404  0.00  0.00    -0.288 OA
ATOM      9  C   UNL d   1     -47.113  11.162  23.542  0.00  0.00     0.043 A 
ATOM     10  C   UNL d   1     -46.404  11.582  23.508  0.00  0.00     0.069 A 
ATOM     11  O   UNL d   1     -47.110  13.576  22.928  0.00  0.00    -0.267 OA
ATOM     12  N   UNL d   1     -49.944  11.082  23.268  0.00  0.00    -0.121 N 
ATOM     13  C   UNL d   1     -45.678  11.195  23.682  0.00  0.00     0.019 C 
ENDROOT
BRANCH   7  14
ATOM     14  C   UNL d   1     -48.539  13.523  22.793  0.00  0.00     0.001 A 
ATOM     15  C   UNL d   1     -48.595  14.094  23.390  0.00  0.00     0.001 A 
ATOM     16  C   UNL d   1     -48.598  14.891  23.185  0.00  0.00     0.011 A 
ATOM     17  C   UNL d   1     -48.545  15.121  22.395  0.00  0.00     0.058 A 
ATOM     18  C   UNL d   1     -48.489  14.546  21.798  0.00  0.00     0.011 A 
ATOM     19 CL   UNL d   1     -48.548  15.918  22.192  0.00  0.00    -0.082 Cl
ATOM     20  C   UNL d   1     -48.486  13.747  22.001  0.00  0.00     0.001 A 
ENDBRANCH   7  14
BRANCH   3  21
ATOM     21  C   UNL d   1     -49.954  12.684  22.859  0.00  0.00     0.299 C 
ATOM     22  O   UNL d   1     -50.376  13.062  23.459  0.00  0.00    -0.259 OA
BRANCH  21  23
ATOM     23  O   UNL d   1     -50.248  12.685  22.088  0.00  0.00    -0.296 OA
ATOM     24  C   UNL d   1     -51.059  12.609  21.952  0.00  0.00     0.185 C 
ENDBRANCH  21  23
ENDBRANCH   3  21
BRANCH   5  25
ATOM     25  C   UNL d   1     -45.687  12.807  23.271  0.00  0.00     0.108 C 
BRANCH  25  26
ATOM     26  C   UNL d   1     -45.233  12.795  22.585  0.00  0.00     0.118 A 
ATOM     27  O   UNL d   1     -45.309  13.310  21.939  0.00  0.00    -0.304 OA
ATOM     28  C   UNL d   1     -44.744  13.102  21.373  0.00  0.00     0.123 A 
ATOM     29  C   UNL d   1     -44.315  12.459  21.663  0.00  0.00     0.029 A 
ATOM     30  C   UNL d   1     -44.615  12.269  22.409  0.00  0.00     0.028 A 
ENDBRANCH  25  26
ENDBRANCH   5  25
TORSDOF 5
ENDMDL
MODEL 3
REMARK VINA RESULT:      -5.2      1.707      4.483
REMARK  5 active torsions:
REMARK  status: ('A' for Active; 'I' for Inactive)
REMARK    1  A    between atoms: C_11  and  C_3 
REMARK    2  A    between atoms: C_13  and  N_5 
REMARK    3  A    between atoms: C_12  and  C_7 
REMARK    4  A    between atoms: O_21  and  C_11 
REMARK    5  A    between atoms: C_20  and  C_13 
ROOT
ATOM      1  C   UNL d   1     -47.915  14.114  22.663  0.00  0.00     0.080 A 
ATOM      2  C   UNL d   1     -47.309  13.620  22.939  0.00  0.00     0.267 A 
ATOM      3  C   UNL d   1     -49.275  14.311  22.297  0.00  0.00     0.106 A 
ATOM      4  C   UNL d   1     -47.749  14.902  22.482  0.00  0.00     0.108 A 
ATOM      5  N   UNL d   1     -46.538  13.925  23.031  0.00  0.00    -0.271 N 
ATOM      6  C   UNL d   1     -49.110  15.104  22.114  0.00  0.00     0.208 A 
ATOM      7  C   UNL d   1     -48.675  13.822  22.570  0.00  0.00     0.015 A 
ATOM      8  O   UNL d   1     -48.347  15.399  22.207  0.00  0.00    -0.288 OA
ATOM      9  C   UNL d   1     -46.990  15.211  22.570  0.00  0.00     0.043 A 
ATOM     10  C   UNL d   1     -46.387  14.720  22.844  0.00  0.00     0.069 A 
ATOM     11  O   UNL d   1     -47.462  12.829  23.124  0.00  0.00    -0.267 OA
ATOM     12  N   UNL d   1     -49.713  15.596  21.839  0.00  0.00    -0.121 N 
ATOM     13  C   UNL d   1     -45.608  15.023  22.938  0.00  0.00     0.019 C 
ENDROOT
BRANCH   7  14
ATOM     14  C   UNL d   1     -48.834  13.036  22.752  0.00  0.00     0.001 A 
ATOM     15  C   UNL d   1     -48.746  12.457  22.167  0.00  0.00     0.001 A 
ATOM     16  C   UNL d   1     -48.906  11.671  22.350  0.00  0.00     0.011 A 
ATOM     17  C   UNL d   1     -49.152  11.459  23.108  0.00  0.00     0.058 A 
ATOM     18  C   UNL d   1     -49.240  12.042  23.694  0.00  0.00     0.011 A 
ATOM     19 CL   UNL d   1     -49.312  10.673  23.291  0.00  0.00    -0.082 Cl
ATOM     20  C   UNL d   1     -49.080  12.829  23.512  0.00  0.00     0.001 A 
ENDBRANCH   7  14
BRANCH   3  21
ATOM     21  C   UNL d   1     -50.038  14.016  22.204  0.00  0.00     0.299 C 
ATOM     22  O   UNL d   1     -50.560  14.009  22.843  0.00  0.00    -0.259 OA
BRANCH  21  23
ATOM     23  O   UNL d   1     -50.283  13.726  21.472  0.00  0.00    -0.296 OA
ATOM     24  C   UNL d   1     -51.063  13.830  21.223  0.00  0.00     0.185 C 
ENDBRANCH  21  23
ENDBRANCH   3  21
BRANCH   5  25
ATOM     25  C   UNL d   1     -45.935  13.434  23.306  0.00  0.00     0.108 C 
BRANCH  25  26
ATOM     26  C   UNL d   1     -45.420  13.076  22.773  0.00  0.00     0.118 A 
ATOM     27  O   UNL d   1     -44.972  13.462  22.191  0.00  0.00    -0.304 OA
ATOM     28  C   UNL d   1     -44.533  12.894  21.782  0.00  0.00     0.123 A 
ATOM     29  C   UNL d   1     -44.704  12.154  22.106  0.00  0.00     0.029 A 
ATOM     30  C   UNL d   1     -45.250  12.265  22.716  0.00  0.00     0.028 A 
ENDBRANCH  25  26
ENDBRANCH   5  25
TORSDOF 5
ENDMDL
