MODEL 1
REMARK VINA RESULT:      32.6      0.000      0.000
REMARK  6 active torsions:
REMARK  status: ('A' for Active; 'I' for Inactive)
REMARK    1  A    between atoms: C_7  and  C_1 
REMARK    2  A    between atoms: C_10  and  C_2 
REMARK    3  A    between atoms: C_8  and  C_7 
REMARK    4  A    between atoms: C_9  and  C_8 
REMARK    5  A    between atoms: C_13  and  C_9 
REMARK    6  A    between atoms: O_20  and  C_16 
ROOT
ATOM      1  C   UNL d   1      46.214 -17.404  43.272  0.00  0.00     0.097 A 
ATOM      2  C   UNL d   1      46.223 -18.208  43.089  0.00  0.00     0.009 A 
ATOM      3  C   UNL d   1      46.348 -16.845  42.674  0.00  0.00     0.282 A 
ATOM      4  C   UNL d   1      46.364 -18.462  42.315  0.00  0.00     0.018 A 
ATOM      5  N   UNL d   1      46.487 -17.105  41.911  0.00  0.00    -0.208 NA
ATOM      6  C   UNL d   1      46.498 -17.903  41.718  0.00  0.00     0.085 A 
ATOM      7  C   UNL d   1      46.371 -19.255  42.143  0.00  0.00     0.008 A 
ATOM      8  O   UNL d   1      46.341 -16.040  42.849  0.00  0.00    -0.265 OA
ATOM      9  C   UNL d   1      46.635 -18.152  40.964  0.00  0.00     0.020 A 
ATOM     10  C   UNL d   1      46.512 -19.512  41.366  0.00  0.00     0.035 A 
ATOM     11  C   UNL d   1      46.647 -18.953  40.769  0.00  0.00     0.008 A 
ATOM     12 BR   UNL d   1      46.523 -20.329  41.172  0.00  0.00    -0.049 Br
ENDROOT
BRANCH   1  13
ATOM     13  C   UNL d   1      46.071 -17.133  44.060  0.00  0.00     0.200 C 
ATOM     14  O   UNL d   1      45.859 -17.680  44.635  0.00  0.00    -0.286 OA
BRANCH  13  15
ATOM     15  C   UNL d   1      46.140 -16.347  44.249  0.00  0.00     0.042 C 
BRANCH  15  16
ATOM     16  C   UNL d   1      45.473 -15.856  44.245  0.00  0.00     0.005 C 
BRANCH  16  17
ATOM     17  C   UNL d   1      45.532 -15.073  44.462  0.00  0.00     0.022 A 
ATOM     18  C   UNL d   1      44.864 -14.686  44.731  0.00  0.00     0.094 A 
ATOM     19  C   UNL d   1      44.915 -13.886  44.954  0.00  0.00     0.024 A 
ATOM     20  C   UNL d   1      45.646 -13.507  44.896  0.00  0.00     0.002 A 
ATOM     21  C   UNL d   1      46.303 -13.901  44.628  0.00  0.00     0.000 A 
ATOM     22  C   UNL d   1      46.254 -14.677  44.411  0.00  0.00     0.002 A 
BRANCH  18  23
ATOM     23  O   UNL d   1      44.130 -15.066  44.789  0.00  0.00    -0.328 OA
ATOM     24  C   UNL d   1      43.447 -14.685  44.543  0.00  0.00     0.181 C 
ENDBRANCH  18  23
ENDBRANCH  16  17
ENDBRANCH  15  16
ENDBRANCH  13  15
ENDBRANCH   1  13
BRANCH   2  25
ATOM     25  C   UNL d   1      46.086 -18.776  43.696  0.00  0.00     0.000 A 
ATOM     26  C   UNL d   1      46.647 -18.880  44.296  0.00  0.00     0.000 A 
ATOM     27  C   UNL d   1      46.512 -19.441  44.896  0.00  0.00     0.000 A 
ATOM     28  C   UNL d   1      45.820 -19.883  44.880  0.00  0.00     0.000 A 
ATOM     29  C   UNL d   1      45.262 -19.776  44.277  0.00  0.00     0.000 A 
ATOM     30  C   UNL d   1      45.394 -19.227  43.691  0.00  0.00     0.000 A 
ENDBRANCH   2  25
TORSDOF 6
ENDMDL
