MODEL 1
REMARK VINA RESULT:      -6.4      0.000      0.000
REMARK  4 active torsions:
REMARK  status: ('A' for Active; 'I' for Inactive)
REMARK    1  A    between atoms: C_9  and  C_3 
REMARK    2  A    between atoms: C_6  and  C_10 
REMARK    3  A    between atoms: S_8  and  C_9 
REMARK    4  A    between atoms: C_10  and  S_8 
ROOT
ATOM      1  C   UNL d   1     -47.400  14.130  22.861  0.00  0.00     0.074 C 
ENDROOT
BRANCH   1   2
ATOM      2  S   UNL d   1     -48.173  14.097  22.574  0.00  0.00    -0.083 SA
BRANCH   2   3
ATOM      3  C   UNL d   1     -48.664  14.748  22.700  0.00  0.00     0.035 C 
BRANCH   3   4
ATOM      4  C   UNL d   1     -49.459  14.682  22.493  0.00  0.00     0.006 A 
ATOM      5  C   UNL d   1     -49.999  15.190  22.861  0.00  0.00     0.001 A 
ATOM      6  C   UNL d   1     -49.761  15.749  23.419  0.00  0.00     0.000 C 
ATOM      7  C   UNL d   1     -50.813  15.143  22.668  0.00  0.00     0.000 A 
ATOM      8  C   UNL d   1     -51.064  14.596  22.119  0.00  0.00     0.000 A 
ATOM      9  C   UNL d   1     -50.508  14.104  21.770  0.00  0.00     0.000 A 
ATOM     10  C   UNL d   1     -49.693  14.154  21.965  0.00  0.00     0.001 A 
ENDBRANCH   3   4
ENDBRANCH   2   3
ENDBRANCH   1   2
BRANCH   1  11
ATOM     11  C   UNL d   1     -46.980  13.433  22.995  0.00  0.00     0.169 A 
ATOM     12  N   UNL d   1     -47.290  12.772  23.388  0.00  0.00    -0.225 NA
ATOM     13  C   UNL d   1     -46.685  12.195  23.403  0.00  0.00     0.101 A 
ATOM     14  C   UNL d   1     -46.008  12.527  23.010  0.00  0.00     0.101 A 
ATOM     15  C   UNL d   1     -46.630  11.440  23.698  0.00  0.00     0.021 A 
ATOM     16  N   UNL d   1     -46.217  13.298  22.766  0.00  0.00    -0.225 NA
ATOM     17  C   UNL d   1     -45.336  12.075  22.948  0.00  0.00     0.021 A 
ATOM     18  C   UNL d   1     -45.295  11.345  23.238  0.00  0.00     0.002 A 
ATOM     19  C   UNL d   1     -45.972  11.013  23.631  0.00  0.00     0.002 A 
ENDBRANCH   1  11
TORSDOF 4
ENDMDL
MODEL 2
REMARK VINA RESULT:      -6.1      1.492      2.051
REMARK  4 active torsions:
REMARK  status: ('A' for Active; 'I' for Inactive)
REMARK    1  A    between atoms: C_9  and  C_3 
REMARK    2  A    between atoms: C_6  and  C_10 
REMARK    3  A    between atoms: S_8  and  C_9 
REMARK    4  A    between atoms: C_10  and  S_8 
ROOT
ATOM      1  C   UNL d   1     -46.570  12.529  23.324  0.00  0.00     0.074 C 
ENDROOT
BRANCH   1   2
ATOM      2  S   UNL d   1     -47.261  12.339  22.915  0.00  0.00    -0.083 SA
BRANCH   2   3
ATOM      3  C   UNL d   1     -47.768  12.954  22.700  0.00  0.00     0.035 C 
BRANCH   3   4
ATOM      4  C   UNL d   1     -48.531  12.762  22.452  0.00  0.00     0.006 A 
ATOM      5  C   UNL d   1     -49.022  13.377  22.199  0.00  0.00     0.001 A 
ATOM      6  C   UNL d   1     -48.769  14.162  22.189  0.00  0.00     0.000 C 
ATOM      7  C   UNL d   1     -49.801  13.208  21.941  0.00  0.00     0.000 A 
ATOM      8  C   UNL d   1     -50.067  12.437  21.944  0.00  0.00     0.000 A 
ATOM      9  C   UNL d   1     -49.559  11.847  22.201  0.00  0.00     0.000 A 
ATOM     10  C   UNL d   1     -48.778  12.019  22.458  0.00  0.00     0.001 A 
ENDBRANCH   3   4
ENDBRANCH   2   3
ENDBRANCH   1   2
BRANCH   1  11
ATOM     11  C   UNL d   1     -45.931  12.006  23.318  0.00  0.00     0.169 A 
ATOM     12  N   UNL d   1     -45.951  11.243  23.643  0.00  0.00    -0.225 NA
ATOM     13  C   UNL d   1     -45.196  10.908  23.517  0.00  0.00     0.101 A 
ATOM     14  C   UNL d   1     -44.725  11.488  23.110  0.00  0.00     0.101 A 
ATOM     15  C   UNL d   1     -44.858  10.192  23.698  0.00  0.00     0.021 A 
ATOM     16  N   UNL d   1     -45.206  12.161  22.998  0.00  0.00    -0.225 NA
ATOM     17  C   UNL d   1     -43.959  11.299  22.919  0.00  0.00     0.021 A 
ATOM     18  C   UNL d   1     -43.643  10.602  23.100  0.00  0.00     0.002 A 
ATOM     19  C   UNL d   1     -44.113  10.022  23.507  0.00  0.00     0.002 A 
ENDBRANCH   1  11
TORSDOF 4
ENDMDL
MODEL 3
REMARK VINA RESULT:      -5.6      8.185      9.967
REMARK  4 active torsions:
REMARK  status: ('A' for Active; 'I' for Inactive)
REMARK    1  A    between atoms: C_9  and  C_3 
REMARK    2  A    between atoms: C_6  and  C_10 
REMARK    3  A    between atoms: S_8  and  C_9 
REMARK    4  A    between atoms: C_10  and  S_8 
ROOT
ATOM      1  C   UNL d   1     -40.145  14.230  18.587  0.00  0.00     0.074 C 
ENDROOT
BRANCH   1   2
ATOM      2  S   UNL d   1     -39.868  14.614  19.263  0.00  0.00    -0.083 SA
BRANCH   2   3
ATOM      3  C   UNL d   1     -40.411  14.801  19.856  0.00  0.00     0.035 C 
BRANCH   3   4
ATOM      4  C   UNL d   1     -40.122  15.072  20.579  0.00  0.00     0.006 A 
ATOM      5  C   UNL d   1     -40.571  15.630  20.991  0.00  0.00     0.001 A 
ATOM      6  C   UNL d   1     -41.287  15.917  20.699  0.00  0.00     0.000 C 
ATOM      7  C   UNL d   1     -40.298  15.922  21.728  0.00  0.00     0.000 A 
ATOM      8  C   UNL d   1     -39.593  15.650  22.031  0.00  0.00     0.000 A 
ATOM      9  C   UNL d   1     -39.168  15.095  21.602  0.00  0.00     0.000 A 
ATOM     10  C   UNL d   1     -39.443  14.805  20.863  0.00  0.00     0.001 A 
ENDBRANCH   3   4
ENDBRANCH   2   3
ENDBRANCH   1   2
BRANCH   1  11
ATOM     11  C   UNL d   1     -39.655  14.152  17.928  0.00  0.00     0.169 A 
ATOM     12  N   UNL d   1     -39.227  13.466  17.745  0.00  0.00    -0.225 NA
ATOM     13  C   UNL d   1     -38.808  13.624  17.039  0.00  0.00     0.101 A 
ATOM     14  C   UNL d   1     -38.996  14.420  16.805  0.00  0.00     0.101 A 
ATOM     15  C   UNL d   1     -38.299  13.194  16.575  0.00  0.00     0.021 A 
ATOM     16  N   UNL d   1     -39.524  14.726  17.375  0.00  0.00    -0.225 NA
ATOM     17  C   UNL d   1     -38.657  14.715  16.129  0.00  0.00     0.021 A 
ATOM     18  C   UNL d   1     -38.165  14.288  15.688  0.00  0.00     0.002 A 
ATOM     19  C   UNL d   1     -37.977  13.492  15.921  0.00  0.00     0.002 A 
ENDBRANCH   1  11
TORSDOF 4
ENDMDL
MODEL 4
REMARK VINA RESULT:      -5.3      8.512      9.650
REMARK  4 active torsions:
REMARK  status: ('A' for Active; 'I' for Inactive)
REMARK    1  A    between atoms: C_9  and  C_3 
REMARK    2  A    between atoms: C_6  and  C_10 
REMARK    3  A    between atoms: S_8  and  C_9 
REMARK    4  A    between atoms: C_10  and  S_8 
ROOT
ATOM      1  C   UNL d   1     -40.458  14.403  20.012  0.00  0.00     0.074 C 
ENDROOT
BRANCH   1   2
ATOM      2  S   UNL d   1     -39.965  14.755  20.573  0.00  0.00    -0.083 SA
BRANCH   2   3
ATOM      3  C   UNL d   1     -39.839  14.359  21.286  0.00  0.00     0.035 C 
BRANCH   3   4
ATOM      4  C   UNL d   1     -39.442  14.756  21.889  0.00  0.00     0.006 A 
ATOM      5  C   UNL d   1     -39.025  14.305  22.442  0.00  0.00     0.001 A 
ATOM      6  C   UNL d   1     -39.000  13.481  22.403  0.00  0.00     0.000 C 
ATOM      7  C   UNL d   1     -38.613  14.685  23.064  0.00  0.00     0.000 A 
ATOM      8  C   UNL d   1     -38.627  15.498  23.117  0.00  0.00     0.000 A 
ATOM      9  C   UNL d   1     -39.048  15.922  22.555  0.00  0.00     0.000 A 
ATOM     10  C   UNL d   1     -39.460  15.538  21.933  0.00  0.00     0.001 A 
ENDBRANCH   3   4
ENDBRANCH   2   3
ENDBRANCH   1   2
BRANCH   1  11
ATOM     11  C   UNL d   1     -40.442  14.662  19.229  0.00  0.00     0.169 A 
ATOM     12  N   UNL d   1     -40.018  14.286  18.624  0.00  0.00    -0.225 NA
ATOM     13  C   UNL d   1     -40.153  14.727  17.926  0.00  0.00     0.101 A 
ATOM     14  C   UNL d   1     -40.666  15.373  18.129  0.00  0.00     0.101 A 
ATOM     15  C   UNL d   1     -39.905  14.656  17.155  0.00  0.00     0.021 A 
ATOM     16  N   UNL d   1     -40.831  15.310  18.946  0.00  0.00    -0.225 NA
ATOM     17  C   UNL d   1     -40.886  15.892  17.544  0.00  0.00     0.021 A 
ATOM     18  C   UNL d   1     -40.639  15.813  16.801  0.00  0.00     0.002 A 
ATOM     19  C   UNL d   1     -40.126  15.166  16.598  0.00  0.00     0.002 A 
ENDBRANCH   1  11
TORSDOF 4
ENDMDL
MODEL 5
REMARK VINA RESULT:      -5.3      8.441      9.321
REMARK  4 active torsions:
REMARK  status: ('A' for Active; 'I' for Inactive)
REMARK    1  A    between atoms: C_9  and  C_3 
REMARK    2  A    between atoms: C_6  and  C_10 
REMARK    3  A    between atoms: S_8  and  C_9 
REMARK    4  A    between atoms: C_10  and  S_8 
ROOT
ATOM      1  C   UNL d   1     -40.514  14.734  20.170  0.00  0.00     0.074 C 
ENDROOT
BRANCH   1   2
ATOM      2  S   UNL d   1     -40.134  14.601  19.450  0.00  0.00    -0.083 SA
BRANCH   2   3
ATOM      3  C   UNL d   1     -40.555  14.743  18.754  0.00  0.00     0.035 C 
BRANCH   3   4
ATOM      4  C   UNL d   1     -40.171  14.622  18.034  0.00  0.00     0.006 A 
ATOM      5  C   UNL d   1     -40.416  15.070  17.385  0.00  0.00     0.001 A 
ATOM      6  C   UNL d   1     -41.025  15.625  17.441  0.00  0.00     0.000 C 
ATOM      7  C   UNL d   1     -40.042  14.967  16.642  0.00  0.00     0.000 A 
ATOM      8  C   UNL d   1     -39.439  14.423  16.569  0.00  0.00     0.000 A 
ATOM      9  C   UNL d   1     -39.216  13.992  17.229  0.00  0.00     0.000 A 
ATOM     10  C   UNL d   1     -39.593  14.098  17.972  0.00  0.00     0.001 A 
ENDBRANCH   3   4
ENDBRANCH   2   3
ENDBRANCH   1   2
BRANCH   1  11
ATOM     11  C   UNL d   1     -40.082  14.716  20.873  0.00  0.00     0.169 A 
ATOM     12  N   UNL d   1     -39.839  15.392  21.287  0.00  0.00    -0.225 NA
ATOM     13  C   UNL d   1     -39.422  15.125  21.960  0.00  0.00     0.101 A 
ATOM     14  C   UNL d   1     -39.421  14.275  21.938  0.00  0.00     0.101 A 
ATOM     15  C   UNL d   1     -39.048  15.497  22.579  0.00  0.00     0.021 A 
ATOM     16  N   UNL d   1     -39.839  14.046  21.252  0.00  0.00    -0.225 NA
ATOM     17  C   UNL d   1     -39.048  13.872  22.536  0.00  0.00     0.021 A 
ATOM     18  C   UNL d   1     -38.690  14.244  23.130  0.00  0.00     0.002 A 
ATOM     19  C   UNL d   1     -38.690  15.094  23.152  0.00  0.00     0.002 A 
ENDBRANCH   1  11
TORSDOF 4
ENDMDL
MODEL 6
REMARK VINA RESULT:      -5.1      8.915     10.022
REMARK  4 active torsions:
REMARK  status: ('A' for Active; 'I' for Inactive)
REMARK    1  A    between atoms: C_9  and  C_3 
REMARK    2  A    between atoms: C_6  and  C_10 
REMARK    3  A    between atoms: S_8  and  C_9 
REMARK    4  A    between atoms: C_10  and  S_8 
ROOT
ATOM      1  C   UNL d   1     -40.143  14.519  19.409  0.00  0.00     0.074 C 
ENDROOT
BRANCH   1   2
ATOM      2  S   UNL d   1     -39.596  14.327  18.822  0.00  0.00    -0.083 SA
BRANCH   2   3
ATOM      3  C   UNL d   1     -39.837  14.371  18.034  0.00  0.00     0.035 C 
BRANCH   3   4
ATOM      4  C   UNL d   1     -39.321  14.100  17.452  0.00  0.00     0.006 A 
ATOM      5  C   UNL d   1     -39.299  14.507  16.732  0.00  0.00     0.001 A 
ATOM      6  C   UNL d   1     -39.775  15.165  16.589  0.00  0.00     0.000 C 
ATOM      7  C   UNL d   1     -38.783  14.251  16.124  0.00  0.00     0.000 A 
ATOM      8  C   UNL d   1     -38.306  13.602  16.250  0.00  0.00     0.000 A 
ATOM      9  C   UNL d   1     -38.347  13.217  16.973  0.00  0.00     0.000 A 
ATOM     10  C   UNL d   1     -38.866  13.476  17.580  0.00  0.00     0.001 A 
ENDBRANCH   3   4
ENDBRANCH   2   3
ENDBRANCH   1   2
BRANCH   1  11
ATOM     11  C   UNL d   1     -39.883  14.703  20.170  0.00  0.00     0.169 A 
ATOM     12  N   UNL d   1     -39.719  14.137  20.755  0.00  0.00    -0.225 NA
ATOM     13  C   UNL d   1     -39.474  14.558  21.434  0.00  0.00     0.101 A 
ATOM     14  C   UNL d   1     -39.496  15.386  21.242  0.00  0.00     0.101 A 
ATOM     15  C   UNL d   1     -39.239  14.340  22.181  0.00  0.00     0.021 A 
ATOM     16  N   UNL d   1     -39.754  15.449  20.450  0.00  0.00    -0.225 NA
ATOM     17  C   UNL d   1     -39.281  15.922  21.813  0.00  0.00     0.021 A 
ATOM     18  C   UNL d   1     -39.055  15.698  22.533  0.00  0.00     0.002 A 
ATOM     19  C   UNL d   1     -39.033  14.870  22.725  0.00  0.00     0.002 A 
ENDBRANCH   1  11
TORSDOF 4
ENDMDL
MODEL 7
REMARK VINA RESULT:      -3.6      1.682      4.960
REMARK  4 active torsions:
REMARK  status: ('A' for Active; 'I' for Inactive)
REMARK    1  A    between atoms: C_9  and  C_3 
REMARK    2  A    between atoms: C_6  and  C_10 
REMARK    3  A    between atoms: S_8  and  C_9 
REMARK    4  A    between atoms: C_10  and  S_8 
ROOT
ATOM      1  C   UNL d   1     -47.781  11.544  23.541  0.00  0.00     0.074 C 
ENDROOT
BRANCH   1   2
ATOM      2  S   UNL d   1     -47.031  11.639  23.209  0.00  0.00    -0.083 SA
BRANCH   2   3
ATOM      3  C   UNL d   1     -46.373  11.454  23.672  0.00  0.00     0.035 C 
BRANCH   3   4
ATOM      4  C   UNL d   1     -45.625  11.518  23.331  0.00  0.00     0.006 A 
ATOM      5  C   UNL d   1     -45.143  10.847  23.325  0.00  0.00     0.001 A 
ATOM      6  C   UNL d   1     -45.390  10.129  23.649  0.00  0.00     0.000 C 
ATOM      7  C   UNL d   1     -44.379  10.886  22.984  0.00  0.00     0.000 A 
ATOM      8  C   UNL d   1     -44.119  11.588  22.661  0.00  0.00     0.000 A 
ATOM      9  C   UNL d   1     -44.618  12.238  22.679  0.00  0.00     0.000 A 
ATOM     10  C   UNL d   1     -45.383  12.196  23.022  0.00  0.00     0.001 A 
ENDBRANCH   3   4
ENDBRANCH   2   3
ENDBRANCH   1   2
BRANCH   1  11
ATOM     11  C   UNL d   1     -48.440  11.870  23.168  0.00  0.00     0.169 A 
ATOM     12  N   UNL d   1     -48.781  12.597  23.377  0.00  0.00    -0.225 NA
ATOM     13  C   UNL d   1     -49.430  12.715  22.864  0.00  0.00     0.101 A 
ATOM     14  C   UNL d   1     -49.470  12.042  22.345  0.00  0.00     0.101 A 
ATOM     15  C   UNL d   1     -49.983  13.304  22.778  0.00  0.00     0.021 A 
ATOM     16  N   UNL d   1     -48.843  11.532  22.555  0.00  0.00    -0.225 NA
ATOM     17  C   UNL d   1     -50.058  12.018  21.787  0.00  0.00     0.021 A 
ATOM     18  C   UNL d   1     -50.588  12.595  21.713  0.00  0.00     0.002 A 
ATOM     19  C   UNL d   1     -50.549  13.267  22.231  0.00  0.00     0.002 A 
ENDBRANCH   1  11
TORSDOF 4
ENDMDL
