MODEL 1
REMARK VINA RESULT:      -4.6      0.000      0.000
REMARK  5 active torsions:
REMARK  status: ('A' for Active; 'I' for Inactive)
REMARK    1  A    between atoms: O_2  and  S_1 
REMARK    2  A    between atoms: C_3  and  S_1 
REMARK    3  A    between atoms: C_6  and  O_2 
REMARK    4  A    between atoms: O_17  and  C_14 
REMARK    5  A    between atoms: C_20  and  O_17 
ROOT
ATOM      1  S   UNL d   1      57.709  -0.094  30.349  0.00  0.00     0.304 S 
ATOM      2  O   UNL d   1      57.983   0.678  30.427  0.00  0.00    -0.193 OA
ATOM      3  O   UNL d   1      57.436  -0.865  30.270  0.00  0.00    -0.193 OA
ENDROOT
BRANCH   1   4
ATOM      4  O   UNL d   1      58.035  -0.133  29.595  0.00  0.00    -0.227 OA
BRANCH   4   5
ATOM      5  C   UNL d   1      58.787  -0.453  29.487  0.00  0.00     0.114 A 
ATOM      6  C   UNL d   1      58.873  -1.240  29.242  0.00  0.00     0.026 A 
ATOM      7  C   UNL d   1      59.622  -1.558  29.135  0.00  0.00     0.002 A 
ATOM      8  C   UNL d   1      59.706  -2.342  28.891  0.00  0.00     0.000 A 
ATOM      9  C   UNL d   1      60.296  -1.092  29.273  0.00  0.00     0.000 A 
ATOM     10  C   UNL d   1      60.460  -2.665  28.782  0.00  0.00     0.000 A 
ATOM     11  C   UNL d   1      61.133  -2.200  28.920  0.00  0.00     0.000 A 
ATOM     12  C   UNL d   1      61.048  -1.414  29.165  0.00  0.00     0.000 A 
ATOM     13  C   UNL d   1      60.215  -0.313  29.516  0.00  0.00     0.002 A 
ATOM     14  C   UNL d   1      59.460   0.012  29.625  0.00  0.00     0.026 A 
ENDBRANCH   4   5
ENDBRANCH   1   4
BRANCH   1  15
ATOM     15  C   UNL d   1      57.383  -0.055  31.103  0.00  0.00     0.111 A 
ATOM     16  C   UNL d   1      57.003  -0.714  31.426  0.00  0.00     0.015 A 
ATOM     17  C   UNL d   1      56.677  -0.675  32.180  0.00  0.00     0.025 A 
ATOM     18  C   UNL d   1      56.725   0.023  32.622  0.00  0.00     0.100 A 
ATOM     19  C   UNL d   1      57.106   0.679  32.296  0.00  0.00     0.025 A 
ATOM     20  C   UNL d   1      57.432   0.640  31.542  0.00  0.00     0.015 A 
BRANCH  18  21
ATOM     21  O   UNL d   1      56.399   0.062  33.377  0.00  0.00    -0.305 OA
BRANCH  21  22
ATOM     22  C   UNL d   1      55.588   0.152  33.470  0.00  0.00     0.123 C 
ATOM     23  C   UNL d   1      55.275   0.324  34.211  0.00  0.00     0.029 C 
ENDBRANCH  21  22
ENDBRANCH  18  21
ENDBRANCH   1  15
TORSDOF 5
ENDMDL
MODEL 2
REMARK VINA RESULT:      -4.5      1.023      4.738
REMARK  5 active torsions:
REMARK  status: ('A' for Active; 'I' for Inactive)
REMARK    1  A    between atoms: O_2  and  S_1 
REMARK    2  A    between atoms: C_3  and  S_1 
REMARK    3  A    between atoms: C_6  and  O_2 
REMARK    4  A    between atoms: O_17  and  C_14 
REMARK    5  A    between atoms: C_20  and  O_17 
ROOT
ATOM      1  S   UNL d   1      58.354  -0.421  29.774  0.00  0.00     0.304 S 
ATOM      2  O   UNL d   1      58.874   0.204  29.650  0.00  0.00    -0.193 OA
ATOM      3  O   UNL d   1      57.834  -1.045  29.897  0.00  0.00    -0.193 OA
ENDROOT
BRANCH   1   4
ATOM      4  O   UNL d   1      57.784   0.107  30.043  0.00  0.00    -0.227 OA
BRANCH   4   5
ATOM      5  C   UNL d   1      57.600   0.141  30.846  0.00  0.00     0.114 A 
ATOM      6  C   UNL d   1      56.993  -0.330  31.155  0.00  0.00     0.026 A 
ATOM      7  C   UNL d   1      56.812  -0.295  31.955  0.00  0.00     0.002 A 
ATOM      8  C   UNL d   1      56.207  -0.765  32.261  0.00  0.00     0.000 A 
ATOM      9  C   UNL d   1      57.236   0.213  32.456  0.00  0.00     0.000 A 
ATOM     10  C   UNL d   1      56.021  -0.732  33.067  0.00  0.00     0.000 A 
ATOM     11  C   UNL d   1      56.446  -0.224  33.569  0.00  0.00     0.000 A 
ATOM     12  C   UNL d   1      57.052   0.247  33.260  0.00  0.00     0.000 A 
ATOM     13  C   UNL d   1      57.838   0.682  32.154  0.00  0.00     0.002 A 
ATOM     14  C   UNL d   1      58.025   0.649  31.347  0.00  0.00     0.026 A 
ENDBRANCH   4   5
ENDBRANCH   1   4
BRANCH   1  15
ATOM     15  C   UNL d   1      58.924  -0.949  29.504  0.00  0.00     0.111 A 
ATOM     16  C   UNL d   1      59.710  -0.707  29.425  0.00  0.00     0.015 A 
ATOM     17  C   UNL d   1      60.280  -1.235  29.155  0.00  0.00     0.025 A 
ATOM     18  C   UNL d   1      60.073  -2.013  28.962  0.00  0.00     0.100 A 
ATOM     19  C   UNL d   1      59.286  -2.251  29.043  0.00  0.00     0.025 A 
ATOM     20  C   UNL d   1      58.716  -1.722  29.312  0.00  0.00     0.015 A 
BRANCH  18  21
ATOM     21  O   UNL d   1      60.643  -2.542  28.692  0.00  0.00    -0.305 OA
BRANCH  21  22
ATOM     22  C   UNL d   1      60.509  -3.350  28.740  0.00  0.00     0.123 C 
ATOM     23  C   UNL d   1      61.133  -3.878  28.641  0.00  0.00     0.029 C 
ENDBRANCH  21  22
ENDBRANCH  18  21
ENDBRANCH   1  15
TORSDOF 5
ENDMDL
MODEL 3
REMARK VINA RESULT:      -4.5      0.669      1.039
REMARK  5 active torsions:
REMARK  status: ('A' for Active; 'I' for Inactive)
REMARK    1  A    between atoms: O_2  and  S_1 
REMARK    2  A    between atoms: C_3  and  S_1 
REMARK    3  A    between atoms: C_6  and  O_2 
REMARK    4  A    between atoms: O_17  and  C_14 
REMARK    5  A    between atoms: C_20  and  O_17 
ROOT
ATOM      1  S   UNL d   1      57.197  -0.155  30.835  0.00  0.00     0.304 S 
ATOM      2  O   UNL d   1      57.160  -0.976  30.875  0.00  0.00    -0.193 OA
ATOM      3  O   UNL d   1      57.234   0.665  30.796  0.00  0.00    -0.193 OA
ENDROOT
BRANCH   1   4
ATOM      4  O   UNL d   1      57.476  -0.205  30.064  0.00  0.00    -0.227 OA
BRANCH   4   5
ATOM      5  C   UNL d   1      58.285  -0.149  29.914  0.00  0.00     0.114 A 
ATOM      6  C   UNL d   1      58.704  -0.808  29.635  0.00  0.00     0.026 A 
ATOM      7  C   UNL d   1      59.509  -0.751  29.487  0.00  0.00     0.002 A 
ATOM      8  C   UNL d   1      59.924  -1.408  29.209  0.00  0.00     0.000 A 
ATOM      9  C   UNL d   1      59.906  -0.033  29.614  0.00  0.00     0.000 A 
ATOM     10  C   UNL d   1      60.736  -1.354  29.058  0.00  0.00     0.000 A 
ATOM     11  C   UNL d   1      61.133  -0.636  29.186  0.00  0.00     0.000 A 
ATOM     12  C   UNL d   1      60.716   0.022  29.464  0.00  0.00     0.000 A 
ATOM     13  C   UNL d   1      59.495   0.622  29.890  0.00  0.00     0.002 A 
ATOM     14  C   UNL d   1      58.682   0.568  30.042  0.00  0.00     0.026 A 
ENDBRANCH   4   5
ENDBRANCH   1   4
BRANCH   1  15
ATOM     15  C   UNL d   1      56.918  -0.105  31.608  0.00  0.00     0.111 A 
ATOM     16  C   UNL d   1      56.683  -0.788  32.009  0.00  0.00     0.015 A 
ATOM     17  C   UNL d   1      56.403  -0.738  32.781  0.00  0.00     0.025 A 
ATOM     18  C   UNL d   1      56.355  -0.005  33.163  0.00  0.00     0.100 A 
ATOM     19  C   UNL d   1      56.591   0.675  32.758  0.00  0.00     0.025 A 
ATOM     20  C   UNL d   1      56.870   0.625  31.986  0.00  0.00     0.015 A 
BRANCH  18  21
ATOM     21  O   UNL d   1      56.075   0.045  33.935  0.00  0.00    -0.305 OA
BRANCH  21  22
ATOM     22  C   UNL d   1      55.324   0.343  34.082  0.00  0.00     0.123 C 
ATOM     23  C   UNL d   1      55.118   0.584  34.842  0.00  0.00     0.029 C 
ENDBRANCH  21  22
ENDBRANCH  18  21
ENDBRANCH   1  15
TORSDOF 5
ENDMDL
MODEL 4
REMARK VINA RESULT:      -3.9      8.760      9.961
REMARK  5 active torsions:
REMARK  status: ('A' for Active; 'I' for Inactive)
REMARK    1  A    between atoms: O_2  and  S_1 
REMARK    2  A    between atoms: C_3  and  S_1 
REMARK    3  A    between atoms: C_6  and  O_2 
REMARK    4  A    between atoms: O_17  and  C_14 
REMARK    5  A    between atoms: C_20  and  O_17 
ROOT
ATOM      1  S   UNL d   1      59.267  -9.803  33.915  0.00  0.00     0.304 S 
ATOM      2  O   UNL d   1      58.503  -9.807  34.221  0.00  0.00    -0.193 OA
ATOM      3  O   UNL d   1      60.029  -9.799  33.609  0.00  0.00    -0.193 OA
ENDROOT
BRANCH   1   4
ATOM      4  O   UNL d   1      59.573  -9.804  34.678  0.00  0.00    -0.227 OA
BRANCH   4   5
ATOM      5  C   UNL d   1      59.856  -9.105  35.009  0.00  0.00     0.114 A 
ATOM      6  C   UNL d   1      59.327  -8.527  35.280  0.00  0.00     0.026 A 
ATOM      7  C   UNL d   1      59.611  -7.831  35.610  0.00  0.00     0.002 A 
ATOM      8  C   UNL d   1      59.082  -7.258  35.879  0.00  0.00     0.000 A 
ATOM      9  C   UNL d   1      60.428  -7.703  35.673  0.00  0.00     0.000 A 
ATOM     10  C   UNL d   1      59.365  -6.555  36.212  0.00  0.00     0.000 A 
ATOM     11  C   UNL d   1      60.182  -6.427  36.275  0.00  0.00     0.000 A 
ATOM     12  C   UNL d   1      60.711  -7.003  36.004  0.00  0.00     0.000 A 
ATOM     13  C   UNL d   1      60.956  -8.273  35.406  0.00  0.00     0.002 A 
ATOM     14  C   UNL d   1      60.674  -8.977  35.072  0.00  0.00     0.026 A 
ENDBRANCH   4   5
ENDBRANCH   1   4
BRANCH   1  15
ATOM     15  C   UNL d   1      58.960  -9.802  33.151  0.00  0.00     0.111 A 
ATOM     16  C   UNL d   1      59.468  -9.816  32.500  0.00  0.00     0.015 A 
ATOM     17  C   UNL d   1      59.162  -9.815  31.736  0.00  0.00     0.025 A 
ATOM     18  C   UNL d   1      58.343  -9.800  31.613  0.00  0.00     0.100 A 
ATOM     19  C   UNL d   1      57.840  -9.786  32.267  0.00  0.00     0.025 A 
ATOM     20  C   UNL d   1      58.146  -9.787  33.031  0.00  0.00     0.015 A 
BRANCH  18  21
ATOM     21  O   UNL d   1      58.037  -9.799  30.850  0.00  0.00    -0.305 OA
BRANCH  21  22
ATOM     22  C   UNL d   1      58.542  -9.744  30.204  0.00  0.00     0.123 C 
ATOM     23  C   UNL d   1      58.237  -9.758  29.440  0.00  0.00     0.029 C 
ENDBRANCH  21  22
ENDBRANCH  18  21
ENDBRANCH   1  15
TORSDOF 5
ENDMDL
