MODEL 1
REMARK VINA RESULT:      51.9      0.000      0.000
REMARK  5 active torsions:
REMARK  status: ('A' for Active; 'I' for Inactive)
REMARK       I    between atoms: C_2  and  N_1 
REMARK    1  A    between atoms: C_5  and  N_1 
REMARK    2  A    between atoms: C_6  and  N_1 
REMARK    3  A    between atoms: C_4  and  C_2 
REMARK    4  A    between atoms: N_3  and  C_5 
REMARK    5  A    between atoms: O_16  and  C_11 
ROOT
ATOM      1  N   UNL d   1      44.799 -15.594  37.349  0.00  0.00    -0.256 N 
ATOM      2  C   UNL d   1      45.572 -15.297  37.341  0.00  0.00     0.270 C 
ATOM      3  O   UNL d   1      46.183 -15.750  37.207  0.00  0.00    -0.266 OA
ENDROOT
BRANCH   1   4
ATOM      4  C   UNL d   1      44.157 -15.095  37.494  0.00  0.00     0.172 C 
BRANCH   4   5
ATOM      5  N   UNL d   1      43.386 -15.118  37.204  0.00  0.00    -0.257 N 
ATOM      6  C   UNL d   1      42.692 -14.969  37.621  0.00  0.00     0.266 A 
ATOM      7  O   UNL d   1      42.645 -14.766  38.424  0.00  0.00    -0.267 OA
ATOM      8  C   UNL d   1      42.046 -15.057  37.104  0.00  0.00     0.063 A 
ATOM      9  C   UNL d   1      42.345 -15.262  36.361  0.00  0.00     0.024 A 
ATOM     10  C   UNL d   1      43.168 -15.302  36.412  0.00  0.00     0.085 A 
ENDBRANCH   4   5
ENDBRANCH   1   4
BRANCH   1  11
ATOM     11  C   UNL d   1      44.665 -16.400  37.210  0.00  0.00     0.090 A 
ATOM     12  C   UNL d   1      44.744 -16.945  37.829  0.00  0.00     0.110 A 
ATOM     13  C   UNL d   1      44.611 -17.738  37.686  0.00  0.00     0.026 A 
ATOM     14  C   UNL d   1      44.402 -17.996  36.938  0.00  0.00     0.002 A 
ATOM     15  C   UNL d   1      44.325 -17.461  36.331  0.00  0.00     0.002 A 
ATOM     16  C   UNL d   1      44.453 -16.662  36.451  0.00  0.00     0.020 A 
BRANCH  12  17
ATOM     17  O   UNL d   1      44.952 -16.688  38.572  0.00  0.00    -0.327 OA
ATOM     18  C   UNL d   1      45.038 -17.233  39.181  0.00  0.00     0.181 C 
ENDBRANCH  12  17
ENDBRANCH   1  11
BRANCH   2  19
ATOM     19  C   UNL d   1      45.691 -14.496  37.481  0.00  0.00     0.111 A 
ATOM     20  C   UNL d   1      45.312 -14.128  38.131  0.00  0.00     0.147 A 
ATOM     21  F   UNL d   1      44.827 -14.563  38.624  0.00  0.00    -0.204 F 
ATOM     22  C   UNL d   1      45.443 -13.324  38.255  0.00  0.00     0.030 A 
ATOM     23  C   UNL d   1      45.936 -12.899  37.747  0.00  0.00     0.005 A 
ATOM     24  C   UNL d   1      46.304 -13.272  37.109  0.00  0.00     0.030 A 
ATOM     25  C   UNL d   1      46.180 -14.066  36.980  0.00  0.00     0.147 A 
ATOM     26  F   UNL d   1      46.546 -14.444  36.342  0.00  0.00    -0.204 F 
ENDBRANCH   2  19
TORSDOF 5
ENDMDL
