MODEL 1
REMARK VINA RESULT:      84.9      0.000      0.000
REMARK  5 active torsions:
REMARK  status: ('A' for Active; 'I' for Inactive)
REMARK    1  A    between atoms: C_7  and  S_1 
REMARK    2  A    between atoms: N_8  and  S_1 
REMARK    3  A    between atoms: S_2  and  N_4 
REMARK    4  A    between atoms: C_12  and  S_2 
REMARK    5  A    between atoms: N_4  and  C_3 
ROOT
ATOM      1  C   UNL d   1     -55.494-100.963 -42.790  0.00  0.00     0.206 A 
ATOM      2  N   UNL d   1     -55.089-101.684 -42.751  0.00  0.00    -0.220 NA
ATOM      3  S   UNL d   1     -55.830-100.823 -42.046  0.00  0.00    -0.046 SA
ATOM      4  C   UNL d   1     -55.527-102.311 -40.406  0.00  0.00     0.105 A 
ATOM      5  C   UNL d   1     -55.629-101.459 -41.553  0.00  0.00     0.051 A 
ATOM      6  C   UNL d   1     -55.173-101.989 -41.989  0.00  0.00     0.090 A 
ATOM      7  C   UNL d   1     -55.807-101.620 -40.759  0.00  0.00     0.021 A 
ATOM      8  C   UNL d   1     -55.067-102.842 -40.853  0.00  0.00     0.015 A 
ATOM      9  C   UNL d   1     -54.892-102.680 -41.637  0.00  0.00     0.020 A 
ENDROOT
BRANCH   1  10
ATOM     10  N   UNL d   1     -55.554-100.471 -43.450  0.00  0.00    -0.132 NA
BRANCH  10  11
ATOM     11  S   UNL d   1     -55.966-100.215 -44.115  0.00  0.00     0.287 S 
ATOM     12  O   UNL d   1     -55.345-100.461 -44.595  0.00  0.00    -0.198 OA
ATOM     13  O   UNL d   1     -56.460-100.044 -43.474  0.00  0.00    -0.198 OA
BRANCH  11  14
ATOM     14  C   UNL d   1     -56.635 -99.871 -44.450  0.00  0.00     0.105 A 
ATOM     15  C   UNL d   1     -56.559 -99.158 -44.871  0.00  0.00     0.015 A 
ATOM     16  C   UNL d   1     -57.222 -98.803 -45.211  0.00  0.00     0.030 A 
ATOM     17  C   UNL d   1     -57.963 -99.152 -45.136  0.00  0.00     0.140 A 
ATOM     18  C   UNL d   1     -58.046 -99.862 -44.718  0.00  0.00     0.030 A 
ATOM     19  F   UNL d   1     -58.625 -98.798 -45.475  0.00  0.00    -0.204 F 
ATOM     20  C   UNL d   1     -57.374-100.217 -44.377  0.00  0.00     0.015 A 
ENDBRANCH  11  14
ENDBRANCH  10  11
ENDBRANCH   1  10
BRANCH   4  21
ATOM     21  S   UNL d   1     -55.700-102.475 -39.625  0.00  0.00     0.271 S 
ATOM     22  O   UNL d   1     -56.669-102.669 -39.678  0.00  0.00    -0.200 OA
ATOM     23  O   UNL d   1     -54.711-102.291 -39.482  0.00  0.00    -0.200 OA
BRANCH  21  24
ATOM     24  N   UNL d   1     -55.660-102.601 -38.798  0.00  0.00    -0.229 N 
ATOM     25  C   UNL d   1     -54.985-102.544 -38.325  0.00  0.00     0.092 A 
ATOM     26  C   UNL d   1     -55.210-102.715 -37.550  0.00  0.00     0.021 A 
ATOM     27  C   UNL d   1     -56.018-102.878 -37.539  0.00  0.00     0.021 A 
ATOM     28  C   UNL d   1     -56.301-102.809 -38.313  0.00  0.00     0.092 A 
ENDBRANCH  21  24
ENDBRANCH   4  21
TORSDOF 5
ENDMDL
