MODEL 1
REMARK VINA RESULT:      79.2      0.000      0.000
REMARK  3 active torsions:
REMARK  status: ('A' for Active; 'I' for Inactive)
REMARK    1  A    between atoms: C_10  and  C_4 
REMARK    2  A    between atoms: C_11  and  C_6 
REMARK    3  A    between atoms: C_12  and  C_9 
ROOT
ATOM      1  N   UNL d   1     -58.403 -99.419 -43.458  0.00  0.00    -0.212 N 
ATOM      2  C   UNL d   1     -59.183 -99.243 -43.693  0.00  0.00     0.166 A 
ATOM      3  N   UNL d   1     -58.397 -99.522 -42.640  0.00  0.00    -0.158 NA
ATOM      4  C   UNL d   1     -59.178 -99.410 -42.368  0.00  0.00     0.169 A 
ATOM      5  C   UNL d   1     -59.645 -99.241 -43.016  0.00  0.00     0.066 A 
ATOM      6  C   UNL d   1     -57.804 -99.460 -44.026  0.00  0.00     0.086 A 
ATOM      7  N   UNL d   1     -59.359 -99.110 -44.496  0.00  0.00    -0.227 NA
ATOM      8  C   UNL d   1     -57.969 -99.328 -44.831  0.00  0.00     0.038 A 
ATOM      9  C   UNL d   1     -58.748 -99.153 -45.066  0.00  0.00     0.085 A 
ENDROOT
BRANCH   6  10
ATOM     10  C   UNL d   1     -56.991 -99.619 -43.967  0.00  0.00     0.018 A 
ATOM     11  C   UNL d   1     -56.742-100.392 -43.838  0.00  0.00     0.002 A 
ATOM     12  C   UNL d   1     -55.989-100.551 -43.781  0.00  0.00     0.000 A 
ATOM     13  C   UNL d   1     -55.401 -99.934 -43.850  0.00  0.00     0.000 A 
ATOM     14  C   UNL d   1     -55.621 -99.173 -43.975  0.00  0.00     0.000 A 
ATOM     15  C   UNL d   1     -56.429 -99.016 -44.035  0.00  0.00     0.002 A 
ENDBRANCH   6  10
BRANCH   9  16
ATOM     16  C   UNL d   1     -58.931 -99.021 -45.848  0.00  0.00     0.018 A 
ATOM     17  C   UNL d   1     -58.341 -98.890 -46.403  0.00  0.00     0.002 A 
ATOM     18  C   UNL d   1     -58.540 -98.761 -47.174  0.00  0.00     0.000 A 
ATOM     19  C   UNL d   1     -59.345 -98.756 -47.436  0.00  0.00     0.000 A 
ATOM     20  C   UNL d   1     -59.934 -98.887 -46.882  0.00  0.00     0.000 A 
ATOM     21  C   UNL d   1     -59.734 -99.021 -46.081  0.00  0.00     0.002 A 
ENDBRANCH   9  16
BRANCH   4  22
ATOM     22  C   UNL d   1     -59.425 -99.461 -41.588  0.00  0.00     0.231 C 
ATOM     23  O   UNL d   1     -59.586 -98.769 -41.173  0.00  0.00    -0.643 OA
ATOM     24  O   UNL d   1     -59.505-100.208 -41.242  0.00  0.00    -0.643 OA
ENDBRANCH   4  22
TORSDOF 3
ENDMDL
