MODEL 1
REMARK VINA RESULT:      -7.0      0.000      0.000
REMARK  3 active torsions:
REMARK  status: ('A' for Active; 'I' for Inactive)
REMARK    1  A    between atoms: C_8  and  N_1 
REMARK    2  A    between atoms: N_10  and  C_5 
REMARK    3  A    between atoms: C_15  and  N_10 
ROOT
ATOM      1  N   UNL d   1     -48.429  14.652  22.793  0.00  0.00    -0.212 N 
ATOM      2  C   UNL d   1     -48.042  13.935  22.929  0.00  0.00     0.170 A 
ATOM      3  C   UNL d   1     -47.235  14.056  22.810  0.00  0.00     0.093 A 
ATOM      4  N   UNL d   1     -47.856  15.217  22.589  0.00  0.00    -0.162 NA
ATOM      5  C   UNL d   1     -46.702  13.427  22.908  0.00  0.00     0.169 A 
ATOM      6  C   UNL d   1     -47.119  14.841  22.601  0.00  0.00     0.127 A 
ATOM      7  N   UNL d   1     -48.329  13.188  23.147  0.00  0.00    -0.205 NA
ATOM      8  N   UNL d   1     -46.989  12.680  23.126  0.00  0.00    -0.205 NA
ATOM      9  C   UNL d   1     -47.798  12.567  23.243  0.00  0.00     0.202 A 
ENDROOT
BRANCH   1  10
ATOM     10  C   UNL d   1     -49.242  14.785  22.849  0.00  0.00     0.085 A 
ATOM     11  C   UNL d   1     -49.741  14.548  22.243  0.00  0.00     0.019 A 
ATOM     12  C   UNL d   1     -50.559  14.683  22.302  0.00  0.00     0.002 A 
ATOM     13  C   UNL d   1     -51.064  14.448  21.699  0.00  0.00     0.000 C 
ATOM     14  C   UNL d   1     -50.868  15.052  22.962  0.00  0.00     0.000 A 
ATOM     15  C   UNL d   1     -50.361  15.293  23.577  0.00  0.00     0.002 A 
ATOM     16  C   UNL d   1     -49.558  15.163  23.526  0.00  0.00     0.019 A 
ENDBRANCH   1  10
BRANCH   5  17
ATOM     17  N   UNL d   1     -45.902  13.538  22.793  0.00  0.00    -0.227 NA
BRANCH  17  18
ATOM     18  C   UNL d   1     -45.443  12.934  22.491  0.00  0.00     0.083 C 
ATOM     19  C   UNL d   1     -45.254  12.280  22.959  0.00  0.00     0.021 C 
ATOM     20  C   UNL d   1     -45.161  12.972  21.712  0.00  0.00     0.021 C 
ENDBRANCH  17  18
ENDBRANCH   5  17
TORSDOF 3
ENDMDL
MODEL 2
REMARK VINA RESULT:      -6.9      0.973      1.501
REMARK  3 active torsions:
REMARK  status: ('A' for Active; 'I' for Inactive)
REMARK    1  A    between atoms: C_8  and  N_1 
REMARK    2  A    between atoms: N_10  and  C_5 
REMARK    3  A    between atoms: C_15  and  N_10 
ROOT
ATOM      1  N   UNL d   1     -47.941  13.847  22.906  0.00  0.00    -0.212 N 
ATOM      2  C   UNL d   1     -47.816  13.060  23.121  0.00  0.00     0.170 A 
ATOM      3  C   UNL d   1     -47.014  12.967  23.291  0.00  0.00     0.093 A 
ATOM      4  N   UNL d   1     -47.211  14.241  22.945  0.00  0.00    -0.162 NA
ATOM      5  C   UNL d   1     -46.722  12.226  23.525  0.00  0.00     0.169 A 
ATOM      6  C   UNL d   1     -46.642  13.691  23.184  0.00  0.00     0.127 A 
ATOM      7  N   UNL d   1     -48.337  12.417  23.181  0.00  0.00    -0.205 NA
ATOM      8  N   UNL d   1     -47.243  11.583  23.585  0.00  0.00    -0.205 NA
ATOM      9  C   UNL d   1     -48.043  11.684  23.413  0.00  0.00     0.202 A 
ENDROOT
BRANCH   1  10
ATOM     10  C   UNL d   1     -48.663  14.185  22.691  0.00  0.00     0.085 A 
ATOM     11  C   UNL d   1     -49.076  14.649  23.224  0.00  0.00     0.019 A 
ATOM     12  C   UNL d   1     -49.803  14.988  23.006  0.00  0.00     0.002 A 
ATOM     13  C   UNL d   1     -50.221  15.454  23.536  0.00  0.00     0.000 C 
ATOM     14  C   UNL d   1     -50.107  14.859  22.259  0.00  0.00     0.000 A 
ATOM     15  C   UNL d   1     -49.688  14.388  21.716  0.00  0.00     0.002 A 
ATOM     16  C   UNL d   1     -48.975  14.053  21.924  0.00  0.00     0.019 A 
ENDBRANCH   1  10
BRANCH   5  17
ATOM     17  N   UNL d   1     -45.930  12.126  23.696  0.00  0.00    -0.227 NA
BRANCH  17  18
ATOM     18  C   UNL d   1     -45.517  11.499  23.375  0.00  0.00     0.083 C 
ATOM     19  C   UNL d   1     -45.006  11.618  22.738  0.00  0.00     0.021 C 
ATOM     20  C   UNL d   1     -45.608  10.736  23.688  0.00  0.00     0.021 C 
ENDBRANCH  17  18
ENDBRANCH   5  17
TORSDOF 3
ENDMDL
MODEL 3
REMARK VINA RESULT:      -6.3      1.352      1.657
REMARK  3 active torsions:
REMARK  status: ('A' for Active; 'I' for Inactive)
REMARK    1  A    between atoms: C_8  and  N_1 
REMARK    2  A    between atoms: N_10  and  C_5 
REMARK    3  A    between atoms: C_15  and  N_10 
ROOT
ATOM      1  N   UNL d   1     -48.811  13.068  22.331  0.00  0.00    -0.212 N 
ATOM      2  C   UNL d   1     -48.091  12.909  22.703  0.00  0.00     0.170 A 
ATOM      3  C   UNL d   1     -47.489  13.027  22.152  0.00  0.00     0.093 A 
ATOM      4  N   UNL d   1     -48.651  13.285  21.546  0.00  0.00    -0.162 NA
ATOM      5  C   UNL d   1     -46.696  12.908  22.369  0.00  0.00     0.169 A 
ATOM      6  C   UNL d   1     -47.831  13.257  21.442  0.00  0.00     0.127 A 
ATOM      7  N   UNL d   1     -47.912  12.671  23.477  0.00  0.00    -0.205 NA
ATOM      8  N   UNL d   1     -46.518  12.670  23.143  0.00  0.00    -0.205 NA
ATOM      9  C   UNL d   1     -47.125  12.554  23.690  0.00  0.00     0.202 A 
ENDROOT
BRANCH   1  10
ATOM     10  C   UNL d   1     -49.559  13.019  22.678  0.00  0.00     0.085 A 
ATOM     11  C   UNL d   1     -49.903  13.685  23.009  0.00  0.00     0.019 A 
ATOM     12  C   UNL d   1     -50.656  13.635  23.357  0.00  0.00     0.002 A 
ATOM     13  C   UNL d   1     -51.006  14.298  23.690  0.00  0.00     0.000 C 
ATOM     14  C   UNL d   1     -51.055  12.922  23.371  0.00  0.00     0.000 A 
ATOM     15  C   UNL d   1     -50.705  12.245  23.035  0.00  0.00     0.002 A 
ATOM     16  C   UNL d   1     -49.967  12.288  22.692  0.00  0.00     0.019 A 
ENDBRANCH   1  10
BRANCH   5  17
ATOM     17  N   UNL d   1     -46.096  13.023  21.829  0.00  0.00    -0.227 NA
BRANCH  17  18
ATOM     18  C   UNL d   1     -45.324  13.101  22.084  0.00  0.00     0.083 C 
ATOM     19  C   UNL d   1     -44.858  12.431  22.215  0.00  0.00     0.021 C 
ATOM     20  C   UNL d   1     -45.001  13.853  22.213  0.00  0.00     0.021 C 
ENDBRANCH  17  18
ENDBRANCH   5  17
TORSDOF 3
ENDMDL
MODEL 4
REMARK VINA RESULT:      -6.2      8.047      9.816
REMARK  3 active torsions:
REMARK  status: ('A' for Active; 'I' for Inactive)
REMARK    1  A    between atoms: C_8  and  N_1 
REMARK    2  A    between atoms: N_10  and  C_5 
REMARK    3  A    between atoms: C_15  and  N_10 
ROOT
ATOM      1  N   UNL d   1     -40.310  14.795  18.680  0.00  0.00    -0.212 N 
ATOM      2  C   UNL d   1     -39.569  14.905  18.333  0.00  0.00     0.170 A 
ATOM      3  C   UNL d   1     -39.615  14.648  17.551  0.00  0.00     0.093 A 
ATOM      4  N   UNL d   1     -40.815  14.469  18.107  0.00  0.00    -0.162 NA
ATOM      5  C   UNL d   1     -38.947  14.692  17.059  0.00  0.00     0.169 A 
ATOM      6  C   UNL d   1     -40.378  14.381  17.411  0.00  0.00     0.127 A 
ATOM      7  N   UNL d   1     -38.860  15.208  18.637  0.00  0.00    -0.205 NA
ATOM      8  N   UNL d   1     -38.237  14.995  17.363  0.00  0.00    -0.205 NA
ATOM      9  C   UNL d   1     -38.199  15.250  18.147  0.00  0.00     0.202 A 
ENDROOT
BRANCH   1  10
ATOM     10  C   UNL d   1     -40.515  14.978  19.459  0.00  0.00     0.085 A 
ATOM     11  C   UNL d   1     -40.441  14.412  20.048  0.00  0.00     0.019 A 
ATOM     12  C   UNL d   1     -40.648  14.598  20.831  0.00  0.00     0.002 A 
ATOM     13  C   UNL d   1     -40.575  14.036  21.425  0.00  0.00     0.000 C 
ATOM     14  C   UNL d   1     -40.925  15.343  21.017  0.00  0.00     0.000 A 
ATOM     15  C   UNL d   1     -41.001  15.917  20.419  0.00  0.00     0.002 A 
ATOM     16  C   UNL d   1     -40.800  15.742  19.649  0.00  0.00     0.019 A 
ENDBRANCH   1  10
BRANCH   5  17
ATOM     17  N   UNL d   1     -38.984  14.440  16.284  0.00  0.00    -0.227 NA
BRANCH  17  18
ATOM     18  C   UNL d   1     -38.297  14.308  15.862  0.00  0.00     0.083 C 
ATOM     19  C   UNL d   1     -37.944  13.561  15.863  0.00  0.00     0.021 C 
ATOM     20  C   UNL d   1     -37.949  14.923  15.429  0.00  0.00     0.021 C 
ENDBRANCH  17  18
ENDBRANCH   5  17
TORSDOF 3
ENDMDL
MODEL 5
REMARK VINA RESULT:      -6.1      7.712     10.294
REMARK  3 active torsions:
REMARK  status: ('A' for Active; 'I' for Inactive)
REMARK    1  A    between atoms: C_8  and  N_1 
REMARK    2  A    between atoms: N_10  and  C_5 
REMARK    3  A    between atoms: C_15  and  N_10 
ROOT
ATOM      1  N   UNL d   1     -39.629  14.161  17.721  0.00  0.00    -0.212 N 
ATOM      2  C   UNL d   1     -39.478  14.443  18.482  0.00  0.00     0.170 A 
ATOM      3  C   UNL d   1     -40.199  14.504  18.878  0.00  0.00     0.093 A 
ATOM      4  N   UNL d   1     -40.448  14.048  17.648  0.00  0.00    -0.162 NA
ATOM      5  C   UNL d   1     -40.221  14.775  19.663  0.00  0.00     0.169 A 
ATOM      6  C   UNL d   1     -40.795  14.262  18.368  0.00  0.00     0.127 A 
ATOM      7  N   UNL d   1     -38.770  14.651  18.862  0.00  0.00    -0.205 NA
ATOM      8  N   UNL d   1     -39.514  14.983  20.042  0.00  0.00    -0.205 NA
ATOM      9  C   UNL d   1     -38.796  14.919  19.640  0.00  0.00     0.202 A 
ENDROOT
BRANCH   1  10
ATOM     10  C   UNL d   1     -39.066  14.017  17.135  0.00  0.00     0.085 A 
ATOM     11  C   UNL d   1     -38.881  14.599  16.588  0.00  0.00     0.019 A 
ATOM     12  C   UNL d   1     -38.314  14.452  15.999  0.00  0.00     0.002 A 
ATOM     13  C   UNL d   1     -38.125  15.031  15.449  0.00  0.00     0.000 C 
ATOM     14  C   UNL d   1     -37.940  13.727  15.962  0.00  0.00     0.000 A 
ATOM     15  C   UNL d   1     -38.127  13.135  16.517  0.00  0.00     0.002 A 
ATOM     16  C   UNL d   1     -38.682  13.273  17.097  0.00  0.00     0.019 A 
ENDBRANCH   1  10
BRANCH   5  17
ATOM     17  N   UNL d   1     -40.931  14.838  20.061  0.00  0.00    -0.227 NA
BRANCH  17  18
ATOM     18  C   UNL d   1     -40.942  15.054  20.848  0.00  0.00     0.083 C 
ATOM     19  C   UNL d   1     -40.817  14.489  21.438  0.00  0.00     0.021 C 
ATOM     20  C   UNL d   1     -41.080  15.843  21.063  0.00  0.00     0.021 C 
ENDBRANCH  17  18
ENDBRANCH   5  17
TORSDOF 3
ENDMDL
MODEL 6
REMARK VINA RESULT:      -5.8      8.104      9.336
REMARK  3 active torsions:
REMARK  status: ('A' for Active; 'I' for Inactive)
REMARK    1  A    between atoms: C_8  and  N_1 
REMARK    2  A    between atoms: N_10  and  C_5 
REMARK    3  A    between atoms: C_15  and  N_10 
ROOT
ATOM      1  N   UNL d   1     -40.211  14.738  19.423  0.00  0.00    -0.212 N 
ATOM      2  C   UNL d   1     -39.617  15.044  19.909  0.00  0.00     0.170 A 
ATOM      3  C   UNL d   1     -39.844  14.924  20.693  0.00  0.00     0.093 A 
ATOM      4  N   UNL d   1     -40.806  14.428  19.911  0.00  0.00    -0.162 NA
ATOM      5  C   UNL d   1     -39.351  15.177  21.311  0.00  0.00     0.169 A 
ATOM      6  C   UNL d   1     -40.573  14.546  20.696  0.00  0.00     0.127 A 
ATOM      7  N   UNL d   1     -38.899  15.417  19.730  0.00  0.00    -0.205 NA
ATOM      8  N   UNL d   1     -38.633  15.551  21.133  0.00  0.00    -0.205 NA
ATOM      9  C   UNL d   1     -38.413  15.667  20.346  0.00  0.00     0.202 A 
ENDROOT
BRANCH   1  10
ATOM     10  C   UNL d   1     -40.213  14.739  18.597  0.00  0.00     0.085 A 
ATOM     11  C   UNL d   1     -40.606  15.331  18.187  0.00  0.00     0.019 A 
ATOM     12  C   UNL d   1     -40.607  15.330  17.356  0.00  0.00     0.002 A 
ATOM     13  C   UNL d   1     -40.998  15.920  16.940  0.00  0.00     0.000 C 
ATOM     14  C   UNL d   1     -40.217  14.742  16.946  0.00  0.00     0.000 A 
ATOM     15  C   UNL d   1     -39.819  14.141  17.362  0.00  0.00     0.002 A 
ATOM     16  C   UNL d   1     -39.814  14.135  18.176  0.00  0.00     0.019 A 
ENDBRANCH   1  10
BRANCH   5  17
ATOM     17  N   UNL d   1     -39.569  15.062  22.089  0.00  0.00    -0.227 NA
BRANCH  17  18
ATOM     18  C   UNL d   1     -39.027  15.181  22.689  0.00  0.00     0.083 C 
ATOM     19  C   UNL d   1     -38.958  15.922  23.048  0.00  0.00     0.021 C 
ATOM     20  C   UNL d   1     -38.542  14.559  22.943  0.00  0.00     0.021 C 
ENDBRANCH  17  18
ENDBRANCH   5  17
TORSDOF 3
ENDMDL
MODEL 7
REMARK VINA RESULT:      -5.6      8.024      9.483
REMARK  3 active torsions:
REMARK  status: ('A' for Active; 'I' for Inactive)
REMARK    1  A    between atoms: C_8  and  N_1 
REMARK    2  A    between atoms: N_10  and  C_5 
REMARK    3  A    between atoms: C_15  and  N_10 
ROOT
ATOM      1  N   UNL d   1     -39.941  14.680  20.731  0.00  0.00    -0.212 N 
ATOM      2  C   UNL d   1     -39.656  14.931  19.998  0.00  0.00     0.170 A 
ATOM      3  C   UNL d   1     -40.257  14.824  19.443  0.00  0.00     0.093 A 
ATOM      4  N   UNL d   1     -40.721  14.417  20.627  0.00  0.00    -0.162 NA
ATOM      5  C   UNL d   1     -40.129  15.029  18.648  0.00  0.00     0.169 A 
ATOM      6  C   UNL d   1     -40.910  14.509  19.827  0.00  0.00     0.127 A 
ATOM      7  N   UNL d   1     -38.922  15.243  19.771  0.00  0.00    -0.205 NA
ATOM      8  N   UNL d   1     -39.396  15.342  18.421  0.00  0.00    -0.205 NA
ATOM      9  C   UNL d   1     -38.800  15.446  18.982  0.00  0.00     0.202 A 
ENDROOT
BRANCH   1  10
ATOM     10  C   UNL d   1     -39.524  14.688  21.444  0.00  0.00     0.085 A 
ATOM     11  C   UNL d   1     -39.160  14.007  21.717  0.00  0.00     0.019 A 
ATOM     12  C   UNL d   1     -38.741  14.017  22.434  0.00  0.00     0.002 A 
ATOM     13  C   UNL d   1     -38.374  13.338  22.713  0.00  0.00     0.000 C 
ATOM     14  C   UNL d   1     -38.691  14.706  22.870  0.00  0.00     0.000 A 
ATOM     15  C   UNL d   1     -39.061  15.399  22.594  0.00  0.00     0.002 A 
ATOM     16  C   UNL d   1     -39.473  15.395  21.891  0.00  0.00     0.019 A 
ENDBRANCH   1  10
BRANCH   5  17
ATOM     17  N   UNL d   1     -40.719  14.927  18.093  0.00  0.00    -0.227 NA
BRANCH  17  18
ATOM     18  C   UNL d   1     -40.613  15.192  17.328  0.00  0.00     0.083 C 
ATOM     19  C   UNL d   1     -40.191  14.736  16.783  0.00  0.00     0.021 C 
ATOM     20  C   UNL d   1     -40.927  15.922  17.092  0.00  0.00     0.021 C 
ENDBRANCH  17  18
ENDBRANCH   5  17
TORSDOF 3
ENDMDL
