MODEL 1
REMARK VINA RESULT:      -5.0      0.000      0.000
REMARK  1 active torsions:
REMARK  status: ('A' for Active; 'I' for Inactive)
REMARK       I    between atoms: N_4  and  C_1 
REMARK    1  A    between atoms: C_9  and  N_4 
ROOT
ATOM      1  C   UNL d   1     -41.157-122.471 -52.314  0.00  0.00     0.121 A 
ATOM      2  C   UNL d   1     -41.172-122.152 -53.072  0.00  0.00     0.046 A 
ATOM      3  C   UNL d   1     -41.179-123.288 -52.213  0.00  0.00     0.119 A 
ATOM      4  O   UNL d   1     -41.123-122.126 -51.568  0.00  0.00    -0.299 OA
ATOM      5  O   UNL d   1     -41.158-123.446 -51.400  0.00  0.00    -0.300 OA
ATOM      6  C   UNL d   1     -41.208-122.653 -53.736  0.00  0.00     0.102 A 
ATOM      7  C   UNL d   1     -41.123-122.734 -51.004  0.00  0.00     0.304 A 
ATOM      8  C   UNL d   1     -41.215-123.785 -52.870  0.00  0.00     0.028 A 
ATOM      9  C   UNL d   1     -41.230-123.470 -53.636  0.00  0.00     0.022 A 
ENDROOT
BRANCH   6  10
ATOM     10  N   UNL d   1     -41.223-122.326 -54.506  0.00  0.00    -0.056 NA
ATOM     11  C   UNL d   1     -41.947-122.138 -54.867  0.00  0.00     0.787 C 
ATOM     12  N   UNL d   1     -41.959-121.816 -55.625  0.00  0.00     0.064 N 
ATOM     13  N   UNL d   1     -42.655-122.273 -54.469  0.00  0.00     0.064 N 
ENDBRANCH   6  10
TORSDOF 1
ENDMDL
MODEL 2
REMARK VINA RESULT:      -4.9      2.119      3.053
REMARK  1 active torsions:
REMARK  status: ('A' for Active; 'I' for Inactive)
REMARK       I    between atoms: N_4  and  C_1 
REMARK    1  A    between atoms: C_9  and  N_4 
ROOT
ATOM      1  C   UNL d   1     -42.217-122.053 -54.418  0.00  0.00     0.121 A 
ATOM      2  C   UNL d   1     -42.253-122.201 -53.609  0.00  0.00     0.046 A 
ATOM      3  C   UNL d   1     -41.651-122.436 -54.878  0.00  0.00     0.119 A 
ATOM      4  O   UNL d   1     -42.658-121.567 -54.913  0.00  0.00    -0.299 OA
ATOM      5  O   UNL d   1     -41.745-122.183 -55.662  0.00  0.00    -0.300 OA
ATOM      6  C   UNL d   1     -41.720-122.735 -53.257  0.00  0.00     0.102 A 
ATOM      7  C   UNL d   1     -42.362-121.650 -55.684  0.00  0.00     0.304 A 
ATOM      8  C   UNL d   1     -41.123-122.965 -54.530  0.00  0.00     0.028 A 
ATOM      9  C   UNL d   1     -41.154-123.117 -53.716  0.00  0.00     0.022 A 
ENDROOT
BRANCH   6  10
ATOM     10  N   UNL d   1     -41.759-122.882 -52.434  0.00  0.00    -0.056 NA
ATOM     11  C   UNL d   1     -41.460-122.327 -51.894  0.00  0.00     0.787 C 
ATOM     12  N   UNL d   1     -41.500-122.474 -51.085  0.00  0.00     0.064 N 
ATOM     13  N   UNL d   1     -41.122-121.626 -52.166  0.00  0.00     0.064 N 
ENDBRANCH   6  10
TORSDOF 1
ENDMDL
MODEL 3
REMARK VINA RESULT:      -4.5      2.501      3.463
REMARK  1 active torsions:
REMARK  status: ('A' for Active; 'I' for Inactive)
REMARK       I    between atoms: N_4  and  C_1 
REMARK    1  A    between atoms: C_9  and  N_4 
ROOT
ATOM      1  C   UNL d   1     -41.134-123.172 -52.361  0.00  0.00     0.121 A 
ATOM      2  C   UNL d   1     -41.131-123.396 -51.569  0.00  0.00     0.046 A 
ATOM      3  C   UNL d   1     -41.131-122.372 -52.561  0.00  0.00     0.119 A 
ATOM      4  O   UNL d   1     -41.139-123.605 -53.061  0.00  0.00    -0.299 OA
ATOM      5  O   UNL d   1     -41.134-122.315 -53.387  0.00  0.00    -0.300 OA
ATOM      6  C   UNL d   1     -41.126-122.816 -50.971  0.00  0.00     0.102 A 
ATOM      7  C   UNL d   1     -41.139-123.071 -53.694  0.00  0.00     0.304 A 
ATOM      8  C   UNL d   1     -41.125-121.798 -51.968  0.00  0.00     0.028 A 
ATOM      9  C   UNL d   1     -41.123-122.017 -51.170  0.00  0.00     0.022 A 
ENDROOT
BRANCH   6  10
ATOM     10  N   UNL d   1     -41.123-123.047 -50.167  0.00  0.00    -0.056 NA
ATOM     11  C   UNL d   1     -41.830-123.053 -49.731  0.00  0.00     0.787 C 
ATOM     12  N   UNL d   1     -41.824-123.281 -48.940  0.00  0.00     0.064 N 
ATOM     13  N   UNL d   1     -42.538-122.833 -50.089  0.00  0.00     0.064 N 
ENDBRANCH   6  10
TORSDOF 1
ENDMDL
MODEL 4
REMARK VINA RESULT:      -4.2      2.536      3.350
REMARK  1 active torsions:
REMARK  status: ('A' for Active; 'I' for Inactive)
REMARK       I    between atoms: N_4  and  C_1 
REMARK    1  A    between atoms: C_9  and  N_4 
ROOT
ATOM      1  C   UNL d   1     -41.242-122.364 -52.187  0.00  0.00     0.121 A 
ATOM      2  C   UNL d   1     -41.275-122.264 -51.371  0.00  0.00     0.046 A 
ATOM      3  C   UNL d   1     -41.166-123.120 -52.505  0.00  0.00     0.119 A 
ATOM      4  O   UNL d   1     -41.271-121.830 -52.813  0.00  0.00    -0.299 OA
ATOM      5  O   UNL d   1     -41.148-123.050 -53.330  0.00  0.00    -0.300 OA
ATOM      6  C   UNL d   1     -41.231-122.925 -50.867  0.00  0.00     0.102 A 
ATOM      7  C   UNL d   1     -41.212-122.260 -53.520  0.00  0.00     0.304 A 
ATOM      8  C   UNL d   1     -41.123-123.775 -52.005  0.00  0.00     0.028 A 
ATOM      9  C   UNL d   1     -41.155-123.681 -51.183  0.00  0.00     0.022 A 
ENDROOT
BRANCH   6  10
ATOM     10  N   UNL d   1     -41.265-122.821 -50.038  0.00  0.00    -0.056 NA
ATOM     11  C   UNL d   1     -41.989-122.891 -49.635  0.00  0.00     0.787 C 
ATOM     12  N   UNL d   1     -42.019-122.787 -48.819  0.00  0.00     0.064 N 
ATOM     13  N   UNL d   1     -42.678-123.063 -50.052  0.00  0.00     0.064 N 
ENDBRANCH   6  10
TORSDOF 1
ENDMDL
