MODEL 1
REMARK VINA RESULT:      78.5      0.000      0.000
REMARK  6 active torsions:
REMARK  status: ('A' for Active; 'I' for Inactive)
REMARK    1  A    between atoms: C_7  and  C_1 
REMARK    2  A    between atoms: C_6  and  C_2 
REMARK       I    between atoms: N_9  and  C_6 
REMARK    3  A    between atoms: O_16  and  C_7 
REMARK       I    between atoms: C_8  and  N_10 
REMARK    4  A    between atoms: C_14  and  C_8 
REMARK    5  A    between atoms: N_10  and  N_9 
REMARK    6  A    between atoms: C_20  and  O_16 
ROOT
ATOM      1  C   UNL d   1     -55.192-100.208 -41.431  0.00  0.00     0.083 A 
ATOM      2  C   UNL d   1     -55.298 -99.616 -42.616  0.00  0.00     0.141 A 
ATOM      3  C   UNL d   1     -55.214-100.346 -42.243  0.00  0.00     0.029 A 
ATOM      4  N   UNL d   1     -55.328 -99.035 -42.045  0.00  0.00    -0.240 NA
ATOM      5  C   UNL d   1     -55.262 -99.392 -41.302  0.00  0.00     0.087 A 
ATOM      6  C   UNL d   1     -55.161-101.084 -42.611  0.00  0.00     0.002 C 
ATOM      7  C   UNL d   1     -55.266 -99.013 -40.581  0.00  0.00     0.021 C 
ENDROOT
BRANCH   2   8
ATOM      8  C   UNL d   1     -55.345 -99.498 -43.437  0.00  0.00     0.314 C 
ATOM      9  N   UNL d   1     -56.003 -99.131 -43.763  0.00  0.00    -0.101 NA
ATOM     10  O   UNL d   1     -54.729 -99.749 -43.924  0.00  0.00    -0.262 OA
BRANCH   9  11
ATOM     11  N   UNL d   1     -56.053 -99.013 -44.579  0.00  0.00    -0.102 NA
ATOM     12  C   UNL d   1     -56.781 -98.876 -44.939  0.00  0.00     0.297 C 
ATOM     13  O   UNL d   1     -56.818 -98.758 -45.756  0.00  0.00    -0.264 OA
BRANCH  12  14
ATOM     14  C   UNL d   1     -57.461 -98.857 -44.480  0.00  0.00     0.059 A 
ATOM     15  C   UNL d   1     -58.195 -98.784 -44.855  0.00  0.00     0.005 A 
ATOM     16  C   UNL d   1     -58.888 -98.766 -44.395  0.00  0.00     0.000 A 
ATOM     17  C   UNL d   1     -58.830 -98.820 -43.574  0.00  0.00     0.000 A 
ATOM     18  C   UNL d   1     -58.099 -98.892 -43.208  0.00  0.00     0.000 A 
ATOM     19  C   UNL d   1     -57.410 -98.911 -43.665  0.00  0.00     0.005 A 
ENDBRANCH  12  14
ENDBRANCH   9  11
ENDBRANCH   2   8
BRANCH   1  20
ATOM     20  C   UNL d   1     -55.112-100.784 -40.842  0.00  0.00     0.302 C 
ATOM     21  O   UNL d   1     -54.716-100.603 -40.141  0.00  0.00    -0.259 OA
BRANCH  20  22
ATOM     22  O   UNL d   1     -55.430-101.540 -40.954  0.00  0.00    -0.271 OA
BRANCH  22  23
ATOM     23  C   UNL d   1     -55.116-102.174 -40.552  0.00  0.00     0.126 C 
ATOM     24  C   UNL d   1     -55.598-102.807 -40.332  0.00  0.00     0.029 C 
ENDBRANCH  22  23
ENDBRANCH  20  22
ENDBRANCH   1  20
TORSDOF 6
ENDMDL
MODEL 2
REMARK VINA RESULT:      81.5      3.391      6.228
REMARK  6 active torsions:
REMARK  status: ('A' for Active; 'I' for Inactive)
REMARK    1  A    between atoms: C_7  and  C_1 
REMARK    2  A    between atoms: C_6  and  C_2 
REMARK       I    between atoms: N_9  and  C_6 
REMARK    3  A    between atoms: O_16  and  C_7 
REMARK       I    between atoms: C_8  and  N_10 
REMARK    4  A    between atoms: C_14  and  C_8 
REMARK    5  A    between atoms: N_10  and  N_9 
REMARK    6  A    between atoms: C_20  and  O_16 
ROOT
ATOM      1  C   UNL d   1     -55.377-101.253 -40.242  0.00  0.00     0.083 A 
ATOM      2  C   UNL d   1     -55.026-101.617 -39.013  0.00  0.00     0.141 A 
ATOM      3  C   UNL d   1     -55.441-101.856 -39.684  0.00  0.00     0.029 A 
ATOM      4  N   UNL d   1     -54.711-100.879 -39.153  0.00  0.00    -0.240 NA
ATOM      5  C   UNL d   1     -54.924-100.642 -39.916  0.00  0.00     0.087 A 
ATOM      6  C   UNL d   1     -55.847-102.569 -39.785  0.00  0.00     0.002 C 
ATOM      7  C   UNL d   1     -54.724 -99.939 -40.277  0.00  0.00     0.021 C 
ENDROOT
BRANCH   2   8
ATOM      8  C   UNL d   1     -54.946-102.059 -38.315  0.00  0.00     0.314 C 
ATOM      9  N   UNL d   1     -55.095-101.710 -37.587  0.00  0.00    -0.101 NA
ATOM     10  O   UNL d   1     -54.716-102.850 -38.353  0.00  0.00    -0.262 OA
BRANCH   9  11
ATOM     11  N   UNL d   1     -55.017-102.146 -36.891  0.00  0.00    -0.102 NA
ATOM     12  C   UNL d   1     -54.949-101.766 -36.163  0.00  0.00     0.297 C 
ATOM     13  O   UNL d   1     -54.870-102.214 -35.473  0.00  0.00    -0.264 OA
BRANCH  12  14
ATOM     14  C   UNL d   1     -54.959-100.946 -36.133  0.00  0.00     0.059 A 
ATOM     15  C   UNL d   1     -55.007-100.573 -35.396  0.00  0.00     0.005 A 
ATOM     16  C   UNL d   1     -55.018 -99.742 -35.360  0.00  0.00     0.000 A 
ATOM     17  C   UNL d   1     -54.981 -99.306 -36.060  0.00  0.00     0.000 A 
ATOM     18  C   UNL d   1     -54.934 -99.682 -36.787  0.00  0.00     0.000 A 
ATOM     19  C   UNL d   1     -54.923-100.508 -36.824  0.00  0.00     0.005 A 
ENDBRANCH  12  14
ENDBRANCH   9  11
ENDBRANCH   2   8
BRANCH   1  20
ATOM     20  C   UNL d   1     -55.710-101.255 -41.001  0.00  0.00     0.302 C 
ATOM     21  O   UNL d   1     -55.341-100.842 -41.612  0.00  0.00    -0.259 OA
BRANCH  20  22
ATOM     22  O   UNL d   1     -56.411-101.671 -41.146  0.00  0.00    -0.271 OA
BRANCH  22  23
ATOM     23  C   UNL d   1     -56.626-101.845 -41.911  0.00  0.00     0.126 C 
ATOM     24  C   UNL d   1     -56.272-101.449 -42.543  0.00  0.00     0.029 C 
ENDBRANCH  22  23
ENDBRANCH  20  22
ENDBRANCH   1  20
TORSDOF 6
ENDMDL
