MODEL 1
REMARK VINA RESULT:      23.5      0.000      0.000
REMARK  3 active torsions:
REMARK  status: ('A' for Active; 'I' for Inactive)
REMARK    1  A    between atoms: S_5  and  C_1 
REMARK    2  A    between atoms: N_3  and  C_2 
REMARK    3  A    between atoms: C_4  and  S_5 
ROOT
ATOM      1  C   UNL d   1      46.079 -17.853  43.641  0.00  0.00     0.140 A 
ATOM      2  C   UNL d   1      46.194 -18.643  43.589  0.00  0.00     0.188 A 
ATOM      3  N   UNL d   1      45.997 -17.387  42.982  0.00  0.00    -0.216 NA
ATOM      4  C   UNL d   1      46.231 -19.003  42.831  0.00  0.00     0.209 A 
ATOM      5  N   UNL d   1      46.150 -18.548  42.179  0.00  0.00    -0.202 NA
ATOM      6  C   UNL d   1      46.034 -17.747  42.225  0.00  0.00     0.201 A 
ATOM      7  N   UNL d   1      46.321 -19.625  42.763  0.00  0.00    -0.125 N 
ENDROOT
BRANCH   1   8
ATOM      8  S   UNL d   1      46.043 -17.494  44.398  0.00  0.00    -0.028 SA
BRANCH   8   9
ATOM      9  C   UNL d   1      45.798 -16.677  44.467  0.00  0.00     0.196 A 
ATOM     10  N   UNL d   1      46.339 -16.072  44.326  0.00  0.00    -0.221 NA
ATOM     11  C   UNL d   1      46.055 -15.293  44.406  0.00  0.00     0.085 A 
ATOM     12  C   UNL d   1      46.639 -14.664  44.253  0.00  0.00     0.021 C 
ATOM     13  C   UNL d   1      45.294 -15.120  44.609  0.00  0.00     0.038 A 
ATOM     14  C   UNL d   1      44.767 -15.715  44.746  0.00  0.00     0.085 A 
ATOM     15  N   UNL d   1      45.024 -16.534  44.674  0.00  0.00    -0.221 NA
ATOM     16  C   UNL d   1      43.988 -15.538  44.955  0.00  0.00     0.021 C 
ENDBRANCH   8   9
ENDBRANCH   1   8
BRANCH   2  17
ATOM     17  N   UNL d   1      46.277 -19.110  44.247  0.00  0.00    -0.108 N 
ATOM     18  O   UNL d   1      46.002 -19.912  44.313  0.00  0.00    -0.532 OA
ATOM     19  O   UNL d   1      46.647 -18.857  44.954  0.00  0.00    -0.532 OA
ENDBRANCH   2  17
TORSDOF 3
ENDMDL
