MODEL 1
REMARK VINA RESULT:      -3.4      0.000      0.000
REMARK  6 active torsions:
REMARK  status: ('A' for Active; 'I' for Inactive)
REMARK    1  A    between atoms: C_2  and  C_1 
REMARK       I    between atoms: N_10  and  C_1 
REMARK    2  A    between atoms: C_3  and  C_4 
REMARK    3  A    between atoms: C_16  and  N_10 
REMARK    4  A    between atoms: C_11  and  O_12 
REMARK    5  A    between atoms: O_12  and  C_17 
REMARK    6  A    between atoms: C_17  and  C_16 
ROOT
ATOM      1  C   UNL d   1      32.512  17.781 -23.708  0.00  0.00     0.279 C 
ATOM      2  O   UNL d   1      33.232  17.629 -24.082  0.00  0.00    -0.265 OA
ATOM      3  N   UNL d   1      32.457  18.385 -23.150  0.00  0.00    -0.204 NA
ENDROOT
BRANCH   1   4
ATOM      4  C   UNL d   1      31.850  17.330 -23.892  0.00  0.00     0.058 A 
ATOM      5  C   UNL d   1      31.763  16.574 -23.574  0.00  0.00     0.004 A 
ATOM      6  C   UNL d   1      31.105  16.123 -23.754  0.00  0.00    -0.004 A 
ATOM      7  C   UNL d   1      30.518  16.427 -24.262  0.00  0.00    -0.023 A 
ATOM      8  C   UNL d   1      30.605  17.184 -24.580  0.00  0.00    -0.004 A 
ATOM      9  C   UNL d   1      31.271  17.634 -24.395  0.00  0.00     0.004 A 
BRANCH   7  10
ATOM     10  C   UNL d   1      29.849  15.975 -24.449  0.00  0.00     0.019 C 
ATOM     11  C   UNL d   1      29.176  15.515 -24.641  0.00  0.00     0.004 C 
ATOM     12  C   UNL d   1      29.366  16.499 -24.010  0.00  0.00     0.004 C 
ATOM     13  C   UNL d   1      30.324  15.453 -24.885  0.00  0.00     0.004 C 
ENDBRANCH   7  10
ENDBRANCH   1   4
BRANCH   3  14
ATOM     14  C   UNL d   1      33.122  18.839 -22.964  0.00  0.00     0.129 C 
BRANCH  14  15
ATOM     15  C   UNL d   1      33.100  19.362 -22.326  0.00  0.00     0.143 C 
BRANCH  15  16
ATOM     16  O   UNL d   1      33.115  20.176 -22.459  0.00  0.00    -0.303 OA
BRANCH  16  17
ATOM     17  C   UNL d   1      33.108  20.712 -21.816  0.00  0.00     0.100 A 
ATOM     18  C   UNL d   1      33.186  20.436 -21.050  0.00  0.00     0.025 A 
ATOM     19  C   UNL d   1      33.178  20.968 -20.424  0.00  0.00     0.002 A 
ATOM     20  C   UNL d   1      33.092  21.776 -20.568  0.00  0.00     0.000 A 
ATOM     21  C   UNL d   1      33.014  22.051 -21.339  0.00  0.00     0.002 A 
ATOM     22  C   UNL d   1      33.022  21.519 -21.960  0.00  0.00     0.025 A 
ENDBRANCH  16  17
ENDBRANCH  15  16
ENDBRANCH  14  15
ENDBRANCH   3  14
TORSDOF 6
ENDMDL
MODEL 2
REMARK VINA RESULT:      -3.3      0.850      5.705
REMARK  6 active torsions:
REMARK  status: ('A' for Active; 'I' for Inactive)
REMARK    1  A    between atoms: C_2  and  C_1 
REMARK       I    between atoms: N_10  and  C_1 
REMARK    2  A    between atoms: C_3  and  C_4 
REMARK    3  A    between atoms: C_16  and  N_10 
REMARK    4  A    between atoms: C_11  and  O_12 
REMARK    5  A    between atoms: O_12  and  C_17 
REMARK    6  A    between atoms: C_17  and  C_16 
ROOT
ATOM      1  C   UNL d   1      32.997  19.802 -21.925  0.00  0.00     0.279 C 
ATOM      2  O   UNL d   1      33.238  19.237 -21.374  0.00  0.00    -0.265 OA
ATOM      3  N   UNL d   1      32.893  19.588 -22.715  0.00  0.00    -0.204 NA
ENDROOT
BRANCH   1   4
ATOM      4  C   UNL d   1      32.859  20.576 -21.688  0.00  0.00     0.058 A 
ATOM      5  C   UNL d   1      33.118  21.204 -22.157  0.00  0.00     0.004 A 
ATOM      6  C   UNL d   1      32.983  21.976 -21.924  0.00  0.00    -0.004 A 
ATOM      7  C   UNL d   1      32.582  22.132 -21.210  0.00  0.00    -0.023 A 
ATOM      8  C   UNL d   1      32.323  21.504 -20.741  0.00  0.00    -0.004 A 
ATOM      9  C   UNL d   1      32.462  20.727 -20.981  0.00  0.00     0.004 A 
BRANCH   7  10
ATOM     10  C   UNL d   1      32.442  22.913 -20.968  0.00  0.00     0.019 C 
ATOM     11  C   UNL d   1      32.299  23.702 -20.730  0.00  0.00     0.004 C 
ATOM     12  C   UNL d   1      32.652  22.713 -20.184  0.00  0.00     0.004 C 
ATOM     13  C   UNL d   1      32.232  23.115 -21.746  0.00  0.00     0.004 C 
ENDBRANCH   7  10
ENDBRANCH   1   4
BRANCH   3  14
ATOM     14  C   UNL d   1      33.031  18.810 -22.955  0.00  0.00     0.129 C 
BRANCH  14  15
ATOM     15  C   UNL d   1      32.471  18.413 -23.413  0.00  0.00     0.143 C 
BRANCH  15  16
ATOM     16  O   UNL d   1      32.613  17.639 -23.662  0.00  0.00    -0.303 OA
BRANCH  16  17
ATOM     17  C   UNL d   1      31.982  17.151 -23.915  0.00  0.00     0.100 A 
ATOM     18  C   UNL d   1      31.803  16.466 -23.507  0.00  0.00     0.025 A 
ATOM     19  C   UNL d   1      31.182  15.992 -23.762  0.00  0.00     0.002 A 
ATOM     20  C   UNL d   1      30.742  16.208 -24.426  0.00  0.00     0.000 A 
ATOM     21  C   UNL d   1      30.924  16.898 -24.835  0.00  0.00     0.002 A 
ATOM     22  C   UNL d   1      31.542  17.368 -24.578  0.00  0.00     0.025 A 
ENDBRANCH  16  17
ENDBRANCH  15  16
ENDBRANCH  14  15
ENDBRANCH   3  14
TORSDOF 6
ENDMDL
MODEL 3
REMARK VINA RESULT:      -2.8      0.924      5.746
REMARK  6 active torsions:
REMARK  status: ('A' for Active; 'I' for Inactive)
REMARK    1  A    between atoms: C_2  and  C_1 
REMARK       I    between atoms: N_10  and  C_1 
REMARK    2  A    between atoms: C_3  and  C_4 
REMARK    3  A    between atoms: C_16  and  N_10 
REMARK    4  A    between atoms: C_11  and  O_12 
REMARK    5  A    between atoms: O_12  and  C_17 
REMARK    6  A    between atoms: C_17  and  C_16 
ROOT
ATOM      1  C   UNL d   1      33.082  20.203 -22.796  0.00  0.00     0.279 C 
ATOM      2  O   UNL d   1      33.241  20.421 -23.575  0.00  0.00    -0.265 OA
ATOM      3  N   UNL d   1      32.948  19.411 -22.608  0.00  0.00    -0.204 NA
ENDROOT
BRANCH   1   4
ATOM      4  C   UNL d   1      33.057  20.774 -22.205  0.00  0.00     0.058 A 
ATOM      5  C   UNL d   1      33.053  20.549 -21.412  0.00  0.00     0.004 A 
ATOM      6  C   UNL d   1      33.027  21.114 -20.822  0.00  0.00    -0.004 A 
ATOM      7  C   UNL d   1      33.005  21.923 -21.021  0.00  0.00    -0.023 A 
ATOM      8  C   UNL d   1      33.009  22.149 -21.815  0.00  0.00    -0.004 A 
ATOM      9  C   UNL d   1      33.035  21.574 -22.406  0.00  0.00     0.004 A 
BRANCH   7  10
ATOM     10  C   UNL d   1      32.980  22.502 -20.428  0.00  0.00     0.019 C 
ATOM     11  C   UNL d   1      32.955  23.082 -19.824  0.00  0.00     0.004 C 
ATOM     12  C   UNL d   1      32.870  23.097 -21.005  0.00  0.00     0.004 C 
ATOM     13  C   UNL d   1      33.089  21.914 -19.851  0.00  0.00     0.004 C 
ENDBRANCH   7  10
ENDBRANCH   1   4
BRANCH   3  14
ATOM     14  C   UNL d   1      32.974  18.836 -23.200  0.00  0.00     0.129 C 
BRANCH  14  15
ATOM     15  C   UNL d   1      32.618  18.101 -23.079  0.00  0.00     0.143 C 
BRANCH  15  16
ATOM     16  O   UNL d   1      32.627  17.533 -23.677  0.00  0.00    -0.303 OA
BRANCH  16  17
ATOM     17  C   UNL d   1      32.122  16.867 -23.639  0.00  0.00     0.100 A 
ATOM     18  C   UNL d   1      31.339  16.931 -23.866  0.00  0.00     0.025 A 
ATOM     19  C   UNL d   1      30.849  16.273 -23.826  0.00  0.00     0.002 A 
ATOM     20  C   UNL d   1      31.147  15.552 -23.558  0.00  0.00     0.000 A 
ATOM     21  C   UNL d   1      31.934  15.489 -23.330  0.00  0.00     0.002 A 
ATOM     22  C   UNL d   1      32.420  16.146 -23.371  0.00  0.00     0.025 A 
ENDBRANCH  16  17
ENDBRANCH  15  16
ENDBRANCH  14  15
ENDBRANCH   3  14
TORSDOF 6
ENDMDL
MODEL 4
REMARK VINA RESULT:      -2.6      1.156      1.917
REMARK  6 active torsions:
REMARK  status: ('A' for Active; 'I' for Inactive)
REMARK    1  A    between atoms: C_2  and  C_1 
REMARK       I    between atoms: N_10  and  C_1 
REMARK    2  A    between atoms: C_3  and  C_4 
REMARK    3  A    between atoms: C_16  and  N_10 
REMARK    4  A    between atoms: C_11  and  O_12 
REMARK    5  A    between atoms: O_12  and  C_17 
REMARK    6  A    between atoms: C_17  and  C_16 
ROOT
ATOM      1  C   UNL d   1      32.916  18.798 -22.575  0.00  0.00     0.279 C 
ATOM      2  O   UNL d   1      33.230  18.577 -21.844  0.00  0.00    -0.265 OA
ATOM      3  N   UNL d   1      32.922  19.591 -22.803  0.00  0.00    -0.204 NA
ENDROOT
BRANCH   1   4
ATOM      4  C   UNL d   1      32.598  18.229 -23.075  0.00  0.00     0.058 A 
ATOM      5  C   UNL d   1      32.748  17.429 -22.939  0.00  0.00     0.004 A 
ATOM      6  C   UNL d   1      32.433  16.860 -23.435  0.00  0.00    -0.004 A 
ATOM      7  C   UNL d   1      31.958  17.087 -24.081  0.00  0.00    -0.023 A 
ATOM      8  C   UNL d   1      31.808  17.887 -24.217  0.00  0.00    -0.004 A 
ATOM      9  C   UNL d   1      32.129  18.457 -23.714  0.00  0.00     0.004 A 
BRANCH   7  10
ATOM     10  C   UNL d   1      31.636  16.515 -24.588  0.00  0.00     0.019 C 
ATOM     11  C   UNL d   1      31.305  15.939 -25.097  0.00  0.00     0.004 C 
ATOM     12  C   UNL d   1      32.391  16.374 -24.917  0.00  0.00     0.004 C 
ATOM     13  C   UNL d   1      30.884  16.653 -24.264  0.00  0.00     0.004 C 
ENDBRANCH   7  10
ENDBRANCH   1   4
BRANCH   3  14
ATOM     14  C   UNL d   1      33.241  20.163 -22.302  0.00  0.00     0.129 C 
BRANCH  14  15
ATOM     15  C   UNL d   1      32.797  20.828 -22.098  0.00  0.00     0.143 C 
BRANCH  15  16
ATOM     16  O   UNL d   1      33.170  21.498 -21.794  0.00  0.00    -0.303 OA
BRANCH  16  17
ATOM     17  C   UNL d   1      32.759  22.224 -21.734  0.00  0.00     0.100 A 
ATOM     18  C   UNL d   1      32.690  22.713 -22.386  0.00  0.00     0.025 A 
ATOM     19  C   UNL d   1      32.284  23.424 -22.319  0.00  0.00     0.002 A 
ATOM     20  C   UNL d   1      31.948  23.643 -21.598  0.00  0.00     0.000 A 
ATOM     21  C   UNL d   1      32.018  23.150 -20.943  0.00  0.00     0.002 A 
ATOM     22  C   UNL d   1      32.423  22.442 -21.013  0.00  0.00     0.025 A 
ENDBRANCH  16  17
ENDBRANCH  15  16
ENDBRANCH  14  15
ENDBRANCH   3  14
TORSDOF 6
ENDMDL
MODEL 5
REMARK VINA RESULT:      -1.8      1.262      2.251
REMARK  6 active torsions:
REMARK  status: ('A' for Active; 'I' for Inactive)
REMARK    1  A    between atoms: C_2  and  C_1 
REMARK       I    between atoms: N_10  and  C_1 
REMARK    2  A    between atoms: C_3  and  C_4 
REMARK    3  A    between atoms: C_16  and  N_10 
REMARK    4  A    between atoms: C_11  and  O_12 
REMARK    5  A    between atoms: O_12  and  C_17 
REMARK    6  A    between atoms: C_17  and  C_16 
ROOT
ATOM      1  C   UNL d   1      31.070  16.270 -23.997  0.00  0.00     0.279 C 
ATOM      2  O   UNL d   1      31.544  15.660 -24.288  0.00  0.00    -0.265 OA
ATOM      3  N   UNL d   1      31.409  16.994 -23.795  0.00  0.00    -0.204 NA
ENDROOT
BRANCH   1   4
ATOM      4  C   UNL d   1      30.261  16.156 -23.909  0.00  0.00     0.058 A 
ATOM      5  C   UNL d   1      29.729  16.612 -24.343  0.00  0.00     0.004 A 
ATOM      6  C   UNL d   1      28.923  16.502 -24.257  0.00  0.00    -0.004 A 
ATOM      7  C   UNL d   1      28.636  15.925 -23.728  0.00  0.00    -0.023 A 
ATOM      8  C   UNL d   1      29.168  15.469 -23.293  0.00  0.00    -0.004 A 
ATOM      9  C   UNL d   1      29.980  15.584 -23.384  0.00  0.00     0.004 A 
BRANCH   7  10
ATOM     10  C   UNL d   1      27.820  15.808 -23.636  0.00  0.00     0.019 C 
ATOM     11  C   UNL d   1      26.996  15.688 -23.549  0.00  0.00     0.004 C 
ATOM     12  C   UNL d   1      27.849  16.166 -22.881  0.00  0.00     0.004 C 
ATOM     13  C   UNL d   1      27.788  15.453 -24.386  0.00  0.00     0.004 C 
ENDBRANCH   7  10
ENDBRANCH   1   4
BRANCH   3  14
ATOM     14  C   UNL d   1      32.221  17.110 -23.884  0.00  0.00     0.129 C 
BRANCH  14  15
ATOM     15  C   UNL d   1      32.610  17.679 -23.430  0.00  0.00     0.143 C 
BRANCH  15  16
ATOM     16  O   UNL d   1      32.845  18.392 -23.772  0.00  0.00    -0.303 OA
BRANCH  16  17
ATOM     17  C   UNL d   1      32.979  19.068 -23.298  0.00  0.00     0.100 A 
ATOM     18  C   UNL d   1      33.011  18.999 -22.484  0.00  0.00     0.025 A 
ATOM     19  C   UNL d   1      33.142  19.668 -22.025  0.00  0.00     0.002 A 
ATOM     20  C   UNL d   1      33.241  20.404 -22.384  0.00  0.00     0.000 A 
ATOM     21  C   UNL d   1      33.208  20.471 -23.203  0.00  0.00     0.002 A 
ATOM     22  C   UNL d   1      33.077  19.804 -23.657  0.00  0.00     0.025 A 
ENDBRANCH  16  17
ENDBRANCH  15  16
ENDBRANCH  14  15
ENDBRANCH   3  14
TORSDOF 6
ENDMDL
MODEL 6
REMARK VINA RESULT:      -1.8      2.341      6.605
REMARK  6 active torsions:
REMARK  status: ('A' for Active; 'I' for Inactive)
REMARK    1  A    between atoms: C_2  and  C_1 
REMARK       I    between atoms: N_10  and  C_1 
REMARK    2  A    between atoms: C_3  and  C_4 
REMARK    3  A    between atoms: C_16  and  N_10 
REMARK    4  A    between atoms: C_11  and  O_12 
REMARK    5  A    between atoms: O_12  and  C_17 
REMARK    6  A    between atoms: C_17  and  C_16 
ROOT
ATOM      1  C   UNL d   1      32.617  21.985 -20.903  0.00  0.00     0.279 C 
ATOM      2  O   UNL d   1      32.134  22.402 -21.426  0.00  0.00    -0.265 OA
ATOM      3  N   UNL d   1      33.034  21.323 -21.166  0.00  0.00    -0.204 NA
ENDROOT
BRANCH   1   4
ATOM      4  C   UNL d   1      32.685  22.228 -20.121  0.00  0.00     0.058 A 
ATOM      5  C   UNL d   1      32.481  22.999 -19.909  0.00  0.00     0.004 A 
ATOM      6  C   UNL d   1      32.547  23.245 -19.131  0.00  0.00    -0.004 A 
ATOM      7  C   UNL d   1      32.820  22.714 -18.549  0.00  0.00    -0.023 A 
ATOM      8  C   UNL d   1      33.024  21.944 -18.761  0.00  0.00    -0.004 A 
ATOM      9  C   UNL d   1      32.956  21.701 -19.547  0.00  0.00     0.004 A 
BRANCH   7  10
ATOM     10  C   UNL d   1      32.889  22.957 -17.759  0.00  0.00     0.019 C 
ATOM     11  C   UNL d   1      32.956  23.207 -16.963  0.00  0.00     0.004 C 
ATOM     12  C   UNL d   1      33.238  22.224 -17.558  0.00  0.00     0.004 C 
ATOM     13  C   UNL d   1      32.544  23.687 -17.954  0.00  0.00     0.004 C 
ENDBRANCH   7  10
ENDBRANCH   1   4
BRANCH   3  14
ATOM     14  C   UNL d   1      32.968  21.077 -21.950  0.00  0.00     0.129 C 
BRANCH  14  15
ATOM     15  C   UNL d   1      33.216  20.321 -22.170  0.00  0.00     0.143 C 
BRANCH  15  16
ATOM     16  O   UNL d   1      32.963  19.993 -22.884  0.00  0.00    -0.303 OA
BRANCH  16  17
ATOM     17  C   UNL d   1      33.016  19.169 -23.015  0.00  0.00     0.100 A 
ATOM     18  C   UNL d   1      32.909  18.864 -23.766  0.00  0.00     0.025 A 
ATOM     19  C   UNL d   1      32.963  18.053 -23.887  0.00  0.00     0.002 A 
ATOM     20  C   UNL d   1      33.123  17.550 -23.254  0.00  0.00     0.000 A 
ATOM     21  C   UNL d   1      33.230  17.858 -22.499  0.00  0.00     0.002 A 
ATOM     22  C   UNL d   1      33.176  18.666 -22.381  0.00  0.00     0.025 A 
ENDBRANCH  16  17
ENDBRANCH  15  16
ENDBRANCH  14  15
ENDBRANCH   3  14
TORSDOF 6
ENDMDL
MODEL 7
REMARK VINA RESULT:      -1.6      0.841      1.102
REMARK  6 active torsions:
REMARK  status: ('A' for Active; 'I' for Inactive)
REMARK    1  A    between atoms: C_2  and  C_1 
REMARK       I    between atoms: N_10  and  C_1 
REMARK    2  A    between atoms: C_3  and  C_4 
REMARK    3  A    between atoms: C_16  and  N_10 
REMARK    4  A    between atoms: C_11  and  O_12 
REMARK    5  A    between atoms: O_12  and  C_17 
REMARK    6  A    between atoms: C_17  and  C_16 
ROOT
ATOM      1  C   UNL d   1      32.172  17.294 -23.755  0.00  0.00     0.279 C 
ATOM      2  O   UNL d   1      32.830  16.806 -23.655  0.00  0.00    -0.265 OA
ATOM      3  N   UNL d   1      32.253  18.113 -23.692  0.00  0.00    -0.204 NA
ENDROOT
BRANCH   1   4
ATOM      4  C   UNL d   1      31.437  16.966 -23.918  0.00  0.00     0.058 A 
ATOM      5  C   UNL d   1      31.160  16.329 -23.473  0.00  0.00     0.004 A 
ATOM      6  C   UNL d   1      30.428  16.000 -23.633  0.00  0.00    -0.004 A 
ATOM      7  C   UNL d   1      29.959  16.308 -24.249  0.00  0.00    -0.023 A 
ATOM      8  C   UNL d   1      30.235  16.945 -24.694  0.00  0.00    -0.004 A 
ATOM      9  C   UNL d   1      30.974  17.273 -24.529  0.00  0.00     0.004 A 
BRANCH   7  10
ATOM     10  C   UNL d   1      29.216  15.979 -24.416  0.00  0.00     0.019 C 
ATOM     11  C   UNL d   1      28.469  15.644 -24.589  0.00  0.00     0.004 C 
ATOM     12  C   UNL d   1      28.894  16.349 -23.738  0.00  0.00     0.004 C 
ATOM     13  C   UNL d   1      29.532  15.610 -25.089  0.00  0.00     0.004 C 
ENDBRANCH   7  10
ENDBRANCH   1   4
BRANCH   3  14
ATOM     14  C   UNL d   1      32.990  18.444 -23.528  0.00  0.00     0.129 C 
BRANCH  14  15
ATOM     15  C   UNL d   1      33.040  19.180 -23.158  0.00  0.00     0.143 C 
BRANCH  15  16
ATOM     16  O   UNL d   1      32.912  19.871 -23.591  0.00  0.00    -0.303 OA
BRANCH  16  17
ATOM     17  C   UNL d   1      33.017  20.621 -23.236  0.00  0.00     0.100 A 
ATOM     18  C   UNL d   1      33.046  20.691 -22.422  0.00  0.00     0.025 A 
ATOM     19  C   UNL d   1      33.149  21.431 -22.081  0.00  0.00     0.002 A 
ATOM     20  C   UNL d   1      33.223  22.100 -22.559  0.00  0.00     0.000 A 
ATOM     21  C   UNL d   1      33.193  22.028 -23.377  0.00  0.00     0.002 A 
ATOM     22  C   UNL d   1      33.091  21.290 -23.714  0.00  0.00     0.025 A 
ENDBRANCH  16  17
ENDBRANCH  15  16
ENDBRANCH  14  15
ENDBRANCH   3  14
TORSDOF 6
ENDMDL
