MODEL 1
REMARK VINA RESULT:      34.9      0.000      0.000
REMARK  3 active torsions:
REMARK  status: ('A' for Active; 'I' for Inactive)
REMARK    1  A    between atoms: N_6  and  C_1 
REMARK    2  A    between atoms: C_11  and  C_2 
REMARK    3  A    between atoms: C_5  and  C_8 
REMARK       I    between atoms: C_8  and  N_6 
ROOT
ATOM      1  N   UNL d   1      46.565 -18.109  41.903  0.00  0.00    -0.200 NA
ATOM      2  C   UNL d   1      46.397 -17.290  41.915  0.00  0.00     0.302 C 
ATOM      3  O   UNL d   1      46.451 -16.848  41.205  0.00  0.00    -0.263 OA
ENDROOT
BRANCH   1   4
ATOM      4  C   UNL d   1      46.514 -18.528  42.572  0.00  0.00     0.119 A 
ATOM      5  C   UNL d   1      46.330 -19.277  42.621  0.00  0.00     0.084 A 
ATOM      6  C   UNL d   1      46.345 -19.467  43.389  0.00  0.00     0.013 A 
ATOM      7  C   UNL d   1      46.201 -20.159  43.759  0.00  0.00     0.001 A 
ATOM      8  C   UNL d   1      46.537 -18.837  43.795  0.00  0.00     0.031 A 
ATOM      9  C   UNL d   1      46.259 -20.185  44.549  0.00  0.00     0.001 A 
ATOM     10  C   UNL d   1      46.455 -19.538  44.954  0.00  0.00     0.006 A 
ATOM     11  S   UNL d   1      46.645 -18.246  43.300  0.00  0.00    -0.068 SA
BRANCH   5  12
ATOM     12  C   UNL d   1      46.159 -19.766  42.033  0.00  0.00     0.299 C 
ATOM     13  O   UNL d   1      45.484 -20.183  42.059  0.00  0.00    -0.264 OA
ATOM     14  N   UNL d   1      46.642 -19.853  41.419  0.00  0.00    -0.102 N 
ENDBRANCH   5  12
ENDBRANCH   1   4
BRANCH   2  15
ATOM     15  C   UNL d   1      46.181 -16.915  42.618  0.00  0.00     0.158 A 
ATOM     16  O   UNL d   1      45.489 -17.041  43.056  0.00  0.00    -0.302 OA
ATOM     17  C   UNL d   1      45.495 -16.550  43.720  0.00  0.00     0.100 A 
ATOM     18  C   UNL d   1      44.962 -16.436  44.347  0.00  0.00     0.025 A 
ATOM     19  C   UNL d   1      46.202 -16.107  43.699  0.00  0.00     0.025 A 
ATOM     20  C   UNL d   1      45.122 -15.893  44.946  0.00  0.00     0.002 A 
ATOM     21  C   UNL d   1      45.833 -15.442  44.931  0.00  0.00     0.000 A 
ATOM     22  C   UNL d   1      46.368 -15.558  44.300  0.00  0.00     0.002 A 
ATOM     23  C   UNL d   1      46.625 -16.332  43.019  0.00  0.00     0.032 A 
ENDBRANCH   2  15
TORSDOF 3
ENDMDL
