MODEL 1
REMARK VINA RESULT:      -8.6      0.000      0.000
REMARK  5 active torsions:
REMARK  status: ('A' for Active; 'I' for Inactive)
REMARK    1  A    between atoms: O_8  and  S_1 
REMARK    2  A    between atoms: C_9  and  S_1 
REMARK    3  A    between atoms: C_7  and  C_2 
REMARK    4  A    between atoms: C_20  and  C_7 
REMARK    5  A    between atoms: C_14  and  O_8 
ROOT
ATOM      1  C   UNL d   1      53.638  31.660  53.423  0.00  0.00     0.139 A 
ATOM      2  C   UNL d   1      53.515  32.983  53.536  0.00  0.00     0.064 A 
ATOM      3  C   UNL d   1      54.060  32.367  53.478  0.00  0.00     0.220 A 
ATOM      4  C   UNL d   1      52.755  32.656  53.517  0.00  0.00     0.105 A 
ATOM      5  O   UNL d   1      52.833  31.839  53.447  0.00  0.00    -0.304 OA
ATOM      6  C   UNL d   1      52.091  33.154  53.566  0.00  0.00     0.050 A 
ATOM      7  C   UNL d   1      53.611  33.808  53.604  0.00  0.00     0.007 A 
ATOM      8  C   UNL d   1      52.188  33.967  53.634  0.00  0.00     0.116 A 
ATOM      9  O   UNL d   1      54.880  32.446  53.475  0.00  0.00    -0.284 OA
ATOM     10  C   UNL d   1      52.948  34.294  53.653  0.00  0.00     0.026 A 
ENDROOT
BRANCH   8  11
ATOM     11  O   UNL d   1      51.532  34.458  53.682  0.00  0.00    -0.227 OA
BRANCH  11  12
ATOM     12  S   UNL d   1      50.977  34.474  53.084  0.00  0.00     0.304 S 
ATOM     13  O   UNL d   1      51.456  34.976  52.647  0.00  0.00    -0.193 OA
ATOM     14  O   UNL d   1      50.498  33.972  53.519  0.00  0.00    -0.193 OA
BRANCH  12  15
ATOM     15  C   UNL d   1      50.416  34.489  52.480  0.00  0.00     0.111 A 
ATOM     16  C   UNL d   1      50.643  34.344  51.701  0.00  0.00     0.013 A 
ATOM     17  C   UNL d   1      50.080  34.360  51.093  0.00  0.00     0.001 A 
ATOM     18  C   UNL d   1      49.293  34.521  51.274  0.00  0.00     0.000 A 
ATOM     19  C   UNL d   1      49.063  34.667  52.055  0.00  0.00     0.001 A 
ATOM     20  C   UNL d   1      48.733  34.537  50.672  0.00  0.00     0.000 C 
ATOM     21  C   UNL d   1      49.623  34.651  52.654  0.00  0.00     0.013 A 
ENDBRANCH  12  15
ENDBRANCH  11  12
ENDBRANCH   8  11
BRANCH   1  22
ATOM     22  C   UNL d   1      53.966  30.903  53.355  0.00  0.00     0.029 C 
BRANCH  22  23
ATOM     23  C   UNL d   1      53.528  30.250  53.584  0.00  0.00     0.021 A 
ATOM     24  C   UNL d   1      52.955  29.940  53.073  0.00  0.00     0.099 A 
ATOM     25  N   UNL d   1      52.511  29.282  53.296  0.00  0.00    -0.242 NA
ATOM     26  C   UNL d   1      52.642  28.936  54.033  0.00  0.00     0.099 A 
ATOM     27  C   UNL d   1      53.216  29.246  54.544  0.00  0.00     0.021 A 
ATOM     28  C   UNL d   1      53.653  29.900  54.314  0.00  0.00     0.003 A 
ENDBRANCH  22  23
ENDBRANCH   1  22
TORSDOF 5
ENDMDL
MODEL 2
REMARK VINA RESULT:      -7.6      2.797      6.112
REMARK  5 active torsions:
REMARK  status: ('A' for Active; 'I' for Inactive)
REMARK    1  A    between atoms: O_8  and  S_1 
REMARK    2  A    between atoms: C_9  and  S_1 
REMARK    3  A    between atoms: C_7  and  C_2 
REMARK    4  A    between atoms: C_20  and  C_7 
REMARK    5  A    between atoms: C_14  and  O_8 
ROOT
ATOM      1  C   UNL d   1      48.033  36.085  52.866  0.00  0.00     0.139 A 
ATOM      2  C   UNL d   1      48.713  35.282  52.047  0.00  0.00     0.064 A 
ATOM      3  C   UNL d   1      48.125  35.860  52.078  0.00  0.00     0.220 A 
ATOM      4  C   UNL d   1      48.984  35.150  52.819  0.00  0.00     0.105 A 
ATOM      5  O   UNL d   1      48.562  35.647  53.322  0.00  0.00    -0.304 OA
ATOM      6  C   UNL d   1      49.583  34.590  52.955  0.00  0.00     0.050 A 
ATOM      7  C   UNL d   1      49.041  34.854  51.412  0.00  0.00     0.007 A 
ATOM      8  C   UNL d   1      49.905  34.169  52.327  0.00  0.00     0.116 A 
ATOM      9  O   UNL d   1      47.707  36.157  51.434  0.00  0.00    -0.284 OA
ATOM     10  C   UNL d   1      49.634  34.300  51.556  0.00  0.00     0.026 A 
ENDROOT
BRANCH   8  11
ATOM     11  O   UNL d   1      50.496  33.616  52.462  0.00  0.00    -0.227 OA
BRANCH  11  12
ATOM     12  S   UNL d   1      51.171  33.819  52.875  0.00  0.00     0.304 S 
ATOM     13  O   UNL d   1      51.491  34.150  52.197  0.00  0.00    -0.193 OA
ATOM     14  O   UNL d   1      50.852  33.488  53.553  0.00  0.00    -0.193 OA
BRANCH  12  15
ATOM     15  C   UNL d   1      51.852  34.023  53.292  0.00  0.00     0.111 A 
ATOM     16  C   UNL d   1      52.145  34.791  53.254  0.00  0.00     0.013 A 
ATOM     17  C   UNL d   1      52.830  34.998  53.673  0.00  0.00     0.001 A 
ATOM     18  C   UNL d   1      53.213  34.429  54.128  0.00  0.00     0.000 A 
ATOM     19  C   UNL d   1      52.921  33.656  54.169  0.00  0.00     0.001 A 
ATOM     20  C   UNL d   1      53.893  34.632  54.545  0.00  0.00     0.000 C 
ATOM     21  C   UNL d   1      52.243  33.456  53.752  0.00  0.00     0.013 A 
ENDBRANCH  12  15
ENDBRANCH  11  12
ENDBRANCH   8  11
BRANCH   1  22
ATOM     22  C   UNL d   1      47.500  36.652  53.150  0.00  0.00     0.029 C 
BRANCH  22  23
ATOM     23  C   UNL d   1      47.043  36.486  53.809  0.00  0.00     0.021 A 
ATOM     24  C   UNL d   1      47.310  36.709  54.560  0.00  0.00     0.099 A 
ATOM     25  N   UNL d   1      46.856  36.545  55.229  0.00  0.00    -0.242 NA
ATOM     26  C   UNL d   1      46.133  36.157  55.142  0.00  0.00     0.099 A 
ATOM     27  C   UNL d   1      45.866  35.934  54.391  0.00  0.00     0.021 A 
ATOM     28  C   UNL d   1      46.324  36.101  53.731  0.00  0.00     0.003 A 
ENDBRANCH  22  23
ENDBRANCH   1  22
TORSDOF 5
ENDMDL
MODEL 3
REMARK VINA RESULT:      -7.6      1.635      5.192
REMARK  5 active torsions:
REMARK  status: ('A' for Active; 'I' for Inactive)
REMARK    1  A    between atoms: O_8  and  S_1 
REMARK    2  A    between atoms: C_9  and  S_1 
REMARK    3  A    between atoms: C_7  and  C_2 
REMARK    4  A    between atoms: C_20  and  C_7 
REMARK    5  A    between atoms: C_14  and  O_8 
ROOT
ATOM      1  C   UNL d   1      50.330  34.432  52.938  0.00  0.00     0.139 A 
ATOM      2  C   UNL d   1      51.618  34.242  53.224  0.00  0.00     0.064 A 
ATOM      3  C   UNL d   1      50.976  34.745  53.344  0.00  0.00     0.220 A 
ATOM      4  C   UNL d   1      51.368  33.616  52.743  0.00  0.00     0.105 A 
ATOM      5  O   UNL d   1      50.572  33.736  52.567  0.00  0.00    -0.304 OA
ATOM      6  C   UNL d   1      51.906  33.019  52.530  0.00  0.00     0.050 A 
ATOM      7  C   UNL d   1      52.406  34.271  53.493  0.00  0.00     0.007 A 
ATOM      8  C   UNL d   1      52.683  33.050  52.796  0.00  0.00     0.116 A 
ATOM      9  O   UNL d   1      50.981  35.437  53.790  0.00  0.00    -0.284 OA
ATOM     10  C   UNL d   1      52.933  33.675  53.277  0.00  0.00     0.026 A 
ENDROOT
BRANCH   8  11
ATOM     11  O   UNL d   1      53.214  32.461  52.586  0.00  0.00    -0.227 OA
BRANCH  11  12
ATOM     12  S   UNL d   1      53.220  31.744  52.978  0.00  0.00     0.304 S 
ATOM     13  O   UNL d   1      52.698  31.434  52.426  0.00  0.00    -0.193 OA
ATOM     14  O   UNL d   1      53.741  32.054  53.528  0.00  0.00    -0.193 OA
BRANCH  12  15
ATOM     15  C   UNL d   1      53.226  31.022  53.374  0.00  0.00     0.111 A 
ATOM     16  C   UNL d   1      53.576  30.960  54.117  0.00  0.00     0.013 A 
ATOM     17  C   UNL d   1      53.583  30.234  54.516  0.00  0.00     0.001 A 
ATOM     18  C   UNL d   1      53.237  29.576  54.164  0.00  0.00     0.000 A 
ATOM     19  C   UNL d   1      52.885  29.634  53.418  0.00  0.00     0.001 A 
ATOM     20  C   UNL d   1      53.243  28.853  54.559  0.00  0.00     0.000 C 
ATOM     21  C   UNL d   1      52.881  30.354  53.026  0.00  0.00     0.013 A 
ENDBRANCH  12  15
ENDBRANCH  11  12
ENDBRANCH   8  11
BRANCH   1  22
ATOM     22  C   UNL d   1      49.570  34.759  52.907  0.00  0.00     0.029 C 
BRANCH  22  23
ATOM     23  C   UNL d   1      49.165  34.780  52.196  0.00  0.00     0.021 A 
ATOM     24  C   UNL d   1      49.483  34.401  51.531  0.00  0.00     0.099 A 
ATOM     25  N   UNL d   1      49.081  34.418  50.811  0.00  0.00    -0.242 NA
ATOM     26  C   UNL d   1      48.361  34.815  50.759  0.00  0.00     0.099 A 
ATOM     27  C   UNL d   1      48.043  35.194  51.423  0.00  0.00     0.021 A 
ATOM     28  C   UNL d   1      48.449  35.173  52.135  0.00  0.00     0.003 A 
ENDBRANCH  22  23
ENDBRANCH   1  22
TORSDOF 5
ENDMDL
MODEL 4
REMARK VINA RESULT:      -7.5      1.864      2.752
REMARK  5 active torsions:
REMARK  status: ('A' for Active; 'I' for Inactive)
REMARK    1  A    between atoms: O_8  and  S_1 
REMARK    2  A    between atoms: C_9  and  S_1 
REMARK    3  A    between atoms: C_7  and  C_2 
REMARK    4  A    between atoms: C_20  and  C_7 
REMARK    5  A    between atoms: C_14  and  O_8 
ROOT
ATOM      1  C   UNL d   1      53.045  32.583  53.483  0.00  0.00     0.139 A 
ATOM      2  C   UNL d   1      51.780  32.693  53.076  0.00  0.00     0.064 A 
ATOM      3  C   UNL d   1      52.327  32.181  53.419  0.00  0.00     0.220 A 
ATOM      4  C   UNL d   1      52.160  33.414  52.928  0.00  0.00     0.105 A 
ATOM      5  O   UNL d   1      52.941  33.343  53.180  0.00  0.00    -0.304 OA
ATOM      6  C   UNL d   1      51.737  34.039  52.581  0.00  0.00     0.050 A 
ATOM      7  C   UNL d   1      50.976  32.599  52.877  0.00  0.00     0.007 A 
ATOM      8  C   UNL d   1      50.944  33.944  52.385  0.00  0.00     0.116 A 
ATOM      9  O   UNL d   1      52.181  31.405  53.655  0.00  0.00    -0.284 OA
ATOM     10  C   UNL d   1      50.564  33.223  52.533  0.00  0.00     0.026 A 
ENDROOT
BRANCH   8  11
ATOM     11  O   UNL d   1      50.527  34.561  52.042  0.00  0.00    -0.227 OA
BRANCH  11  12
ATOM     12  S   UNL d   1      49.873  34.880  52.413  0.00  0.00     0.304 S 
ATOM     13  O   UNL d   1      50.357  35.236  52.970  0.00  0.00    -0.193 OA
ATOM     14  O   UNL d   1      49.389  34.524  51.856  0.00  0.00    -0.193 OA
BRANCH  12  15
ATOM     15  C   UNL d   1      49.212  35.200  52.786  0.00  0.00     0.111 A 
ATOM     16  C   UNL d   1      48.507  35.293  52.371  0.00  0.00     0.013 A 
ATOM     17  C   UNL d   1      47.841  35.616  52.745  0.00  0.00     0.001 A 
ATOM     18  C   UNL d   1      47.891  35.842  53.534  0.00  0.00     0.000 A 
ATOM     19  C   UNL d   1      48.598  35.750  53.954  0.00  0.00     0.001 A 
ATOM     20  C   UNL d   1      47.232  36.163  53.908  0.00  0.00     0.000 C 
ATOM     21  C   UNL d   1      49.254  35.431  53.580  0.00  0.00     0.013 A 
ENDBRANCH  12  15
ENDBRANCH  11  12
ENDBRANCH   8  11
BRANCH   1  22
ATOM     22  C   UNL d   1      53.747  32.277  53.797  0.00  0.00     0.029 C 
BRANCH  22  23
ATOM     23  C   UNL d   1      54.221  32.749  54.268  0.00  0.00     0.021 A 
ATOM     24  C   UNL d   1      54.868  33.144  53.935  0.00  0.00     0.099 A 
ATOM     25  N   UNL d   1      55.350  33.622  54.404  0.00  0.00    -0.242 NA
ATOM     26  C   UNL d   1      55.182  33.703  55.207  0.00  0.00     0.099 A 
ATOM     27  C   UNL d   1      54.535  33.308  55.540  0.00  0.00     0.021 A 
ATOM     28  C   UNL d   1      54.061  32.835  55.068  0.00  0.00     0.003 A 
ENDBRANCH  22  23
ENDBRANCH   1  22
TORSDOF 5
ENDMDL
