MODEL 1
REMARK VINA RESULT:      59.2      0.000      0.000
REMARK  5 active torsions:
REMARK  status: ('A' for Active; 'I' for Inactive)
REMARK    1  A    between atoms: C_4  and  N_1 
REMARK    2  A    between atoms: C_8  and  C_3 
REMARK    3  A    between atoms: N_7  and  C_4 
REMARK    4  A    between atoms: C_15  and  N_7 
REMARK    5  A    between atoms: C_17  and  C_15 
ROOT
ATOM      1  N   UNL d   1      57.393  49.553  51.735  0.00  0.00    -0.281 N 
ATOM      2  C   UNL d   1      57.439  49.326  50.336  0.00  0.00     0.080 A 
ATOM      3  C   UNL d   1      57.822  49.377  51.058  0.00  0.00     0.084 A 
ATOM      4  N   UNL d   1      56.629  49.450  50.289  0.00  0.00    -0.301 N 
ATOM      5  C   UNL d   1      56.576  49.678  51.687  0.00  0.00     0.101 A 
ATOM      6  C   UNL d   1      57.718  49.161  49.576  0.00  0.00     0.021 A 
ATOM      7  C   UNL d   1      56.398  49.363  49.501  0.00  0.00     0.080 A 
ATOM      8  C   UNL d   1      56.199  49.624  50.959  0.00  0.00     0.100 A 
ATOM      9  C   UNL d   1      57.070  49.185  49.056  0.00  0.00     0.021 A 
ENDROOT
BRANCH   1  10
ATOM     10  C   UNL d   1      57.771  49.607  52.469  0.00  0.00     0.184 C 
ATOM     11  S   UNL d   1      58.586  49.679  52.495  0.00  0.00    -0.040 SA
BRANCH  10  12
ATOM     12  N   UNL d   1      57.335  49.588  53.163  0.00  0.00    -0.330 N 
ATOM     13  H   UNL d   1      56.520  49.458  53.134  0.00  0.00     0.168 HD
BRANCH  12  14
ATOM     14  C   UNL d   1      57.707  49.699  53.885  0.00  0.00     0.074 C 
BRANCH  14  15
ATOM     15  C   UNL d   1      57.284  49.617  54.583  0.00  0.00     0.017 A 
ATOM     16  C   UNL d   1      56.457  49.676  54.580  0.00  0.00     0.002 A 
ATOM     17  C   UNL d   1      56.038  49.592  55.285  0.00  0.00     0.000 A 
ATOM     18  C   UNL d   1      56.434  49.448  55.998  0.00  0.00     0.000 A 
ATOM     19  C   UNL d   1      57.262  49.390  55.994  0.00  0.00     0.000 A 
ATOM     20  C   UNL d   1      57.685  49.474  55.289  0.00  0.00     0.002 A 
ENDBRANCH  14  15
ENDBRANCH  12  14
ENDBRANCH  10  12
ENDBRANCH   1  10
BRANCH   3  21
ATOM     21  C   UNL d   1      58.636  49.253  51.108  0.00  0.00     0.037 A 
ATOM     22  C   UNL d   1      59.028  48.836  50.514  0.00  0.00     0.100 A 
ATOM     23  N   UNL d   1      59.839  48.716  50.570  0.00  0.00    -0.242 NA
ATOM     24  C   UNL d   1      60.261  49.001  51.201  0.00  0.00     0.099 A 
ATOM     25  C   UNL d   1      59.873  49.421  51.801  0.00  0.00     0.021 A 
ATOM     26  C   UNL d   1      59.058  49.545  51.751  0.00  0.00     0.005 A 
ENDBRANCH   3  21
TORSDOF 5
ENDMDL
