MODEL 1
REMARK VINA RESULT:      -8.4      0.000      0.000
REMARK  4 active torsions:
REMARK  status: ('A' for Active; 'I' for Inactive)
REMARK    1  A    between atoms: C_8  and  C_1 
REMARK    2  A    between atoms: N_11  and  C_9 
REMARK    3  A    between atoms: C_15  and  N_11 
REMARK    4  A    between atoms: C_16  and  N_11 
ROOT
ATOM      1  C   UNL d   1      53.465  30.702  53.529  0.00  0.00     0.102 A 
ATOM      2  C   UNL d   1      52.977  30.940  52.890  0.00  0.00     0.303 A 
ATOM      3  C   UNL d   1      53.711  31.270  54.075  0.00  0.00     0.011 A 
ATOM      4  O   UNL d   1      52.758  31.733  52.829  0.00  0.00    -0.273 OA
ATOM      5  C   UNL d   1      53.004  32.293  53.372  0.00  0.00     0.105 A 
ATOM      6  C   UNL d   1      53.492  32.056  54.011  0.00  0.00     0.023 A 
ATOM      7  C   UNL d   1      52.784  33.062  53.302  0.00  0.00     0.042 A 
ATOM      8  C   UNL d   1      53.030  33.625  53.848  0.00  0.00     0.066 A 
ATOM      9  O   UNL d   1      52.719  30.382  52.329  0.00  0.00    -0.259 OA
ATOM     10  C   UNL d   1      53.737  32.599  54.549  0.00  0.00     0.004 A 
ATOM     11  C   UNL d   1      53.518  33.388  54.486  0.00  0.00     0.018 A 
ENDROOT
BRANCH   8  12
ATOM     12  N   UNL d   1      52.798  34.418  53.767  0.00  0.00    -0.304 N 
BRANCH  12  13
ATOM     13  C   UNL d   1      52.403  34.658  53.076  0.00  0.00     0.080 C 
ATOM     14  C   UNL d   1      51.614  34.925  53.125  0.00  0.00     0.021 C 
ENDBRANCH  12  13
BRANCH  12  15
ATOM     15  C   UNL d   1      52.956  34.954  54.358  0.00  0.00     0.080 C 
ATOM     16  C   UNL d   1      53.215  35.700  54.189  0.00  0.00     0.021 C 
ENDBRANCH  12  15
ENDBRANCH   8  12
BRANCH   1  17
ATOM     17  C   UNL d   1      53.696  29.907  53.607  0.00  0.00     0.201 C 
ATOM     18  O   UNL d   1      54.409  29.641  53.265  0.00  0.00    -0.286 OA
ATOM     19  C   UNL d   1      53.211  29.384  54.027  0.00  0.00     0.045 C 
ENDBRANCH   1  17
TORSDOF 4
ENDMDL
MODEL 2
REMARK VINA RESULT:      -8.4      1.638      4.005
REMARK  4 active torsions:
REMARK  status: ('A' for Active; 'I' for Inactive)
REMARK    1  A    between atoms: C_8  and  C_1 
REMARK    2  A    between atoms: N_11  and  C_9 
REMARK    3  A    between atoms: C_15  and  N_11 
REMARK    4  A    between atoms: C_16  and  N_11 
ROOT
ATOM      1  C   UNL d   1      52.912  34.433  53.920  0.00  0.00     0.102 A 
ATOM      2  C   UNL d   1      52.232  34.145  53.523  0.00  0.00     0.303 A 
ATOM      3  C   UNL d   1      53.508  33.900  54.127  0.00  0.00     0.011 A 
ATOM      4  O   UNL d   1      52.181  33.339  53.353  0.00  0.00    -0.273 OA
ATOM      5  C   UNL d   1      52.774  32.815  53.560  0.00  0.00     0.105 A 
ATOM      6  C   UNL d   1      53.454  33.102  53.957  0.00  0.00     0.023 A 
ATOM      7  C   UNL d   1      52.713  32.032  53.389  0.00  0.00     0.042 A 
ATOM      8  C   UNL d   1      53.307  31.504  53.596  0.00  0.00     0.066 A 
ATOM      9  O   UNL d   1      51.621  34.666  53.306  0.00  0.00    -0.259 OA
ATOM     10  C   UNL d   1      54.040  32.594  54.163  0.00  0.00     0.004 A 
ATOM     11  C   UNL d   1      53.987  31.792  53.993  0.00  0.00     0.018 A 
ENDROOT
BRANCH   8  12
ATOM     12  N   UNL d   1      53.235  30.698  53.416  0.00  0.00    -0.304 N 
BRANCH  12  13
ATOM     13  C   UNL d   1      53.641  30.140  53.880  0.00  0.00     0.080 C 
ATOM     14  C   UNL d   1      53.242  29.455  54.142  0.00  0.00     0.021 C 
ENDBRANCH  12  13
BRANCH  12  15
ATOM     15  C   UNL d   1      52.774  30.455  52.792  0.00  0.00     0.080 C 
ATOM     16  C   UNL d   1      52.961  29.797  52.363  0.00  0.00     0.021 C 
ENDBRANCH  12  15
ENDBRANCH   8  12
BRANCH   1  17
ATOM     17  C   UNL d   1      52.982  35.241  54.100  0.00  0.00     0.201 C 
ATOM     18  O   UNL d   1      53.245  35.781  53.519  0.00  0.00    -0.286 OA
ATOM     19  C   UNL d   1      52.788  35.506  54.860  0.00  0.00     0.045 C 
ENDBRANCH   1  17
TORSDOF 4
ENDMDL
MODEL 3
REMARK VINA RESULT:      -8.3      1.739      2.844
REMARK  4 active torsions:
REMARK  status: ('A' for Active; 'I' for Inactive)
REMARK    1  A    between atoms: C_8  and  C_1 
REMARK    2  A    between atoms: N_11  and  C_9 
REMARK    3  A    between atoms: C_15  and  N_11 
REMARK    4  A    between atoms: C_16  and  N_11 
ROOT
ATOM      1  C   UNL d   1      54.003  33.375  54.446  0.00  0.00     0.102 A 
ATOM      2  C   UNL d   1      53.605  32.670  54.229  0.00  0.00     0.303 A 
ATOM      3  C   UNL d   1      53.672  34.102  54.233  0.00  0.00     0.011 A 
ATOM      4  O   UNL d   1      52.895  32.725  53.811  0.00  0.00    -0.273 OA
ATOM      5  C   UNL d   1      52.571  33.447  53.603  0.00  0.00     0.105 A 
ATOM      6  C   UNL d   1      52.969  34.152  53.819  0.00  0.00     0.023 A 
ATOM      7  C   UNL d   1      51.879  33.488  53.196  0.00  0.00     0.042 A 
ATOM      8  C   UNL d   1      51.552  34.211  52.986  0.00  0.00     0.066 A 
ATOM      9  O   UNL d   1      53.922  31.929  54.434  0.00  0.00    -0.259 OA
ATOM     10  C   UNL d   1      52.657  34.864  53.618  0.00  0.00     0.004 A 
ATOM     11  C   UNL d   1      51.950  34.916  53.202  0.00  0.00     0.018 A 
ENDROOT
BRANCH   8  12
ATOM     12  N   UNL d   1      50.838  34.244  52.565  0.00  0.00    -0.304 N 
BRANCH  12  13
ATOM     13  C   UNL d   1      50.120  34.256  52.985  0.00  0.00     0.080 C 
ATOM     14  C   UNL d   1      49.549  34.840  52.807  0.00  0.00     0.021 C 
ENDBRANCH  12  13
BRANCH  12  15
ATOM     15  C   UNL d   1      50.839  34.265  51.753  0.00  0.00     0.080 C 
ATOM     16  C   UNL d   1      50.168  34.118  51.328  0.00  0.00     0.021 C 
ENDBRANCH  12  15
ENDBRANCH   8  12
BRANCH   1  17
ATOM     17  C   UNL d   1      54.719  33.340  54.867  0.00  0.00     0.201 C 
ATOM     18  O   UNL d   1      55.444  33.266  54.459  0.00  0.00    -0.286 OA
ATOM     19  C   UNL d   1      54.705  33.379  55.694  0.00  0.00     0.045 C 
ENDBRANCH   1  17
TORSDOF 4
ENDMDL
MODEL 4
REMARK VINA RESULT:      -8.1      2.123      3.759
REMARK  4 active torsions:
REMARK  status: ('A' for Active; 'I' for Inactive)
REMARK    1  A    between atoms: C_8  and  C_1 
REMARK    2  A    between atoms: N_11  and  C_9 
REMARK    3  A    between atoms: C_15  and  N_11 
REMARK    4  A    between atoms: C_16  and  N_11 
ROOT
ATOM      1  C   UNL d   1      50.684  34.205  52.867  0.00  0.00     0.102 A 
ATOM      2  C   UNL d   1      50.723  33.411  53.133  0.00  0.00     0.303 A 
ATOM      3  C   UNL d   1      51.353  34.684  52.941  0.00  0.00     0.011 A 
ATOM      4  O   UNL d   1      51.429  33.134  53.460  0.00  0.00    -0.273 OA
ATOM      5  C   UNL d   1      52.090  33.612  53.531  0.00  0.00     0.105 A 
ATOM      6  C   UNL d   1      52.051  34.405  53.265  0.00  0.00     0.023 A 
ATOM      7  C   UNL d   1      52.771  33.331  53.851  0.00  0.00     0.042 A 
ATOM      8  C   UNL d   1      53.435  33.809  53.923  0.00  0.00     0.066 A 
ATOM      9  O   UNL d   1      50.060  32.914  53.068  0.00  0.00    -0.259 OA
ATOM     10  C   UNL d   1      52.695  34.880  53.331  0.00  0.00     0.004 A 
ATOM     11  C   UNL d   1      53.396  34.603  53.657  0.00  0.00     0.018 A 
ENDROOT
BRANCH   8  12
ATOM     12  N   UNL d   1      54.134  33.511  54.254  0.00  0.00    -0.304 N 
BRANCH  12  13
ATOM     13  C   UNL d   1      54.451  33.876  54.931  0.00  0.00     0.080 C 
ATOM     14  C   UNL d   1      54.812  33.406  55.520  0.00  0.00     0.021 C 
ENDBRANCH  12  13
BRANCH  12  15
ATOM     15  C   UNL d   1      54.506  32.869  53.921  0.00  0.00     0.080 C 
ATOM     16  C   UNL d   1      55.252  32.928  53.616  0.00  0.00     0.021 C 
ENDBRANCH  12  15
ENDBRANCH   8  12
BRANCH   1  17
ATOM     17  C   UNL d   1      49.982  34.502  52.536  0.00  0.00     0.201 C 
ATOM     18  O   UNL d   1      49.438  34.922  53.009  0.00  0.00    -0.286 OA
ATOM     19  C   UNL d   1      49.829  34.377  51.732  0.00  0.00     0.045 C 
ENDBRANCH   1  17
TORSDOF 4
ENDMDL
