MODEL 1
REMARK VINA RESULT:      -6.0      0.000      0.000
REMARK  7 active torsions:
REMARK  status: ('A' for Active; 'I' for Inactive)
REMARK    1  A    between atoms: S_3  and  C_1 
REMARK    2  A    between atoms: C_10  and  S_3 
REMARK    3  A    between atoms: N_11  and  C_4 
REMARK    4  A    between atoms: C_9  and  C_5 
REMARK    5  A    between atoms: C_20  and  N_11 
REMARK    6  A    between atoms: C_22  and  C_20 
REMARK    7  A    between atoms: C_23  and  C_22 
ROOT
ATOM      1  C   UNL d   1     -39.144  14.100  18.157  0.00  0.00     0.042 A 
ATOM      2  C   UNL d   1     -39.152  14.728  17.628  0.00  0.00     0.006 A 
ATOM      3  C   UNL d   1     -38.862  13.356  17.924  0.00  0.00     0.006 A 
ATOM      4  C   UNL d   1     -38.592  13.877  16.609  0.00  0.00     0.094 A 
ATOM      5  C   UNL d   1     -38.585  13.235  17.156  0.00  0.00     0.024 A 
ATOM      6  C   UNL d   1     -38.876  14.619  16.853  0.00  0.00     0.024 A 
ATOM      7  O   UNL d   1     -38.315  13.762  15.835  0.00  0.00    -0.328 OA
ATOM      8  C   UNL d   1     -38.035  13.656  15.043  0.00  0.00     0.181 C 
ENDROOT
BRANCH   1   9
ATOM      9  C   UNL d   1     -39.417  14.203  18.930  0.00  0.00     0.185 A 
ATOM     10  N   UNL d   1     -38.930  14.466  19.539  0.00  0.00    -0.207 NA
ATOM     11  C   UNL d   1     -39.381  14.504  20.230  0.00  0.00     0.212 A 
ATOM     12  C   UNL d   1     -40.140  14.265  20.037  0.00  0.00     0.213 A 
ATOM     13  O   UNL d   1     -40.172  14.079  19.246  0.00  0.00    -0.269 OA
BRANCH  11  14
ATOM     14  S   UNL d   1     -39.225  14.723  21.025  0.00  0.00     0.230 S 
ATOM     15  O   UNL d   1     -39.366  15.484  20.547  0.00  0.00    -0.215 OA
ATOM     16  O   UNL d   1     -39.089  14.012  21.499  0.00  0.00    -0.215 OA
BRANCH  14  17
ATOM     17  C   UNL d   1     -39.073  14.935  21.803  0.00  0.00     0.090 A 
ATOM     18  C   UNL d   1     -39.191  15.707  22.044  0.00  0.00     0.011 A 
ATOM     19  C   UNL d   1     -39.040  15.921  22.818  0.00  0.00     0.001 A 
ATOM     20  C   UNL d   1     -38.771  15.364  23.351  0.00  0.00     0.000 A 
ATOM     21  C   UNL d   1     -38.650  14.585  23.112  0.00  0.00     0.001 A 
ATOM     22  C   UNL d   1     -38.801  14.370  22.339  0.00  0.00     0.011 A 
ENDBRANCH  14  17
ENDBRANCH  11  14
BRANCH  12  23
ATOM     23  N   UNL d   1     -40.753  14.232  20.597  0.00  0.00    -0.219 NA
BRANCH  23  24
ATOM     24  C   UNL d   1     -41.570  14.260  20.567  0.00  0.00     0.101 C 
BRANCH  24  25
ATOM     25  C   UNL d   1     -41.824  13.598  20.983  0.00  0.00     0.021 C 
BRANCH  25  26
ATOM     26  C   UNL d   1     -42.639  13.479  21.123  0.00  0.00     0.002 C 
ATOM     27  C   UNL d   1     -42.912  12.766  21.447  0.00  0.00     0.000 C 
ENDBRANCH  25  26
ENDBRANCH  24  25
ENDBRANCH  23  24
ENDBRANCH  12  23
ENDBRANCH   1   9
TORSDOF 7
ENDMDL
MODEL 2
REMARK VINA RESULT:      -6.0      6.227      8.848
REMARK  7 active torsions:
REMARK  status: ('A' for Active; 'I' for Inactive)
REMARK    1  A    between atoms: S_3  and  C_1 
REMARK    2  A    between atoms: C_10  and  S_3 
REMARK    3  A    between atoms: N_11  and  C_4 
REMARK    4  A    between atoms: C_9  and  C_5 
REMARK    5  A    between atoms: C_20  and  N_11 
REMARK    6  A    between atoms: C_22  and  C_20 
REMARK    7  A    between atoms: C_23  and  C_22 
ROOT
ATOM      1  C   UNL d   1     -45.639  12.888  22.249  0.00  0.00     0.042 A 
ATOM      2  C   UNL d   1     -45.218  12.227  22.496  0.00  0.00     0.006 A 
ATOM      3  C   UNL d   1     -45.270  13.482  21.804  0.00  0.00     0.006 A 
ATOM      4  C   UNL d   1     -44.035  12.741  21.852  0.00  0.00     0.094 A 
ATOM      5  C   UNL d   1     -44.472  13.418  21.602  0.00  0.00     0.024 A 
ATOM      6  C   UNL d   1     -44.416  12.152  22.298  0.00  0.00     0.024 A 
ATOM      7  O   UNL d   1     -43.233  12.670  21.653  0.00  0.00    -0.328 OA
ATOM      8  C   UNL d   1     -42.414  12.589  21.454  0.00  0.00     0.181 C 
ENDROOT
BRANCH   1   9
ATOM      9  C   UNL d   1     -46.439  12.968  22.443  0.00  0.00     0.185 A 
ATOM     10  N   UNL d   1     -46.854  13.667  22.318  0.00  0.00    -0.207 NA
ATOM     11  C   UNL d   1     -47.631  13.552  22.573  0.00  0.00     0.212 A 
ATOM     12  C   UNL d   1     -47.684  12.784  22.850  0.00  0.00     0.213 A 
ATOM     13  O   UNL d   1     -46.962  12.419  22.775  0.00  0.00    -0.269 OA
BRANCH  11  14
ATOM     14  S   UNL d   1     -48.320  14.031  22.599  0.00  0.00     0.230 S 
ATOM     15  O   UNL d   1     -48.224  13.725  21.748  0.00  0.00    -0.215 OA
ATOM     16  O   UNL d   1     -48.432  14.333  23.402  0.00  0.00    -0.215 OA
BRANCH  14  17
ATOM     17  C   UNL d   1     -48.994  14.499  22.627  0.00  0.00     0.090 A 
ATOM     18  C   UNL d   1     -49.077  15.057  23.217  0.00  0.00     0.011 A 
ATOM     19  C   UNL d   1     -49.746  15.525  23.248  0.00  0.00     0.001 A 
ATOM     20  C   UNL d   1     -50.333  15.434  22.687  0.00  0.00     0.000 A 
ATOM     21  C   UNL d   1     -50.254  14.872  22.089  0.00  0.00     0.001 A 
ATOM     22  C   UNL d   1     -49.585  14.405  22.059  0.00  0.00     0.011 A 
ENDBRANCH  14  17
ENDBRANCH  11  14
BRANCH  12  23
ATOM     23  N   UNL d   1     -48.390  12.467  23.153  0.00  0.00    -0.219 NA
BRANCH  23  24
ATOM     24  C   UNL d   1     -48.658  11.717  23.340  0.00  0.00     0.101 C 
BRANCH  24  25
ATOM     25  C   UNL d   1     -49.389  11.831  23.697  0.00  0.00     0.021 C 
BRANCH  25  26
ATOM     26  C   UNL d   1     -49.995  11.264  23.599  0.00  0.00     0.002 C 
ATOM     27  C   UNL d   1     -50.792  11.494  23.604  0.00  0.00     0.000 C 
ENDBRANCH  25  26
ENDBRANCH  24  25
ENDBRANCH  23  24
ENDBRANCH  12  23
ENDBRANCH   1   9
TORSDOF 7
ENDMDL
MODEL 3
REMARK VINA RESULT:      -4.0      5.319      8.461
REMARK  7 active torsions:
REMARK  status: ('A' for Active; 'I' for Inactive)
REMARK    1  A    between atoms: S_3  and  C_1 
REMARK    2  A    between atoms: C_10  and  S_3 
REMARK    3  A    between atoms: N_11  and  C_4 
REMARK    4  A    between atoms: C_9  and  C_5 
REMARK    5  A    between atoms: C_20  and  N_11 
REMARK    6  A    between atoms: C_22  and  C_20 
REMARK    7  A    between atoms: C_23  and  C_22 
ROOT
ATOM      1  C   UNL d   1     -47.949  13.620  22.851  0.00  0.00     0.042 A 
ATOM      2  C   UNL d   1     -48.619  13.145  22.855  0.00  0.00     0.006 A 
ATOM      3  C   UNL d   1     -48.016  14.444  22.905  0.00  0.00     0.006 A 
ATOM      4  C   UNL d   1     -49.449  14.317  22.969  0.00  0.00     0.094 A 
ATOM      5  C   UNL d   1     -48.759  14.801  22.964  0.00  0.00     0.024 A 
ATOM      6  C   UNL d   1     -49.371  13.491  22.914  0.00  0.00     0.024 A 
ATOM      7  O   UNL d   1     -50.199  14.669  23.028  0.00  0.00    -0.328 OA
ATOM      8  C   UNL d   1     -50.968  15.017  23.087  0.00  0.00     0.181 C 
ENDROOT
BRANCH   1   9
ATOM      9  C   UNL d   1     -47.198  13.280  22.792  0.00  0.00     0.185 A 
ATOM     10  N   UNL d   1     -46.604  13.601  22.322  0.00  0.00    -0.207 NA
ATOM     11  C   UNL d   1     -45.934  13.125  22.395  0.00  0.00     0.212 A 
ATOM     12  C   UNL d   1     -46.124  12.516  22.909  0.00  0.00     0.213 A 
ATOM     13  O   UNL d   1     -46.893  12.602  23.157  0.00  0.00    -0.269 OA
BRANCH  11  14
ATOM     14  S   UNL d   1     -45.159  13.142  22.072  0.00  0.00     0.230 S 
ATOM     15  O   UNL d   1     -45.154  13.633  22.838  0.00  0.00    -0.215 OA
ATOM     16  O   UNL d   1     -45.141  12.680  21.341  0.00  0.00    -0.215 OA
BRANCH  14  17
ATOM     17  C   UNL d   1     -44.403  13.158  21.754  0.00  0.00     0.090 A 
ATOM     18  C   UNL d   1     -44.118  12.507  21.351  0.00  0.00     0.011 A 
ATOM     19  C   UNL d   1     -43.365  12.519  21.033  0.00  0.00     0.001 A 
ATOM     20  C   UNL d   1     -42.897  13.184  21.119  0.00  0.00     0.000 A 
ATOM     21  C   UNL d   1     -43.181  13.843  21.525  0.00  0.00     0.001 A 
ATOM     22  C   UNL d   1     -43.932  13.830  21.842  0.00  0.00     0.011 A 
ENDBRANCH  14  17
ENDBRANCH  11  14
BRANCH  12  23
ATOM     23  N   UNL d   1     -45.581  11.923  23.117  0.00  0.00    -0.219 NA
BRANCH  23  24
ATOM     24  C   UNL d   1     -45.620  11.217  23.528  0.00  0.00     0.101 C 
BRANCH  24  25
ATOM     25  C   UNL d   1     -44.889  10.859  23.414  0.00  0.00     0.021 C 
BRANCH  25  26
ATOM     26  C   UNL d   1     -44.754  10.085  23.698  0.00  0.00     0.002 C 
ATOM     27  C   UNL d   1     -43.998   9.745  23.653  0.00  0.00     0.000 C 
ENDBRANCH  25  26
ENDBRANCH  24  25
ENDBRANCH  23  24
ENDBRANCH  12  23
ENDBRANCH   1   9
TORSDOF 7
ENDMDL
MODEL 4
REMARK VINA RESULT:      -3.3      5.030      8.251
REMARK  7 active torsions:
REMARK  status: ('A' for Active; 'I' for Inactive)
REMARK    1  A    between atoms: S_3  and  C_1 
REMARK    2  A    between atoms: C_10  and  S_3 
REMARK    3  A    between atoms: N_11  and  C_4 
REMARK    4  A    between atoms: C_9  and  C_5 
REMARK    5  A    between atoms: C_20  and  N_11 
REMARK    6  A    between atoms: C_22  and  C_20 
REMARK    7  A    between atoms: C_23  and  C_22 
ROOT
ATOM      1  C   UNL d   1     -47.167  13.690  22.754  0.00  0.00     0.042 A 
ATOM      2  C   UNL d   1     -47.904  13.330  22.761  0.00  0.00     0.006 A 
ATOM      3  C   UNL d   1     -47.097  14.513  22.836  0.00  0.00     0.006 A 
ATOM      4  C   UNL d   1     -48.530  14.617  22.932  0.00  0.00     0.094 A 
ATOM      5  C   UNL d   1     -47.770  14.982  22.925  0.00  0.00     0.024 A 
ATOM      6  C   UNL d   1     -48.588  13.792  22.850  0.00  0.00     0.024 A 
ATOM      7  O   UNL d   1     -49.211  15.083  23.021  0.00  0.00    -0.328 OA
ATOM      8  C   UNL d   1     -49.912  15.550  23.111  0.00  0.00     0.181 C 
ENDROOT
BRANCH   1   9
ATOM      9  C   UNL d   1     -46.482  13.236  22.666  0.00  0.00     0.185 A 
ATOM     10  N   UNL d   1     -46.359  12.538  23.084  0.00  0.00    -0.207 NA
ATOM     11  C   UNL d   1     -45.624  12.232  22.862  0.00  0.00     0.212 A 
ATOM     12  C   UNL d   1     -45.305  12.746  22.310  0.00  0.00     0.213 A 
ATOM     13  O   UNL d   1     -45.821  13.361  22.184  0.00  0.00    -0.269 OA
BRANCH  11  14
ATOM     14  S   UNL d   1     -45.179  11.553  23.075  0.00  0.00     0.230 S 
ATOM     15  O   UNL d   1     -45.998  11.275  22.793  0.00  0.00    -0.215 OA
ATOM     16  O   UNL d   1     -44.394  11.795  23.346  0.00  0.00    -0.215 OA
BRANCH  14  17
ATOM     17  C   UNL d   1     -44.742  10.890  23.283  0.00  0.00     0.090 A 
ATOM     18  C   UNL d   1     -45.123  10.181  23.422  0.00  0.00     0.011 A 
ATOM     19  C   UNL d   1     -44.691   9.519  23.629  0.00  0.00     0.001 A 
ATOM     20  C   UNL d   1     -43.878   9.567  23.698  0.00  0.00     0.000 A 
ATOM     21  C   UNL d   1     -43.490  10.280  23.559  0.00  0.00     0.001 A 
ATOM     22  C   UNL d   1     -43.922  10.941  23.352  0.00  0.00     0.011 A 
ENDBRANCH  14  17
ENDBRANCH  11  14
BRANCH  12  23
ATOM     23  N   UNL d   1     -44.563  12.617  21.958  0.00  0.00    -0.219 NA
BRANCH  23  24
ATOM     24  C   UNL d   1     -44.189  12.877  21.278  0.00  0.00     0.101 C 
BRANCH  24  25
ATOM     25  C   UNL d   1     -43.432  13.088  21.516  0.00  0.00     0.021 C 
BRANCH  25  26
ATOM     26  C   UNL d   1     -42.804  13.083  20.965  0.00  0.00     0.002 C 
ATOM     27  C   UNL d   1     -42.227  13.679  20.977  0.00  0.00     0.000 C 
ENDBRANCH  25  26
ENDBRANCH  24  25
ENDBRANCH  23  24
ENDBRANCH  12  23
ENDBRANCH   1   9
TORSDOF 7
ENDMDL
