MODEL 1
REMARK VINA RESULT:      -7.2      0.000      0.000
REMARK  4 active torsions:
REMARK  status: ('A' for Active; 'I' for Inactive)
REMARK    1  A    between atoms: S_10  and  C_5 
REMARK       I    between atoms: N_7  and  C_8 
REMARK    2  A    between atoms: C_8  and  C_11 
REMARK    3  A    between atoms: C_11  and  S_10 
REMARK    4  A    between atoms: C_19  and  C_12 
ROOT
ATOM      1  S   UNL d   1     -47.169  11.792  23.520  0.00  0.00    -0.054 SA
ENDROOT
BRANCH   1   2
ATOM      2  C   UNL d   1     -46.371  11.558  23.414  0.00  0.00     0.163 A 
ATOM      3  S   UNL d   1     -45.776  11.990  23.008  0.00  0.00    -0.021 SA
ATOM      4  C   UNL d   1     -45.070  11.553  23.038  0.00  0.00     0.200 A 
ATOM      5  N   UNL d   1     -44.502  11.842  22.717  0.00  0.00    -0.182 NA
ATOM      6  N   UNL d   1     -45.212  10.840  23.464  0.00  0.00    -0.204 N 
ATOM      7  C   UNL d   1     -43.762  11.504  22.683  0.00  0.00     0.281 A 
ATOM      8  O   UNL d   1     -43.446  12.143  22.246  0.00  0.00    -0.265 OA
ATOM      9  C   UNL d   1     -43.512  10.746  23.020  0.00  0.00     0.064 A 
ATOM     10  C   UNL d   1     -43.998  10.185  23.464  0.00  0.00     0.026 A 
ATOM     11  C   UNL d   1     -44.806  10.275  23.651  0.00  0.00     0.103 A 
ATOM     12  N   UNL d   1     -46.020  10.843  23.698  0.00  0.00    -0.150 NA
ENDBRANCH   1   2
BRANCH   1  13
ATOM     13  C   UNL d   1     -47.671  11.851  22.876  0.00  0.00     0.099 C 
BRANCH  13  14
ATOM     14  C   UNL d   1     -48.488  11.868  22.991  0.00  0.00     0.271 C 
ATOM     15  N   UNL d   1     -48.977  12.209  22.439  0.00  0.00    -0.273 N 
ATOM     16  C   UNL d   1     -49.782  12.225  22.555  0.00  0.00     0.067 A 
ATOM     17  C   UNL d   1     -48.662  12.542  21.758  0.00  0.00     0.083 A 
ATOM     18  C   UNL d   1     -50.274  12.575  21.986  0.00  0.00     0.018 A 
ATOM     19  C   UNL d   1     -49.947  12.901  21.315  0.00  0.00     0.003 A 
ATOM     20  C   UNL d   1     -49.140  12.883  21.203  0.00  0.00     0.019 A 
ATOM     21  O   UNL d   1     -48.808  11.536  23.673  0.00  0.00    -0.266 OA
BRANCH  16  22
ATOM     22  C   UNL d   1     -50.102  11.894  23.233  0.00  0.00     0.018 C 
ATOM     23  C   UNL d   1     -50.878  12.095  23.455  0.00  0.00     0.002 C 
ENDBRANCH  16  22
ENDBRANCH  13  14
ENDBRANCH   1  13
TORSDOF 4
ENDMDL
MODEL 2
REMARK VINA RESULT:      -7.1      1.581      1.830
REMARK  4 active torsions:
REMARK  status: ('A' for Active; 'I' for Inactive)
REMARK    1  A    between atoms: S_10  and  C_5 
REMARK       I    between atoms: N_7  and  C_8 
REMARK    2  A    between atoms: C_8  and  C_11 
REMARK    3  A    between atoms: C_11  and  S_10 
REMARK    4  A    between atoms: C_19  and  C_12 
ROOT
ATOM      1  S   UNL d   1     -46.887  13.336  22.858  0.00  0.00    -0.054 SA
ENDROOT
BRANCH   1   2
ATOM      2  C   UNL d   1     -46.329  12.720  22.962  0.00  0.00     0.163 A 
ATOM      3  S   UNL d   1     -45.539  12.711  22.675  0.00  0.00    -0.021 SA
ATOM      4  C   UNL d   1     -45.186  11.995  22.905  0.00  0.00     0.200 A 
ATOM      5  N   UNL d   1     -44.508  11.894  22.706  0.00  0.00    -0.182 NA
ATOM      6  N   UNL d   1     -45.750  11.544  23.339  0.00  0.00    -0.204 N 
ATOM      7  C   UNL d   1     -44.064  11.234  22.874  0.00  0.00     0.281 A 
ATOM      8  O   UNL d   1     -43.393  11.533  22.477  0.00  0.00    -0.265 OA
ATOM      9  C   UNL d   1     -44.311  10.531  23.317  0.00  0.00     0.064 A 
ATOM     10  C   UNL d   1     -45.084  10.383  23.676  0.00  0.00     0.026 A 
ATOM     11  C   UNL d   1     -45.740  10.899  23.659  0.00  0.00     0.103 A 
ATOM     12  N   UNL d   1     -46.460  11.994  23.374  0.00  0.00    -0.150 NA
ENDBRANCH   1   2
BRANCH   1  13
ATOM     13  C   UNL d   1     -47.670  13.225  23.069  0.00  0.00     0.099 C 
BRANCH  13  14
ATOM     14  C   UNL d   1     -48.212  13.841  22.983  0.00  0.00     0.271 C 
ATOM     15  N   UNL d   1     -49.010  13.705  23.053  0.00  0.00    -0.273 N 
ATOM     16  C   UNL d   1     -49.542  14.314  22.967  0.00  0.00     0.067 A 
ATOM     17  C   UNL d   1     -49.287  12.948  23.211  0.00  0.00     0.083 A 
ATOM     18  C   UNL d   1     -50.355  14.165  23.041  0.00  0.00     0.018 A 
ATOM     19  C   UNL d   1     -50.615  13.410  23.197  0.00  0.00     0.003 A 
ATOM     20  C   UNL d   1     -50.078  12.802  23.282  0.00  0.00     0.019 A 
ATOM     21  O   UNL d   1     -47.938  14.601  22.825  0.00  0.00    -0.266 OA
BRANCH  16  22
ATOM     22  C   UNL d   1     -49.271  15.071  22.810  0.00  0.00     0.018 C 
ATOM     23  C   UNL d   1     -49.822  15.684  22.697  0.00  0.00     0.002 C 
ENDBRANCH  16  22
ENDBRANCH  13  14
ENDBRANCH   1  13
TORSDOF 4
ENDMDL
MODEL 3
REMARK VINA RESULT:      -6.4      2.080      5.387
REMARK  4 active torsions:
REMARK  status: ('A' for Active; 'I' for Inactive)
REMARK    1  A    between atoms: S_10  and  C_5 
REMARK       I    between atoms: N_7  and  C_8 
REMARK    2  A    between atoms: C_8  and  C_11 
REMARK    3  A    between atoms: C_11  and  S_10 
REMARK    4  A    between atoms: C_19  and  C_12 
ROOT
ATOM      1  S   UNL d   1     -47.273  13.896  22.556  0.00  0.00    -0.054 SA
ENDROOT
BRANCH   1   2
ATOM      2  C   UNL d   1     -48.076  14.131  22.577  0.00  0.00     0.163 A 
ATOM      3  S   UNL d   1     -48.689  13.850  22.076  0.00  0.00    -0.021 SA
ATOM      4  C   UNL d   1     -49.397  14.230  22.289  0.00  0.00     0.200 A 
ATOM      5  N   UNL d   1     -49.980  14.055  21.917  0.00  0.00    -0.182 NA
ATOM      6  N   UNL d   1     -49.237  14.756  22.928  0.00  0.00    -0.204 N 
ATOM      7  C   UNL d   1     -50.723  14.363  22.038  0.00  0.00     0.281 A 
ATOM      8  O   UNL d   1     -51.057  13.906  21.423  0.00  0.00    -0.265 OA
ATOM      9  C   UNL d   1     -50.960  14.953  22.628  0.00  0.00     0.064 A 
ATOM     10  C   UNL d   1     -50.455  15.339  23.214  0.00  0.00     0.026 A 
ATOM     11  C   UNL d   1     -49.637  15.211  23.318  0.00  0.00     0.103 A 
ATOM     12  N   UNL d   1     -48.417  14.695  23.106  0.00  0.00    -0.150 NA
ENDBRANCH   1   2
BRANCH   1  13
ATOM     13  C   UNL d   1     -47.054  13.148  22.809  0.00  0.00     0.099 C 
BRANCH  13  14
ATOM     14  C   UNL d   1     -46.272  12.899  22.731  0.00  0.00     0.271 C 
ATOM     15  N   UNL d   1     -46.033  12.180  23.024  0.00  0.00    -0.273 N 
ATOM     16  C   UNL d   1     -45.261  11.937  22.945  0.00  0.00     0.067 A 
ATOM     17  C   UNL d   1     -46.573  11.690  23.403  0.00  0.00     0.083 A 
ATOM     18  C   UNL d   1     -45.028  11.200  23.248  0.00  0.00     0.018 A 
ATOM     19  C   UNL d   1     -45.574  10.726  23.621  0.00  0.00     0.003 A 
ATOM     20  C   UNL d   1     -46.347  10.973  23.698  0.00  0.00     0.019 A 
ATOM     21  O   UNL d   1     -45.727  13.387  22.351  0.00  0.00    -0.266 OA
BRANCH  16  22
ATOM     22  C   UNL d   1     -44.719  12.421  22.568  0.00  0.00     0.018 C 
ATOM     23  C   UNL d   1     -44.032  12.084  22.241  0.00  0.00     0.002 C 
ENDBRANCH  16  22
ENDBRANCH  13  14
ENDBRANCH   1  13
TORSDOF 4
ENDMDL
MODEL 4
REMARK VINA RESULT:      -6.2      8.367      9.027
REMARK  4 active torsions:
REMARK  status: ('A' for Active; 'I' for Inactive)
REMARK    1  A    between atoms: S_10  and  C_5 
REMARK       I    between atoms: N_7  and  C_8 
REMARK    2  A    between atoms: C_8  and  C_11 
REMARK    3  A    between atoms: C_11  and  S_10 
REMARK    4  A    between atoms: C_19  and  C_12 
ROOT
ATOM      1  S   UNL d   1     -40.262  15.017  20.235  0.00  0.00    -0.054 SA
ENDROOT
BRANCH   1   2
ATOM      2  C   UNL d   1     -39.881  14.831  20.957  0.00  0.00     0.163 A 
ATOM      3  S   UNL d   1     -39.597  15.381  21.526  0.00  0.00    -0.021 SA
ATOM      4  C   UNL d   1     -39.259  14.956  22.155  0.00  0.00     0.200 A 
ATOM      5  N   UNL d   1     -38.988  15.340  22.691  0.00  0.00    -0.182 NA
ATOM      6  N   UNL d   1     -39.325  14.132  21.989  0.00  0.00    -0.204 N 
ATOM      7  C   UNL d   1     -38.634  15.032  23.356  0.00  0.00     0.281 A 
ATOM      8  O   UNL d   1     -38.484  15.788  23.677  0.00  0.00    -0.265 OA
ATOM      9  C   UNL d   1     -38.513  14.195  23.549  0.00  0.00     0.064 A 
ATOM     10  C   UNL d   1     -38.744  13.510  23.075  0.00  0.00     0.026 A 
ATOM     11  C   UNL d   1     -39.130  13.532  22.335  0.00  0.00     0.103 A 
ATOM     12  N   UNL d   1     -39.711  14.055  21.246  0.00  0.00    -0.150 NA
ENDBRANCH   1   2
BRANCH   1  13
ATOM     13  C   UNL d   1     -39.885  14.880  19.521  0.00  0.00     0.099 C 
BRANCH  13  14
ATOM     14  C   UNL d   1     -40.240  15.117  18.816  0.00  0.00     0.271 C 
ATOM     15  N   UNL d   1     -39.914  14.916  18.099  0.00  0.00    -0.273 N 
ATOM     16  C   UNL d   1     -40.266  15.151  17.404  0.00  0.00     0.067 A 
ATOM     17  C   UNL d   1     -39.224  14.472  18.069  0.00  0.00     0.083 A 
ATOM     18  C   UNL d   1     -39.926  14.941  16.677  0.00  0.00     0.018 A 
ATOM     19  C   UNL d   1     -39.242  14.500  16.664  0.00  0.00     0.003 A 
ATOM     20  C   UNL d   1     -38.892  14.266  17.363  0.00  0.00     0.019 A 
ATOM     21  O   UNL d   1     -40.932  15.562  18.840  0.00  0.00    -0.266 OA
BRANCH  16  22
ATOM     22  C   UNL d   1     -40.955  15.594  17.428  0.00  0.00     0.018 C 
ATOM     23  C   UNL d   1     -41.317  15.820  16.713  0.00  0.00     0.002 C 
ENDBRANCH  16  22
ENDBRANCH  13  14
ENDBRANCH   1  13
TORSDOF 4
ENDMDL
MODEL 5
REMARK VINA RESULT:      -6.0      8.915      9.807
REMARK  4 active torsions:
REMARK  status: ('A' for Active; 'I' for Inactive)
REMARK    1  A    between atoms: S_10  and  C_5 
REMARK       I    between atoms: N_7  and  C_8 
REMARK    2  A    between atoms: C_8  and  C_11 
REMARK    3  A    between atoms: C_11  and  S_10 
REMARK    4  A    between atoms: C_19  and  C_12 
ROOT
ATOM      1  S   UNL d   1     -39.204  14.179  19.771  0.00  0.00    -0.054 SA
ENDROOT
BRANCH   1   2
ATOM      2  C   UNL d   1     -39.425  14.539  19.048  0.00  0.00     0.163 A 
ATOM      3  S   UNL d   1     -40.191  14.534  18.704  0.00  0.00    -0.021 SA
ATOM      4  C   UNL d   1     -40.159  14.957  17.989  0.00  0.00     0.200 A 
ATOM      5  N   UNL d   1     -40.768  15.008  17.620  0.00  0.00    -0.182 NA
ATOM      6  N   UNL d   1     -39.372  15.235  17.875  0.00  0.00    -0.204 N 
ATOM      7  C   UNL d   1     -40.854  15.397  16.911  0.00  0.00     0.281 A 
ATOM      8  O   UNL d   1     -41.667  15.209  16.859  0.00  0.00    -0.265 OA
ATOM      9  C   UNL d   1     -40.244  15.821  16.464  0.00  0.00     0.064 A 
ATOM     10  C   UNL d   1     -39.412  15.919  16.678  0.00  0.00     0.026 A 
ATOM     11  C   UNL d   1     -39.042  15.620  17.364  0.00  0.00     0.103 A 
ATOM     12  N   UNL d   1     -38.916  14.975  18.533  0.00  0.00    -0.150 NA
ENDBRANCH   1   2
BRANCH   1  13
ATOM     13  C   UNL d   1     -39.123  14.629  20.450  0.00  0.00     0.099 C 
BRANCH  13  14
ATOM     14  C   UNL d   1     -38.885  14.274  21.155  0.00  0.00     0.271 C 
ATOM     15  N   UNL d   1     -38.869  14.696  21.849  0.00  0.00    -0.273 N 
ATOM     16  C   UNL d   1     -38.634  14.342  22.542  0.00  0.00     0.067 A 
ATOM     17  C   UNL d   1     -39.091  15.487  21.855  0.00  0.00     0.083 A 
ATOM     18  C   UNL d   1     -38.621  14.782  23.246  0.00  0.00     0.018 A 
ATOM     19  C   UNL d   1     -38.844  15.565  23.237  0.00  0.00     0.003 A 
ATOM     20  C   UNL d   1     -39.079  15.916  22.540  0.00  0.00     0.019 A 
ATOM     21  O   UNL d   1     -38.661  13.481  21.153  0.00  0.00    -0.266 OA
BRANCH  16  22
ATOM     22  C   UNL d   1     -38.411  13.554  22.542  0.00  0.00     0.018 C 
ATOM     23  C   UNL d   1     -38.277  13.169  23.267  0.00  0.00     0.002 C 
ENDBRANCH  16  22
ENDBRANCH  13  14
ENDBRANCH   1  13
TORSDOF 4
ENDMDL
MODEL 6
REMARK VINA RESULT:      -5.8      1.692      2.019
REMARK  4 active torsions:
REMARK  status: ('A' for Active; 'I' for Inactive)
REMARK    1  A    between atoms: S_10  and  C_5 
REMARK       I    between atoms: N_7  and  C_8 
REMARK    2  A    between atoms: C_8  and  C_11 
REMARK    3  A    between atoms: C_11  and  S_10 
REMARK    4  A    between atoms: C_19  and  C_12 
ROOT
ATOM      1  S   UNL d   1     -47.465  12.544  22.801  0.00  0.00    -0.054 SA
ENDROOT
BRANCH   1   2
ATOM      2  C   UNL d   1     -46.642  12.478  22.656  0.00  0.00     0.163 A 
ATOM      3  S   UNL d   1     -46.109  11.962  23.049  0.00  0.00    -0.021 SA
ATOM      4  C   UNL d   1     -45.349  12.079  22.732  0.00  0.00     0.200 A 
ATOM      5  N   UNL d   1     -44.824  11.682  23.005  0.00  0.00    -0.182 NA
ATOM      6  N   UNL d   1     -45.397  12.672  22.135  0.00  0.00    -0.204 N 
ATOM      7  C   UNL d   1     -44.045  11.713  22.772  0.00  0.00     0.281 A 
ATOM      8  O   UNL d   1     -43.815  11.124  23.318  0.00  0.00    -0.265 OA
ATOM      9  C   UNL d   1     -43.696  12.220  22.161  0.00  0.00     0.064 A 
ATOM     10  C   UNL d   1     -44.104  12.801  21.668  0.00  0.00     0.026 A 
ATOM     11  C   UNL d   1     -44.919  12.982  21.693  0.00  0.00     0.103 A 
ATOM     12  N   UNL d   1     -46.199  12.920  22.088  0.00  0.00    -0.150 NA
ENDBRANCH   1   2
BRANCH   1  13
ATOM     13  C   UNL d   1     -47.824  13.280  22.815  0.00  0.00     0.099 C 
BRANCH  13  14
ATOM     14  C   UNL d   1     -48.635  13.345  22.680  0.00  0.00     0.271 C 
ATOM     15  N   UNL d   1     -49.007  14.066  22.723  0.00  0.00    -0.273 N 
ATOM     16  C   UNL d   1     -49.807  14.127  22.590  0.00  0.00     0.067 A 
ATOM     17  C   UNL d   1     -48.576  14.742  22.903  0.00  0.00     0.083 A 
ATOM     18  C   UNL d   1     -50.178  14.868  22.637  0.00  0.00     0.018 A 
ATOM     19  C   UNL d   1     -49.738  15.529  22.815  0.00  0.00     0.003 A 
ATOM     20  C   UNL d   1     -48.936  15.464  22.948  0.00  0.00     0.019 A 
ATOM     21  O   UNL d   1     -49.071  12.669  22.500  0.00  0.00    -0.266 OA
BRANCH  16  22
ATOM     22  C   UNL d   1     -50.242  13.456  22.411  0.00  0.00     0.018 C 
ATOM     23  C   UNL d   1     -51.063  13.523  22.297  0.00  0.00     0.002 C 
ENDBRANCH  16  22
ENDBRANCH  13  14
ENDBRANCH   1  13
TORSDOF 4
ENDMDL
MODEL 7
REMARK VINA RESULT:      -5.3      8.342     10.222
REMARK  4 active torsions:
REMARK  status: ('A' for Active; 'I' for Inactive)
REMARK    1  A    between atoms: S_10  and  C_5 
REMARK       I    between atoms: N_7  and  C_8 
REMARK    2  A    between atoms: C_8  and  C_11 
REMARK    3  A    between atoms: C_11  and  S_10 
REMARK    4  A    between atoms: C_19  and  C_12 
ROOT
ATOM      1  S   UNL d   1     -38.576  14.282  18.582  0.00  0.00    -0.054 SA
ENDROOT
BRANCH   1   2
ATOM      2  C   UNL d   1     -38.437  14.423  17.768  0.00  0.00     0.163 A 
ATOM      3  S   UNL d   1     -38.398  13.841  17.163  0.00  0.00    -0.021 SA
ATOM      4  C   UNL d   1     -38.251  14.224  16.441  0.00  0.00     0.200 A 
ATOM      5  N   UNL d   1     -38.200  13.808  15.863  0.00  0.00    -0.182 NA
ATOM      6  N   UNL d   1     -38.196  15.053  16.582  0.00  0.00    -0.204 N 
ATOM      7  C   UNL d   1     -38.059  14.074  15.107  0.00  0.00     0.281 A 
ATOM      8  O   UNL d   1     -38.081  13.302  14.788  0.00  0.00    -0.265 OA
ATOM      9  C   UNL d   1     -37.944  14.893  14.848  0.00  0.00     0.064 A 
ATOM     10  C   UNL d   1     -37.954  15.604  15.340  0.00  0.00     0.026 A 
ATOM     11  C   UNL d   1     -38.079  15.628  16.165  0.00  0.00     0.103 A 
ATOM     12  N   UNL d   1     -38.312  15.176  17.406  0.00  0.00    -0.150 NA
ENDBRANCH   1   2
BRANCH   1  13
ATOM     13  C   UNL d   1     -39.216  14.627  18.958  0.00  0.00     0.099 C 
BRANCH  13  14
ATOM     14  C   UNL d   1     -39.315  14.537  19.772  0.00  0.00     0.271 C 
ATOM     15  N   UNL d   1     -39.880  14.963  20.172  0.00  0.00    -0.273 N 
ATOM     16  C   UNL d   1     -39.974  14.871  20.974  0.00  0.00     0.067 A 
ATOM     17  C   UNL d   1     -40.362  15.490  19.767  0.00  0.00     0.083 A 
ATOM     18  C   UNL d   1     -40.554  15.311  21.374  0.00  0.00     0.018 A 
ATOM     19  C   UNL d   1     -41.024  15.830  20.959  0.00  0.00     0.003 A 
ATOM     20  C   UNL d   1     -40.926  15.918  20.155  0.00  0.00     0.019 A 
ATOM     21  O   UNL d   1     -38.834  14.008  20.181  0.00  0.00    -0.266 OA
BRANCH  16  22
ATOM     22  C   UNL d   1     -39.497  14.346  21.383  0.00  0.00     0.018 C 
ATOM     23  C   UNL d   1     -39.440  14.409  22.210  0.00  0.00     0.002 C 
ENDBRANCH  16  22
ENDBRANCH  13  14
ENDBRANCH   1  13
TORSDOF 4
ENDMDL
MODEL 8
REMARK VINA RESULT:      -4.4      1.606      2.175
REMARK  4 active torsions:
REMARK  status: ('A' for Active; 'I' for Inactive)
REMARK    1  A    between atoms: S_10  and  C_5 
REMARK       I    between atoms: N_7  and  C_8 
REMARK    2  A    between atoms: C_8  and  C_11 
REMARK    3  A    between atoms: C_11  and  S_10 
REMARK    4  A    between atoms: C_19  and  C_12 
ROOT
ATOM      1  S   UNL d   1     -47.729  13.387  22.497  0.00  0.00    -0.054 SA
ENDROOT
BRANCH   1   2
ATOM      2  C   UNL d   1     -46.949  13.083  22.504  0.00  0.00     0.163 A 
ATOM      3  S   UNL d   1     -46.664  12.457  22.987  0.00  0.00    -0.021 SA
ATOM      4  C   UNL d   1     -45.860  12.337  22.813  0.00  0.00     0.200 A 
ATOM      5  N   UNL d   1     -45.528  11.821  23.176  0.00  0.00    -0.182 NA
ATOM      6  N   UNL d   1     -45.630  12.888  22.218  0.00  0.00    -0.204 N 
ATOM      7  C   UNL d   1     -44.745  11.617  23.089  0.00  0.00     0.281 A 
ATOM      8  O   UNL d   1     -44.794  11.016  23.667  0.00  0.00    -0.265 OA
ATOM      9  C   UNL d   1     -44.164  11.972  22.552  0.00  0.00     0.064 A 
ATOM     10  C   UNL d   1     -44.294  12.620  21.994  0.00  0.00     0.026 A 
ATOM     11  C   UNL d   1     -45.014  13.025  21.871  0.00  0.00     0.103 A 
ATOM     12  N   UNL d   1     -46.305  13.350  22.026  0.00  0.00    -0.150 NA
ENDBRANCH   1   2
BRANCH   1  13
ATOM     13  C   UNL d   1     -48.190  13.328  21.823  0.00  0.00     0.099 C 
BRANCH  13  14
ATOM     14  C   UNL d   1     -48.892  13.757  21.764  0.00  0.00     0.271 C 
ATOM     15  N   UNL d   1     -49.597  13.382  21.612  0.00  0.00    -0.273 N 
ATOM     16  C   UNL d   1     -50.287  13.808  21.555  0.00  0.00     0.067 A 
ATOM     17  C   UNL d   1     -49.618  12.567  21.515  0.00  0.00     0.083 A 
ATOM     18  C   UNL d   1     -51.002  13.417  21.399  0.00  0.00     0.018 A 
ATOM     19  C   UNL d   1     -51.007  12.608  21.306  0.00  0.00     0.003 A 
ATOM     20  C   UNL d   1     -50.313  12.185  21.364  0.00  0.00     0.019 A 
ATOM     21  O   UNL d   1     -48.875  14.575  21.860  0.00  0.00    -0.266 OA
BRANCH  16  22
ATOM     22  C   UNL d   1     -50.272  14.622  21.650  0.00  0.00     0.018 C 
ATOM     23  C   UNL d   1     -50.981  15.052  21.581  0.00  0.00     0.002 C 
ENDBRANCH  16  22
ENDBRANCH  13  14
ENDBRANCH   1  13
TORSDOF 4
ENDMDL
