MODEL 1
REMARK VINA RESULT:      -8.9      0.000      0.000
REMARK  2 active torsions:
REMARK  status: ('A' for Active; 'I' for Inactive)
REMARK    1  A    between atoms: C_7  and  N_2 
REMARK    2  A    between atoms: C_9  and  C_5 
ROOT
ATOM      1  C   UNL d   1      51.637  33.400  53.317  0.00  0.00     0.208 A 
ATOM      2  N   UNL d   1      51.516  34.136  52.958  0.00  0.00    -0.266 N 
ATOM      3  N   UNL d   1      52.339  33.253  53.717  0.00  0.00    -0.199 NA
ATOM      4  N   UNL d   1      52.805  34.567  53.407  0.00  0.00    -0.206 NA
ATOM      5  C   UNL d   1      52.926  33.830  53.766  0.00  0.00     0.167 A 
ATOM      6  C   UNL d   1      52.099  34.710  53.007  0.00  0.00     0.186 A 
ATOM      7  S   UNL d   1      51.064  32.807  53.280  0.00  0.00    -0.038 SA
ENDROOT
BRANCH   2   8
ATOM      8  C   UNL d   1      50.821  34.283  52.562  0.00  0.00     0.068 A 
ATOM      9  C   UNL d   1      50.185  34.574  52.958  0.00  0.00     0.018 A 
ATOM     10  C   UNL d   1      49.454  34.732  52.561  0.00  0.00     0.002 A 
ATOM     11  C   UNL d   1      49.405  34.583  51.757  0.00  0.00     0.000 A 
ATOM     12  C   UNL d   1      50.057  34.285  51.349  0.00  0.00     0.002 A 
ATOM     13  C   UNL d   1      48.692  34.733  51.349  0.00  0.00     0.000 C 
ATOM     14  C   UNL d   1      50.772  34.133  51.758  0.00  0.00     0.018 A 
ENDBRANCH   2   8
BRANCH   5  15
ATOM     15  C   UNL d   1      53.610  33.678  54.160  0.00  0.00     0.036 A 
ATOM     16  C   UNL d   1      54.198  33.210  53.811  0.00  0.00     0.003 A 
ATOM     17  C   UNL d   1      54.898  33.050  54.205  0.00  0.00     0.000 A 
ATOM     18  C   UNL d   1      55.024  33.364  54.974  0.00  0.00     0.000 A 
ATOM     19  C   UNL d   1      54.446  33.829  55.327  0.00  0.00     0.000 A 
ATOM     20  C   UNL d   1      53.736  33.992  54.929  0.00  0.00     0.003 A 
ENDBRANCH   5  15
TORSDOF 2
ENDMDL
MODEL 2
REMARK VINA RESULT:      -8.1      0.855      4.522
REMARK  2 active torsions:
REMARK  status: ('A' for Active; 'I' for Inactive)
REMARK    1  A    between atoms: C_7  and  N_2 
REMARK    2  A    between atoms: C_9  and  C_5 
ROOT
ATOM      1  C   UNL d   1      52.083  34.425  52.973  0.00  0.00     0.208 A 
ATOM      2  N   UNL d   1      52.070  33.811  53.528  0.00  0.00    -0.266 N 
ATOM      3  N   UNL d   1      51.402  34.609  52.555  0.00  0.00    -0.199 NA
ATOM      4  N   UNL d   1      50.689  33.575  53.233  0.00  0.00    -0.206 NA
ATOM      5  C   UNL d   1      50.702  34.190  52.679  0.00  0.00     0.167 A 
ATOM      6  C   UNL d   1      51.375  33.393  53.652  0.00  0.00     0.186 A 
ATOM      7  S   UNL d   1      52.771  34.859  52.833  0.00  0.00    -0.038 SA
ENDROOT
BRANCH   2   8
ATOM      8  C   UNL d   1      52.744  33.627  53.944  0.00  0.00     0.068 A 
ATOM      9  C   UNL d   1      52.963  34.076  54.574  0.00  0.00     0.018 A 
ATOM     10  C   UNL d   1      53.662  33.899  55.018  0.00  0.00     0.002 A 
ATOM     11  C   UNL d   1      54.117  33.256  54.793  0.00  0.00     0.000 A 
ATOM     12  C   UNL d   1      53.893  32.795  54.147  0.00  0.00     0.002 A 
ATOM     13  C   UNL d   1      54.810  33.067  55.219  0.00  0.00     0.000 C 
ATOM     14  C   UNL d   1      53.198  32.984  53.718  0.00  0.00     0.018 A 
ENDBRANCH   2   8
BRANCH   5  15
ATOM     15  C   UNL d   1      50.040  34.377  52.264  0.00  0.00     0.036 A 
ATOM     16  C   UNL d   1      49.429  34.806  52.623  0.00  0.00     0.003 A 
ATOM     17  C   UNL d   1      48.750  35.001  52.208  0.00  0.00     0.000 A 
ATOM     18  C   UNL d   1      48.670  34.763  51.406  0.00  0.00     0.000 A 
ATOM     19  C   UNL d   1      49.271  34.337  51.043  0.00  0.00     0.000 A 
ATOM     20  C   UNL d   1      49.959  34.138  51.463  0.00  0.00     0.003 A 
ENDBRANCH   5  15
TORSDOF 2
ENDMDL
MODEL 3
REMARK VINA RESULT:      -7.8      2.446      3.623
REMARK  2 active torsions:
REMARK  status: ('A' for Active; 'I' for Inactive)
REMARK    1  A    between atoms: C_7  and  N_2 
REMARK    2  A    between atoms: C_9  and  C_5 
ROOT
ATOM      1  C   UNL d   1      53.807  32.753  54.097  0.00  0.00     0.208 A 
ATOM      2  N   UNL d   1      53.121  33.201  53.976  0.00  0.00    -0.266 N 
ATOM      3  N   UNL d   1      53.799  31.948  53.942  0.00  0.00    -0.199 NA
ATOM      4  N   UNL d   1      52.429  32.024  53.548  0.00  0.00    -0.206 NA
ATOM      5  C   UNL d   1      53.115  31.576  53.668  0.00  0.00     0.167 A 
ATOM      6  C   UNL d   1      52.441  32.832  53.704  0.00  0.00     0.186 A 
ATOM      7  S   UNL d   1      54.502  33.103  54.370  0.00  0.00    -0.038 SA
ENDROOT
BRANCH   2   8
ATOM      8  C   UNL d   1      53.127  34.000  54.129  0.00  0.00     0.068 A 
ATOM      9  C   UNL d   1      53.167  34.264  54.887  0.00  0.00     0.018 A 
ATOM     10  C   UNL d   1      53.175  35.092  55.064  0.00  0.00     0.002 A 
ATOM     11  C   UNL d   1      53.141  35.625  54.443  0.00  0.00     0.000 A 
ATOM     12  C   UNL d   1      53.100  35.355  53.665  0.00  0.00     0.002 A 
ATOM     13  C   UNL d   1      53.147  36.446  54.599  0.00  0.00     0.000 C 
ATOM     14  C   UNL d   1      53.093  34.533  53.508  0.00  0.00     0.018 A 
ENDBRANCH   2   8
BRANCH   5  15
ATOM     15  C   UNL d   1      53.116  30.786  53.520  0.00  0.00     0.036 A 
ATOM     16  C   UNL d   1      52.933  30.503  52.763  0.00  0.00     0.003 A 
ATOM     17  C   UNL d   1      52.931  29.699  52.603  0.00  0.00     0.000 A 
ATOM     18  C   UNL d   1      53.118  29.153  53.213  0.00  0.00     0.000 A 
ATOM     19  C   UNL d   1      53.301  29.426  53.966  0.00  0.00     0.000 A 
ATOM     20  C   UNL d   1      53.303  30.240  54.130  0.00  0.00     0.003 A 
ENDBRANCH   5  15
TORSDOF 2
ENDMDL
MODEL 4
REMARK VINA RESULT:      -6.2      2.438      3.921
REMARK  2 active torsions:
REMARK  status: ('A' for Active; 'I' for Inactive)
REMARK    1  A    between atoms: C_7  and  N_2 
REMARK    2  A    between atoms: C_9  and  C_5 
ROOT
ATOM      1  C   UNL d   1      52.591  32.342  53.586  0.00  0.00     0.208 A 
ATOM      2  N   UNL d   1      53.226  31.894  53.872  0.00  0.00    -0.266 N 
ATOM      3  N   UNL d   1      52.588  33.156  53.690  0.00  0.00    -0.199 NA
ATOM      4  N   UNL d   1      53.846  33.087  54.361  0.00  0.00    -0.206 NA
ATOM      5  C   UNL d   1      53.211  33.535  54.076  0.00  0.00     0.167 A 
ATOM      6  C   UNL d   1      53.845  32.270  54.255  0.00  0.00     0.186 A 
ATOM      7  S   UNL d   1      51.957  31.984  53.197  0.00  0.00    -0.038 SA
ENDROOT
BRANCH   2   8
ATOM      8  C   UNL d   1      53.230  31.087  53.769  0.00  0.00     0.068 A 
ATOM      9  C   UNL d   1      53.183  30.600  54.407  0.00  0.00     0.018 A 
ATOM     10  C   UNL d   1      53.185  29.758  54.319  0.00  0.00     0.002 A 
ATOM     11  C   UNL d   1      53.237  29.444  53.565  0.00  0.00     0.000 A 
ATOM     12  C   UNL d   1      53.286  29.942  52.909  0.00  0.00     0.002 A 
ATOM     13  C   UNL d   1      53.241  28.615  53.459  0.00  0.00     0.000 C 
ATOM     14  C   UNL d   1      53.282  30.773  53.015  0.00  0.00     0.018 A 
ENDBRANCH   2   8
BRANCH   5  15
ATOM     15  C   UNL d   1      53.201  34.333  54.173  0.00  0.00     0.036 A 
ATOM     16  C   UNL d   1      53.165  34.661  54.933  0.00  0.00     0.003 A 
ATOM     17  C   UNL d   1      53.154  35.473  55.041  0.00  0.00     0.000 A 
ATOM     18  C   UNL d   1      53.179  35.982  54.374  0.00  0.00     0.000 A 
ATOM     19  C   UNL d   1      53.214  35.665  53.617  0.00  0.00     0.000 A 
ATOM     20  C   UNL d   1      53.225  34.842  53.506  0.00  0.00     0.003 A 
ENDBRANCH   5  15
TORSDOF 2
ENDMDL
