MODEL 1
REMARK VINA RESULT:      30.8      0.000      0.000
REMARK  5 active torsions:
REMARK  status: ('A' for Active; 'I' for Inactive)
REMARK    1  A    between atoms: N_2  and  S_1 
REMARK    2  A    between atoms: C_4  and  S_1 
REMARK    3  A    between atoms: C_3  and  N_2 
REMARK    4  A    between atoms: N_7  and  C_3 
REMARK    5  A    between atoms: C_14  and  N_7 
ROOT
ATOM      1  S   UNL d   1     -55.348-102.375 -39.470  0.00  0.00     0.287 S 
ATOM      2  O   UNL d   1     -55.972-102.879 -39.695  0.00  0.00    -0.198 OA
ATOM      3  O   UNL d   1     -54.722-101.867 -39.259  0.00  0.00    -0.198 OA
ENDROOT
BRANCH   1   4
ATOM      4  N   UNL d   1     -55.436-102.609 -38.678  0.00  0.00    -0.128 NA
BRANCH   4   5
ATOM      5  C   UNL d   1     -55.320-102.459 -37.866  0.00  0.00     0.232 C 
ATOM      6  S   UNL d   1     -55.755-102.878 -37.308  0.00  0.00    -0.036 SA
BRANCH   5   7
ATOM      7  N   UNL d   1     -54.769-101.891 -37.629  0.00  0.00    -0.217 NA
BRANCH   7   8
ATOM      8  C   UNL d   1     -54.791-101.597 -36.859  0.00  0.00     0.084 A 
ATOM      9  C   UNL d   1     -54.885-102.117 -36.226  0.00  0.00     0.019 A 
ATOM     10  C   UNL d   1     -54.907-101.825 -35.456  0.00  0.00     0.002 A 
ATOM     11  C   UNL d   1     -54.835-101.020 -35.316  0.00  0.00     0.000 A 
ATOM     12  C   UNL d   1     -54.741-100.500 -35.952  0.00  0.00     0.002 A 
ATOM     13  C   UNL d   1     -54.719-100.787 -36.724  0.00  0.00     0.019 A 
ENDBRANCH   7   8
ENDBRANCH   5   7
ENDBRANCH   4   5
ENDBRANCH   1   4
BRANCH   1  14
ATOM     14  C   UNL d   1     -55.260-102.141 -40.266  0.00  0.00     0.105 A 
ATOM     15  C   UNL d   1     -54.799-101.477 -40.455  0.00  0.00     0.013 A 
ATOM     16  C   UNL d   1     -54.712-101.245 -41.241  0.00  0.00     0.001 A 
ATOM     17  C   UNL d   1     -55.083-101.672 -41.836  0.00  0.00     0.000 A 
ATOM     18  C   UNL d   1     -55.544-102.334 -41.656  0.00  0.00     0.001 A 
ATOM     19  C   UNL d   1     -54.996-101.440 -42.625  0.00  0.00     0.000 C 
ATOM     20  C   UNL d   1     -55.631-102.567 -40.868  0.00  0.00     0.013 A 
ENDBRANCH   1  14
TORSDOF 5
ENDMDL
MODEL 2
REMARK VINA RESULT:      31.9      1.124      1.794
REMARK  5 active torsions:
REMARK  status: ('A' for Active; 'I' for Inactive)
REMARK    1  A    between atoms: N_2  and  S_1 
REMARK    2  A    between atoms: C_4  and  S_1 
REMARK    3  A    between atoms: C_3  and  N_2 
REMARK    4  A    between atoms: N_7  and  C_3 
REMARK    5  A    between atoms: C_14  and  N_7 
ROOT
ATOM      1  S   UNL d   1     -54.791-102.034 -38.040  0.00  0.00     0.287 S 
ATOM      2  O   UNL d   1     -54.803-102.866 -37.998  0.00  0.00    -0.198 OA
ATOM      3  O   UNL d   1     -54.779-101.202 -38.096  0.00  0.00    -0.198 OA
ENDROOT
BRANCH   1   4
ATOM      4  N   UNL d   1     -54.768-101.986 -37.211  0.00  0.00    -0.128 NA
BRANCH   4   5
ATOM      5  C   UNL d   1     -55.149-101.820 -36.489  0.00  0.00     0.232 C 
ATOM      6  S   UNL d   1     -55.883-102.153 -36.328  0.00  0.00    -0.036 SA
BRANCH   5   7
ATOM      7  N   UNL d   1     -54.787-101.321 -35.939  0.00  0.00    -0.217 NA
BRANCH   7   8
ATOM      8  C   UNL d   1     -54.826-100.504 -36.040  0.00  0.00     0.084 A 
ATOM      9  C   UNL d   1     -54.942-100.191 -36.793  0.00  0.00     0.019 A 
ATOM     10  C   UNL d   1     -54.981 -99.375 -36.896  0.00  0.00     0.002 A 
ATOM     11  C   UNL d   1     -54.905 -98.872 -36.253  0.00  0.00     0.000 A 
ATOM     12  C   UNL d   1     -54.788 -99.188 -35.498  0.00  0.00     0.002 A 
ATOM     13  C   UNL d   1     -54.748-100.003 -35.389  0.00  0.00     0.019 A 
ENDBRANCH   7   8
ENDBRANCH   5   7
ENDBRANCH   4   5
ENDBRANCH   1   4
BRANCH   1  14
ATOM     14  C   UNL d   1     -54.814-102.083 -38.872  0.00  0.00     0.105 A 
ATOM     15  C   UNL d   1     -54.930-102.818 -39.243  0.00  0.00     0.013 A 
ATOM     16  C   UNL d   1     -54.953-102.866 -40.065  0.00  0.00     0.001 A 
ATOM     17  C   UNL d   1     -54.861-102.187 -40.517  0.00  0.00     0.000 A 
ATOM     18  C   UNL d   1     -54.746-101.452 -40.156  0.00  0.00     0.001 A 
ATOM     19  C   UNL d   1     -54.884-102.235 -41.342  0.00  0.00     0.000 C 
ATOM     20  C   UNL d   1     -54.723-101.403 -39.332  0.00  0.00     0.013 A 
ENDBRANCH   1  14
TORSDOF 5
ENDMDL
