MODEL 1
REMARK VINA RESULT:      73.5      0.000      0.000
REMARK  5 active torsions:
REMARK  status: ('A' for Active; 'I' for Inactive)
REMARK       I    between atoms: N_4  and  C_1 
REMARK       I    between atoms: N_8  and  C_1 
REMARK    1  A    between atoms: C_2  and  C_3 
REMARK    2  A    between atoms: C_5  and  C_2 
REMARK    3  A    between atoms: N_6  and  C_2 
REMARK    4  A    between atoms: C_3  and  N_4 
REMARK    5  A    between atoms: C_12  and  N_8 
ROOT
ATOM      1  C   UNL d   1     -51.683  25.598  33.942  0.00  0.00     0.103 C 
ATOM      2  C   UNL d   1     -51.656  26.141  33.334  0.00  0.00     0.022 C 
ENDROOT
BRANCH   1   3
ATOM      3  C   UNL d   1     -51.672  24.791  33.783  0.00  0.00     0.088 C 
BRANCH   3   4
ATOM      4  C   UNL d   1     -52.374  24.367  33.765  0.00  0.00     0.047 A 
ATOM      5  S   UNL d   1     -53.037  24.537  33.306  0.00  0.00    -0.085 SA
ATOM      6  C   UNL d   1     -53.614  23.967  33.463  0.00  0.00     0.035 A 
ATOM      7  C   UNL d   1     -53.312  23.439  34.022  0.00  0.00     0.007 A 
ATOM      8  C   UNL d   1     -52.547  23.687  34.207  0.00  0.00     0.009 A 
ENDBRANCH   3   4
BRANCH   3   9
ATOM      9  N   UNL d   1     -50.952  24.404  33.639  0.00  0.00    -0.299 N 
ATOM     10  C   UNL d   1     -50.905  23.586  33.686  0.00  0.00     0.107 A 
ATOM     11  C   UNL d   1     -50.192  23.202  33.544  0.00  0.00     0.142 A 
ATOM     12  O   UNL d   1     -49.508  23.636  33.352  0.00  0.00    -0.300 OA
ATOM     13  C   UNL d   1     -49.561  24.464  33.307  0.00  0.00     0.142 A 
ATOM     14  C   UNL d   1     -50.277  24.849  33.449  0.00  0.00     0.107 A 
ENDBRANCH   3   9
ENDBRANCH   1   3
BRANCH   1  15
ATOM     15  N   UNL d   1     -51.721  25.860  34.729  0.00  0.00    -0.190 NA
ATOM     16  C   UNL d   1     -51.352  26.565  34.941  0.00  0.00     0.369 C 
ATOM     17  N   UNL d   1     -51.391  26.825  35.726  0.00  0.00    -0.191 NA
ATOM     18  O   UNL d   1     -50.949  27.009  34.383  0.00  0.00    -0.242 OA
BRANCH  17  19
ATOM     19  C   UNL d   1     -51.797  26.381  36.291  0.00  0.00     0.086 A 
ATOM     20  C   UNL d   1     -51.395  26.096  36.950  0.00  0.00     0.019 A 
ATOM     21  C   UNL d   1     -51.794  25.656  37.510  0.00  0.00     0.002 A 
ATOM     22  C   UNL d   1     -51.395  25.366  38.177  0.00  0.00     0.000 C 
ATOM     23  C   UNL d   1     -52.606  25.494  37.418  0.00  0.00     0.000 A 
ATOM     24  C   UNL d   1     -53.005  25.781  36.757  0.00  0.00     0.002 A 
ATOM     25  C   UNL d   1     -52.597  26.228  36.189  0.00  0.00     0.019 A 
ENDBRANCH  17  19
ENDBRANCH   1  15
TORSDOF 5
ENDMDL
MODEL 2
REMARK VINA RESULT:      75.9      1.889      3.631
REMARK  5 active torsions:
REMARK  status: ('A' for Active; 'I' for Inactive)
REMARK       I    between atoms: N_4  and  C_1 
REMARK       I    between atoms: N_8  and  C_1 
REMARK    1  A    between atoms: C_2  and  C_3 
REMARK    2  A    between atoms: C_5  and  C_2 
REMARK    3  A    between atoms: N_6  and  C_2 
REMARK    4  A    between atoms: C_3  and  N_4 
REMARK    5  A    between atoms: C_12  and  N_8 
ROOT
ATOM      1  C   UNL d   1     -51.007  26.726  33.931  0.00  0.00     0.103 C 
ATOM      2  C   UNL d   1     -51.111  27.492  33.670  0.00  0.00     0.022 C 
ENDROOT
BRANCH   1   3
ATOM      3  C   UNL d   1     -50.336  26.519  34.360  0.00  0.00     0.088 C 
BRANCH   3   4
ATOM      4  C   UNL d   1     -49.707  26.149  33.984  0.00  0.00     0.047 A 
ATOM      5  S   UNL d   1     -49.067  26.520  33.623  0.00  0.00    -0.085 SA
ATOM      6  C   UNL d   1     -48.568  25.936  33.317  0.00  0.00     0.035 A 
ATOM      7  C   UNL d   1     -48.899  25.197  33.487  0.00  0.00     0.007 A 
ATOM      8  C   UNL d   1     -49.601  25.331  33.899  0.00  0.00     0.009 A 
ENDBRANCH   3   4
BRANCH   3   9
ATOM      9  N   UNL d   1     -50.294  26.683  35.172  0.00  0.00    -0.299 N 
ATOM     10  C   UNL d   1     -50.500  26.110  35.722  0.00  0.00     0.107 A 
ATOM     11  C   UNL d   1     -50.459  26.271  36.527  0.00  0.00     0.142 A 
ATOM     12  O   UNL d   1     -50.209  27.018  36.796  0.00  0.00    -0.300 OA
ATOM     13  C   UNL d   1     -50.001  27.595  36.236  0.00  0.00     0.142 A 
ATOM     14  C   UNL d   1     -50.043  27.432  35.427  0.00  0.00     0.107 A 
ENDBRANCH   3   9
ENDBRANCH   1   3
BRANCH   1  15
ATOM     15  N   UNL d   1     -51.582  26.151  33.764  0.00  0.00    -0.190 NA
ATOM     16  C   UNL d   1     -52.319  26.382  33.479  0.00  0.00     0.369 C 
ATOM     17  N   UNL d   1     -52.890  25.807  33.313  0.00  0.00    -0.191 NA
ATOM     18  O   UNL d   1     -52.489  27.175  33.359  0.00  0.00    -0.242 OA
BRANCH  17  19
ATOM     19  C   UNL d   1     -52.722  25.008  33.433  0.00  0.00     0.086 A 
ATOM     20  C   UNL d   1     -53.320  24.498  33.678  0.00  0.00     0.019 A 
ATOM     21  C   UNL d   1     -53.156  23.707  33.797  0.00  0.00     0.002 A 
ATOM     22  C   UNL d   1     -53.755  23.188  34.044  0.00  0.00     0.000 C 
ATOM     23  C   UNL d   1     -52.388  23.414  33.672  0.00  0.00     0.000 A 
ATOM     24  C   UNL d   1     -51.791  23.927  33.427  0.00  0.00     0.002 A 
ATOM     25  C   UNL d   1     -51.960  24.730  33.307  0.00  0.00     0.019 A 
ENDBRANCH  17  19
ENDBRANCH   1  15
TORSDOF 5
ENDMDL
