MODEL 1
REMARK VINA RESULT:      -7.2      0.000      0.000
REMARK  3 active torsions:
REMARK  status: ('A' for Active; 'I' for Inactive)
REMARK    1  A    between atoms: C_2  and  N_1 
REMARK    2  A    between atoms: C_5  and  C_8 
REMARK       I    between atoms: N_6  and  C_5 
REMARK    3  A    between atoms: C_13  and  N_6 
ROOT
ATOM      1  C   UNL d   1     -48.438  14.194  22.327  0.00  0.00     0.070 A 
ATOM      2  C   UNL d   1     -47.911  13.615  22.602  0.00  0.00     0.022 A 
ATOM      3  C   UNL d   1     -47.131  13.814  22.762  0.00  0.00     0.059 A 
ATOM      4  C   UNL d   1     -48.177  14.984  22.210  0.00  0.00     0.018 A 
ATOM      5  C   UNL d   1     -46.866  14.582  22.651  0.00  0.00     0.005 A 
ATOM      6  C   UNL d   1     -47.391  15.172  22.373  0.00  0.00     0.002 A 
ENDROOT
BRANCH   3   7
ATOM      7  C   UNL d   1     -46.604  13.242  23.036  0.00  0.00     0.279 C 
ATOM      8  N   UNL d   1     -46.541  12.518  22.645  0.00  0.00    -0.208 NA
ATOM      9  O   UNL d   1     -46.141  13.389  23.698  0.00  0.00    -0.265 OA
BRANCH   8  10
ATOM     10  C   UNL d   1     -46.006  11.936  22.923  0.00  0.00     0.085 A 
ATOM     11  C   UNL d   1     -45.216  11.962  22.702  0.00  0.00     0.020 A 
ATOM     12  C   UNL d   1     -44.671  11.395  22.967  0.00  0.00     0.008 A 
ATOM     13  C   UNL d   1     -43.856  11.281  22.839  0.00  0.00     0.007 A 
ATOM     14  C   UNL d   1     -44.935  10.791  23.466  0.00  0.00     0.030 A 
ATOM     15  C   UNL d   1     -43.639  10.617  23.258  0.00  0.00     0.035 A 
ATOM     16  S   UNL d   1     -44.279  10.304  23.646  0.00  0.00    -0.086 SA
ATOM     17  C   UNL d   1     -45.743  10.759  23.697  0.00  0.00     0.008 A 
ATOM     18  C   UNL d   1     -46.272  11.335  23.421  0.00  0.00     0.020 A 
ENDBRANCH   8  10
ENDBRANCH   3   7
BRANCH   1  19
ATOM     19  N   UNL d   1     -49.223  14.000  22.165  0.00  0.00    -0.242 N 
ATOM     20  C   UNL d   1     -49.544  13.711  21.467  0.00  0.00     0.267 A 
ATOM     21  C   UNL d   1     -50.344  13.596  21.549  0.00  0.00     0.066 A 
ATOM     22  O   UNL d   1     -49.097  13.547  20.738  0.00  0.00    -0.267 OA
ATOM     23  C   UNL d   1     -50.534  13.814  22.305  0.00  0.00     0.066 A 
ATOM     24  C   UNL d   1     -49.870  14.052  22.665  0.00  0.00     0.267 A 
ATOM     25  O   UNL d   1     -49.848  14.334  23.499  0.00  0.00    -0.267 OA
ENDBRANCH   1  19
TORSDOF 3
ENDMDL
MODEL 2
REMARK VINA RESULT:      -7.1      8.445      9.123
REMARK  3 active torsions:
REMARK  status: ('A' for Active; 'I' for Inactive)
REMARK    1  A    between atoms: C_2  and  N_1 
REMARK    2  A    between atoms: C_5  and  C_8 
REMARK       I    between atoms: N_6  and  C_5 
REMARK    3  A    between atoms: C_13  and  N_6 
ROOT
ATOM      1  C   UNL d   1     -39.451  14.415  17.797  0.00  0.00     0.070 A 
ATOM      2  C   UNL d   1     -39.286  14.544  18.599  0.00  0.00     0.022 A 
ATOM      3  C   UNL d   1     -38.779  14.037  19.000  0.00  0.00     0.059 A 
ATOM      4  C   UNL d   1     -39.102  13.768  17.391  0.00  0.00     0.018 A 
ATOM      5  C   UNL d   1     -38.434  13.403  18.613  0.00  0.00     0.005 A 
ATOM      6  C   UNL d   1     -38.596  13.265  17.803  0.00  0.00     0.002 A 
ENDROOT
BRANCH   3   7
ATOM      7  C   UNL d   1     -38.612  14.162  19.798  0.00  0.00     0.279 C 
ATOM      8  N   UNL d   1     -39.122  13.870  20.377  0.00  0.00    -0.208 NA
ATOM      9  O   UNL d   1     -37.940  14.578  20.019  0.00  0.00    -0.265 OA
BRANCH   8  10
ATOM     10  C   UNL d   1     -38.953  13.997  21.188  0.00  0.00     0.085 A 
ATOM     11  C   UNL d   1     -38.568  13.417  21.625  0.00  0.00     0.020 A 
ATOM     12  C   UNL d   1     -38.392  13.524  22.429  0.00  0.00     0.008 A 
ATOM     13  C   UNL d   1     -38.017  13.049  23.000  0.00  0.00     0.007 A 
ATOM     14  C   UNL d   1     -38.611  14.233  22.794  0.00  0.00     0.030 A 
ATOM     15  C   UNL d   1     -38.013  13.471  23.697  0.00  0.00     0.035 A 
ATOM     16  S   UNL d   1     -38.369  14.193  23.594  0.00  0.00    -0.086 SA
ATOM     17  C   UNL d   1     -39.005  14.830  22.352  0.00  0.00     0.008 A 
ATOM     18  C   UNL d   1     -39.172  14.705  21.550  0.00  0.00     0.020 A 
ENDBRANCH   8  10
ENDBRANCH   3   7
BRANCH   1  19
ATOM     19  N   UNL d   1     -39.959  14.922  17.388  0.00  0.00    -0.242 N 
ATOM     20  C   UNL d   1     -40.777  14.889  17.335  0.00  0.00     0.267 A 
ATOM     21  C   UNL d   1     -41.055  15.497  16.875  0.00  0.00     0.066 A 
ATOM     22  O   UNL d   1     -41.283  14.290  17.714  0.00  0.00    -0.267 OA
ATOM     23  C   UNL d   1     -40.409  15.921  16.634  0.00  0.00     0.066 A 
ATOM     24  C   UNL d   1     -39.764  15.578  16.939  0.00  0.00     0.267 A 
ATOM     25  O   UNL d   1     -38.947  15.878  16.802  0.00  0.00    -0.267 OA
ENDBRANCH   1  19
TORSDOF 3
ENDMDL
MODEL 3
REMARK VINA RESULT:      -7.0      1.454      2.178
REMARK  3 active torsions:
REMARK  status: ('A' for Active; 'I' for Inactive)
REMARK    1  A    between atoms: C_2  and  N_1 
REMARK    2  A    between atoms: C_5  and  C_8 
REMARK       I    between atoms: N_6  and  C_5 
REMARK    3  A    between atoms: C_13  and  N_6 
ROOT
ATOM      1  C   UNL d   1     -50.092  13.111  22.822  0.00  0.00     0.070 A 
ATOM      2  C   UNL d   1     -49.289  12.933  22.719  0.00  0.00     0.022 A 
ATOM      3  C   UNL d   1     -48.961  12.284  23.101  0.00  0.00     0.059 A 
ATOM      4  C   UNL d   1     -50.573  12.630  23.315  0.00  0.00     0.018 A 
ATOM      5  C   UNL d   1     -49.421  11.810  23.585  0.00  0.00     0.005 A 
ATOM      6  C   UNL d   1     -50.233  11.982  23.694  0.00  0.00     0.002 A 
ENDROOT
BRANCH   3   7
ATOM      7  C   UNL d   1     -48.162  12.105  23.001  0.00  0.00     0.279 C 
ATOM      8  N   UNL d   1     -47.686  11.958  23.659  0.00  0.00    -0.208 NA
ATOM      9  O   UNL d   1     -47.837  12.071  22.248  0.00  0.00    -0.265 OA
BRANCH   8  10
ATOM     10  C   UNL d   1     -46.874  11.776  23.558  0.00  0.00     0.085 A 
ATOM     11  C   UNL d   1     -46.602  11.013  23.696  0.00  0.00     0.020 A 
ATOM     12  C   UNL d   1     -45.803  10.813  23.601  0.00  0.00     0.008 A 
ATOM     13  C   UNL d   1     -45.375  10.105  23.698  0.00  0.00     0.007 A 
ATOM     14  C   UNL d   1     -45.271  11.398  23.361  0.00  0.00     0.030 A 
ATOM     15  C   UNL d   1     -44.598  10.269  23.517  0.00  0.00     0.035 A 
ATOM     16  S   UNL d   1     -44.512  11.049  23.310  0.00  0.00    -0.086 SA
ATOM     17  C   UNL d   1     -45.543  12.181  23.218  0.00  0.00     0.008 A 
ATOM     18  C   UNL d   1     -46.346  12.362  23.318  0.00  0.00     0.020 A 
ENDBRANCH   8  10
ENDBRANCH   3   7
BRANCH   1  19
ATOM     19  N   UNL d   1     -50.428  13.761  22.440  0.00  0.00    -0.242 N 
ATOM     20  C   UNL d   1     -50.449  14.543  22.688  0.00  0.00     0.267 A 
ATOM     21  C   UNL d   1     -50.836  15.003  22.142  0.00  0.00     0.066 A 
ATOM     22  O   UNL d   1     -50.106  14.846  23.429  0.00  0.00    -0.267 OA
ATOM     23  C   UNL d   1     -51.064  14.509  21.542  0.00  0.00     0.066 A 
ATOM     24  C   UNL d   1     -50.822  13.777  21.722  0.00  0.00     0.267 A 
ATOM     25  O   UNL d   1     -50.965  13.081  21.203  0.00  0.00    -0.267 OA
ENDBRANCH   1  19
TORSDOF 3
ENDMDL
MODEL 4
REMARK VINA RESULT:      -6.8      8.402      9.430
REMARK  3 active torsions:
REMARK  status: ('A' for Active; 'I' for Inactive)
REMARK    1  A    between atoms: C_2  and  N_1 
REMARK    2  A    between atoms: C_5  and  C_8 
REMARK       I    between atoms: N_6  and  C_5 
REMARK    3  A    between atoms: C_13  and  N_6 
ROOT
ATOM      1  C   UNL d   1     -39.584  14.680  17.538  0.00  0.00     0.070 A 
ATOM      2  C   UNL d   1     -39.314  14.845  18.305  0.00  0.00     0.022 A 
ATOM      3  C   UNL d   1     -39.835  15.139  18.868  0.00  0.00     0.059 A 
ATOM      4  C   UNL d   1     -40.388  14.812  17.333  0.00  0.00     0.018 A 
ATOM      5  C   UNL d   1     -40.621  15.271  18.678  0.00  0.00     0.005 A 
ATOM      6  C   UNL d   1     -40.901  15.107  17.906  0.00  0.00     0.002 A 
ENDROOT
BRANCH   3   7
ATOM      7  C   UNL d   1     -39.570  15.305  19.631  0.00  0.00     0.279 C 
ATOM      8  N   UNL d   1     -39.867  14.879  20.272  0.00  0.00    -0.208 NA
ATOM      9  O   UNL d   1     -39.011  15.893  19.756  0.00  0.00    -0.265 OA
BRANCH   8  10
ATOM     10  C   UNL d   1     -39.599  15.047  21.048  0.00  0.00     0.085 A 
ATOM     11  C   UNL d   1     -39.125  14.508  21.447  0.00  0.00     0.020 A 
ATOM     12  C   UNL d   1     -38.849  14.656  22.215  0.00  0.00     0.008 A 
ATOM     13  C   UNL d   1     -38.372  14.225  22.745  0.00  0.00     0.007 A 
ATOM     14  C   UNL d   1     -39.058  15.365  22.584  0.00  0.00     0.030 A 
ATOM     15  C   UNL d   1     -38.300  14.674  23.421  0.00  0.00     0.035 A 
ATOM     16  S   UNL d   1     -38.709  15.370  23.345  0.00  0.00    -0.086 SA
ATOM     17  C   UNL d   1     -39.544  15.922  22.181  0.00  0.00     0.008 A 
ATOM     18  C   UNL d   1     -39.810  15.756  21.414  0.00  0.00     0.020 A 
ENDBRANCH   8  10
ENDBRANCH   3   7
BRANCH   1  19
ATOM     19  N   UNL d   1     -39.065  14.384  16.968  0.00  0.00    -0.242 N 
ATOM     20  C   UNL d   1     -38.824  13.609  16.851  0.00  0.00     0.267 A 
ATOM     21  C   UNL d   1     -38.308  13.564  16.226  0.00  0.00     0.066 A 
ATOM     22  O   UNL d   1     -39.080  12.925  17.326  0.00  0.00    -0.267 OA
ATOM     23  C   UNL d   1     -38.220  14.317  15.942  0.00  0.00     0.066 A 
ATOM     24  C   UNL d   1     -38.669  14.798  16.383  0.00  0.00     0.267 A 
ATOM     25  O   UNL d   1     -38.723  15.666  16.247  0.00  0.00    -0.267 OA
ENDBRANCH   1  19
TORSDOF 3
ENDMDL
MODEL 5
REMARK VINA RESULT:      -6.2      2.089      4.960
REMARK  3 active torsions:
REMARK  status: ('A' for Active; 'I' for Inactive)
REMARK    1  A    between atoms: C_2  and  N_1 
REMARK    2  A    between atoms: C_5  and  C_8 
REMARK       I    between atoms: N_6  and  C_5 
REMARK    3  A    between atoms: C_13  and  N_6 
ROOT
ATOM      1  C   UNL d   1     -45.608  12.195  22.847  0.00  0.00     0.070 A 
ATOM      2  C   UNL d   1     -46.267  12.653  23.056  0.00  0.00     0.022 A 
ATOM      3  C   UNL d   1     -46.372  13.397  22.724  0.00  0.00     0.059 A 
ATOM      4  C   UNL d   1     -45.046  12.488  22.295  0.00  0.00     0.018 A 
ATOM      5  C   UNL d   1     -45.829  13.691  22.185  0.00  0.00     0.005 A 
ATOM      6  C   UNL d   1     -45.161  13.236  21.968  0.00  0.00     0.002 A 
ENDROOT
BRANCH   3   7
ATOM      7  C   UNL d   1     -47.026  13.855  22.930  0.00  0.00     0.279 C 
ATOM      8  N   UNL d   1     -47.709  13.832  22.468  0.00  0.00    -0.208 NA
ATOM      9  O   UNL d   1     -47.000  14.335  23.596  0.00  0.00    -0.265 OA
BRANCH   8  10
ATOM     10  C   UNL d   1     -48.373  14.297  22.677  0.00  0.00     0.085 A 
ATOM     11  C   UNL d   1     -49.017  13.952  23.053  0.00  0.00     0.020 A 
ATOM     12  C   UNL d   1     -49.684  14.396  23.268  0.00  0.00     0.008 A 
ATOM     13  C   UNL d   1     -50.401  14.204  23.645  0.00  0.00     0.007 A 
ATOM     14  C   UNL d   1     -49.697  15.205  23.098  0.00  0.00     0.030 A 
ATOM     15  C   UNL d   1     -50.835  14.892  23.698  0.00  0.00     0.035 A 
ATOM     16  S   UNL d   1     -50.425  15.512  23.372  0.00  0.00    -0.086 SA
ATOM     17  C   UNL d   1     -49.040  15.564  22.713  0.00  0.00     0.008 A 
ATOM     18  C   UNL d   1     -48.383  15.104  22.506  0.00  0.00     0.020 A 
ENDBRANCH   8  10
ENDBRANCH   3   7
BRANCH   1  19
ATOM     19  N   UNL d   1     -45.497  11.447  23.177  0.00  0.00    -0.242 N 
ATOM     20  C   UNL d   1     -44.792  11.071  23.363  0.00  0.00     0.267 A 
ATOM     21  C   UNL d   1     -44.937  10.338  23.679  0.00  0.00     0.066 A 
ATOM     22  O   UNL d   1     -43.997  11.404  23.242  0.00  0.00    -0.267 OA
ATOM     23  C   UNL d   1     -45.741  10.246  23.695  0.00  0.00     0.066 A 
ATOM     24  C   UNL d   1     -46.068  10.903  23.397  0.00  0.00     0.267 A 
ATOM     25  O   UNL d   1     -46.938  11.017  23.321  0.00  0.00    -0.267 OA
ENDBRANCH   1  19
TORSDOF 3
ENDMDL
