MODEL 1
REMARK VINA RESULT:      26.2      0.000      0.000
REMARK  3 active torsions:
REMARK  status: ('A' for Active; 'I' for Inactive)
REMARK    1  A    between atoms: C_8  and  C_1 
REMARK    2  A    between atoms: N_5  and  C_2 
REMARK       I    between atoms: C_7  and  N_5 
REMARK    3  A    between atoms: C_10  and  C_7 
ROOT
ATOM      1  C   UNL d   1      13.430  12.011  -4.200  0.00  0.00     0.212 A 
ATOM      2  C   UNL d   1      13.692  12.163  -2.899  0.00  0.00     0.297 A 
ATOM      3  O   UNL d   1      14.007  12.251  -3.656  0.00  0.00    -0.253 OA
ATOM      4  N   UNL d   1      12.769  11.779  -3.775  0.00  0.00    -0.119 NA
ATOM      5  N   UNL d   1      12.930  11.873  -2.973  0.00  0.00    -0.101 NA
ENDROOT
BRANCH   2   6
ATOM      6  N   UNL d   1      14.085  12.339  -2.196  0.00  0.00    -0.165 NA
ATOM      7  C   UNL d   1      14.537  13.016  -2.136  0.00  0.00     0.282 C 
ATOM      8  O   UNL d   1      14.607  13.533  -2.777  0.00  0.00    -0.265 OA
BRANCH   7   9
ATOM      9  C   UNL d   1      14.931  13.192  -1.429  0.00  0.00     0.060 A 
ATOM     10  C   UNL d   1      15.084  13.976  -1.216  0.00  0.00     0.034 A 
ATOM     11  C   UNL d   1      15.476  14.144  -0.513  0.00  0.00     0.140 A 
ATOM     12  F   UNL d   1      15.631  14.939  -0.295  0.00  0.00    -0.204 F 
ATOM     13  C   UNL d   1      15.720  13.533  -0.015  0.00  0.00     0.030 A 
ATOM     14  C   UNL d   1      15.568  12.754  -0.228  0.00  0.00     0.003 A 
ATOM     15  C   UNL d   1      15.178  12.581  -0.928  0.00  0.00     0.005 A 
ENDBRANCH   7   9
ENDBRANCH   2   6
BRANCH   1  16
ATOM     16  C   UNL d   1      13.516  12.010  -5.024  0.00  0.00     0.072 A 
ATOM     17  S   UNL d   1      12.944  11.787  -5.569  0.00  0.00    -0.083 SA
ATOM     18  C   UNL d   1      13.266  11.872  -6.323  0.00  0.00     0.035 A 
ATOM     19  C   UNL d   1      14.042  12.150  -6.243  0.00  0.00     0.008 A 
ATOM     20  C   UNL d   1      14.196  12.235  -5.434  0.00  0.00     0.011 A 
ENDBRANCH   1  16
TORSDOF 3
ENDMDL
