MODEL 1
REMARK VINA RESULT:      -8.6      0.000      0.000
REMARK  6 active torsions:
REMARK  status: ('A' for Active; 'I' for Inactive)
REMARK    1  A    between atoms: C_7  and  C_4 
REMARK    2  A    between atoms: O_17  and  C_6 
REMARK    3  A    between atoms: C_8  and  C_7 
REMARK    4  A    between atoms: C_12  and  C_8 
REMARK    5  A    between atoms: O_21  and  C_11 
REMARK    6  A    between atoms: O_22  and  C_18 
ROOT
ATOM      1  C   UNL d   1      52.841  32.744  53.394  0.00  0.00     0.090 A 
ATOM      2  C   UNL d   1      52.445  32.329  52.806  0.00  0.00     0.302 A 
ATOM      3  O   UNL d   1      51.817  32.782  52.638  0.00  0.00    -0.273 OA
ATOM      4  C   UNL d   1      51.813  33.432  53.081  0.00  0.00     0.107 A 
ATOM      5  C   UNL d   1      52.454  33.424  53.565  0.00  0.00     0.030 A 
ATOM      6  C   UNL d   1      53.555  32.549  53.805  0.00  0.00     0.121 A 
ATOM      7  C   UNL d   1      52.739  33.938  54.135  0.00  0.00     0.004 A 
ATOM      8  O   UNL d   1      52.666  31.579  52.459  0.00  0.00    -0.259 OA
ATOM      9  C   UNL d   1      53.835  33.077  54.381  0.00  0.00     0.117 A 
ATOM     10  C   UNL d   1      53.434  33.749  54.537  0.00  0.00     0.026 A 
ENDROOT
BRANCH   4  11
ATOM     11  C   UNL d   1      51.232  34.040  53.054  0.00  0.00     0.067 C 
BRANCH  11  12
ATOM     12  C   UNL d   1      50.826  34.284  52.374  0.00  0.00     0.198 C 
ATOM     13  O   UNL d   1      51.275  34.206  51.636  0.00  0.00    -0.286 OA
BRANCH  12  14
ATOM     14  C   UNL d   1      50.114  34.562  52.357  0.00  0.00     0.039 A 
ATOM     15  C   UNL d   1      49.686  34.466  51.696  0.00  0.00     0.005 A 
ATOM     16  C   UNL d   1      48.907  34.770  51.676  0.00  0.00     0.024 A 
ATOM     17  C   UNL d   1      48.522  35.180  52.312  0.00  0.00     0.094 A 
ATOM     18  C   UNL d   1      49.012  35.259  52.996  0.00  0.00     0.024 A 
ATOM     19  C   UNL d   1      49.738  34.962  52.978  0.00  0.00     0.005 A 
BRANCH  17  20
ATOM     20  O   UNL d   1      47.760  35.468  52.273  0.00  0.00    -0.328 OA
ATOM     21  C   UNL d   1      47.513  36.371  52.509  0.00  0.00     0.181 C 
ENDBRANCH  17  20
ENDBRANCH  12  14
ENDBRANCH  11  12
ENDBRANCH   4  11
BRANCH   6  22
ATOM     22  O   UNL d   1      53.971  31.869  53.655  0.00  0.00    -0.326 OA
ATOM     23  C   UNL d   1      53.904  31.249  54.141  0.00  0.00     0.181 C 
ENDBRANCH   6  22
BRANCH   9  24
ATOM     24  O   UNL d   1      54.526  32.940  54.815  0.00  0.00    -0.326 OA
ATOM     25  C   UNL d   1      54.878  33.534  55.231  0.00  0.00     0.181 C 
ENDBRANCH   9  24
TORSDOF 6
ENDMDL
MODEL 2
REMARK VINA RESULT:      -7.8      1.071      5.454
REMARK  6 active torsions:
REMARK  status: ('A' for Active; 'I' for Inactive)
REMARK    1  A    between atoms: C_7  and  C_4 
REMARK    2  A    between atoms: O_17  and  C_6 
REMARK    3  A    between atoms: C_8  and  C_7 
REMARK    4  A    between atoms: C_12  and  C_8 
REMARK    5  A    between atoms: O_21  and  C_11 
REMARK    6  A    between atoms: O_22  and  C_18 
ROOT
ATOM      1  C   UNL d   1      48.434  35.232  52.064  0.00  0.00     0.090 A 
ATOM      2  C   UNL d   1      48.698  34.780  51.431  0.00  0.00     0.302 A 
ATOM      3  O   UNL d   1      49.387  34.480  51.681  0.00  0.00    -0.273 OA
ATOM      4  C   UNL d   1      49.550  34.721  52.412  0.00  0.00     0.107 A 
ATOM      5  C   UNL d   1      48.957  35.197  52.670  0.00  0.00     0.030 A 
ATOM      6  C   UNL d   1      47.728  35.694  52.142  0.00  0.00     0.121 A 
ATOM      7  C   UNL d   1      48.821  35.602  53.368  0.00  0.00     0.004 A 
ATOM      8  O   UNL d   1      48.310  34.665  50.677  0.00  0.00    -0.259 OA
ATOM      9  C   UNL d   1      47.599  36.101  52.854  0.00  0.00     0.117 A 
ATOM     10  C   UNL d   1      48.133  36.052  53.445  0.00  0.00     0.026 A 
ENDROOT
BRANCH   4  11
ATOM     11  C   UNL d   1      50.235  34.513  52.854  0.00  0.00     0.067 C 
BRANCH  11  12
ATOM     12  C   UNL d   1      50.953  34.253  52.531  0.00  0.00     0.198 C 
ATOM     13  O   UNL d   1      50.966  34.209  51.665  0.00  0.00    -0.286 OA
BRANCH  12  14
ATOM     14  C   UNL d   1      51.575  34.060  52.931  0.00  0.00     0.039 A 
ATOM     15  C   UNL d   1      51.657  33.305  53.160  0.00  0.00     0.005 A 
ATOM     16  C   UNL d   1      52.338  33.091  53.597  0.00  0.00     0.024 A 
ATOM     17  C   UNL d   1      52.963  33.620  53.824  0.00  0.00     0.094 A 
ATOM     18  C   UNL d   1      52.835  34.412  53.561  0.00  0.00     0.024 A 
ATOM     19  C   UNL d   1      52.185  34.576  53.152  0.00  0.00     0.005 A 
BRANCH  17  20
ATOM     20  O   UNL d   1      53.619  33.392  54.251  0.00  0.00    -0.328 OA
ATOM     21  C   UNL d   1      54.434  33.063  53.852  0.00  0.00     0.181 C 
ENDBRANCH  17  20
ENDBRANCH  12  14
ENDBRANCH  11  12
ENDBRANCH   4  11
BRANCH   6  22
ATOM     22  O   UNL d   1      47.178  35.750  51.548  0.00  0.00    -0.326 OA
ATOM     23  C   UNL d   1      46.428  35.538  51.681  0.00  0.00     0.181 C 
ENDBRANCH   6  22
BRANCH   9  24
ATOM     24  O   UNL d   1      46.929  36.567  52.988  0.00  0.00    -0.326 OA
ATOM     25  C   UNL d   1      46.666  36.709  53.737  0.00  0.00     0.181 C 
ENDBRANCH   9  24
TORSDOF 6
ENDMDL
MODEL 3
REMARK VINA RESULT:      -7.7      1.810      4.810
REMARK  6 active torsions:
REMARK  status: ('A' for Active; 'I' for Inactive)
REMARK    1  A    between atoms: C_7  and  C_4 
REMARK    2  A    between atoms: O_17  and  C_6 
REMARK    3  A    between atoms: C_8  and  C_7 
REMARK    4  A    between atoms: C_12  and  C_8 
REMARK    5  A    between atoms: O_21  and  C_11 
REMARK    6  A    between atoms: O_22  and  C_18 
ROOT
ATOM      1  C   UNL d   1      52.216  33.792  53.131  0.00  0.00     0.090 A 
ATOM      2  C   UNL d   1      51.793  33.379  52.559  0.00  0.00     0.302 A 
ATOM      3  O   UNL d   1      52.141  32.668  52.536  0.00  0.00    -0.273 OA
ATOM      4  C   UNL d   1      52.736  32.630  53.049  0.00  0.00     0.107 A 
ATOM      5  C   UNL d   1      52.797  33.332  53.435  0.00  0.00     0.030 A 
ATOM      6  C   UNL d   1      52.114  34.583  53.412  0.00  0.00     0.121 A 
ATOM      7  C   UNL d   1      53.298  33.616  54.016  0.00  0.00     0.004 A 
ATOM      8  O   UNL d   1      51.130  33.662  52.099  0.00  0.00    -0.259 OA
ATOM      9  C   UNL d   1      52.627  34.862  54.002  0.00  0.00     0.117 A 
ATOM     10  C   UNL d   1      53.199  34.388  54.291  0.00  0.00     0.026 A 
ENDROOT
BRANCH   4  11
ATOM     11  C   UNL d   1      53.230  31.960  53.177  0.00  0.00     0.067 C 
BRANCH  11  12
ATOM     12  C   UNL d   1      53.082  31.195  52.894  0.00  0.00     0.198 C 
ATOM     13  O   UNL d   1      52.845  31.155  52.061  0.00  0.00    -0.286 OA
BRANCH  12  14
ATOM     14  C   UNL d   1      53.138  30.552  53.304  0.00  0.00     0.039 A 
ATOM     15  C   UNL d   1      53.834  30.381  53.645  0.00  0.00     0.005 A 
ATOM     16  C   UNL d   1      53.897  29.677  54.093  0.00  0.00     0.024 A 
ATOM     17  C   UNL d   1      53.272  29.117  54.220  0.00  0.00     0.094 A 
ATOM     18  C   UNL d   1      52.550  29.337  53.840  0.00  0.00     0.024 A 
ATOM     19  C   UNL d   1      52.528  30.005  53.427  0.00  0.00     0.005 A 
BRANCH  17  20
ATOM     20  O   UNL d   1      53.354  28.436  54.661  0.00  0.00    -0.328 OA
ATOM     21  C   UNL d   1      53.356  28.417  55.626  0.00  0.00     0.181 C 
ENDBRANCH  17  20
ENDBRANCH  12  14
ENDBRANCH  11  12
ENDBRANCH   4  11
BRANCH   6  22
ATOM     22  O   UNL d   1      51.535  35.075  53.126  0.00  0.00    -0.326 OA
ATOM     23  C   UNL d   1      50.844  35.136  53.505  0.00  0.00     0.181 C 
ENDBRANCH   6  22
BRANCH   9  24
ATOM     24  O   UNL d   1      52.575  35.626  54.315  0.00  0.00    -0.326 OA
ATOM     25  C   UNL d   1      53.183  35.941  54.742  0.00  0.00     0.181 C 
ENDBRANCH   9  24
TORSDOF 6
ENDMDL
MODEL 4
REMARK VINA RESULT:      -7.0      1.618      5.053
REMARK  6 active torsions:
REMARK  status: ('A' for Active; 'I' for Inactive)
REMARK    1  A    between atoms: C_7  and  C_4 
REMARK    2  A    between atoms: O_17  and  C_6 
REMARK    3  A    between atoms: C_8  and  C_7 
REMARK    4  A    between atoms: C_12  and  C_8 
REMARK    5  A    between atoms: O_21  and  C_11 
REMARK    6  A    between atoms: O_22  and  C_18 
ROOT
ATOM      1  C   UNL d   1      52.333  34.033  53.366  0.00  0.00     0.090 A 
ATOM      2  C   UNL d   1      53.140  34.031  53.519  0.00  0.00     0.302 A 
ATOM      3  O   UNL d   1      53.363  33.285  53.374  0.00  0.00    -0.273 OA
ATOM      4  C   UNL d   1      52.750  32.847  53.149  0.00  0.00     0.107 A 
ATOM      5  C   UNL d   1      52.090  33.304  53.138  0.00  0.00     0.030 A 
ATOM      6  C   UNL d   1      51.775  34.667  53.419  0.00  0.00     0.121 A 
ATOM      7  C   UNL d   1      51.305  33.161  52.954  0.00  0.00     0.004 A 
ATOM      8  O   UNL d   1      53.622  34.690  53.775  0.00  0.00    -0.259 OA
ATOM      9  C   UNL d   1      50.981  34.511  53.230  0.00  0.00     0.117 A 
ATOM     10  C   UNL d   1      50.760  33.779  53.005  0.00  0.00     0.026 A 
ENDROOT
BRANCH   4  11
ATOM     11  C   UNL d   1      52.779  32.030  52.950  0.00  0.00     0.067 C 
BRANCH  11  12
ATOM     12  C   UNL d   1      53.409  31.519  53.116  0.00  0.00     0.198 C 
ATOM     13  O   UNL d   1      54.194  31.838  52.931  0.00  0.00    -0.286 OA
BRANCH  12  14
ATOM     14  C   UNL d   1      53.346  30.815  53.408  0.00  0.00     0.039 A 
ATOM     15  C   UNL d   1      53.752  30.642  54.068  0.00  0.00     0.005 A 
ATOM     16  C   UNL d   1      53.683  29.872  54.389  0.00  0.00     0.024 A 
ATOM     17  C   UNL d   1      53.208  29.245  54.068  0.00  0.00     0.094 A 
ATOM     18  C   UNL d   1      52.793  29.472  53.368  0.00  0.00     0.024 A 
ATOM     19  C   UNL d   1      52.882  30.204  53.095  0.00  0.00     0.005 A 
BRANCH  17  20
ATOM     20  O   UNL d   1      53.155  28.501  54.397  0.00  0.00    -0.328 OA
ATOM     21  C   UNL d   1      53.400  28.296  55.307  0.00  0.00     0.181 C 
ENDBRANCH  17  20
ENDBRANCH  12  14
ENDBRANCH  11  12
ENDBRANCH   4  11
BRANCH   6  22
ATOM     22  O   UNL d   1      51.988  35.416  53.647  0.00  0.00    -0.326 OA
ATOM     23  C   UNL d   1      51.919  35.634  54.404  0.00  0.00     0.181 C 
ENDBRANCH   6  22
BRANCH   9  24
ATOM     24  O   UNL d   1      50.392  35.090  53.263  0.00  0.00    -0.326 OA
ATOM     25  C   UNL d   1      49.658  34.953  52.957  0.00  0.00     0.181 C 
ENDBRANCH   9  24
TORSDOF 6
ENDMDL
