MODEL 1
REMARK VINA RESULT:      63.3      0.000      0.000
REMARK  5 active torsions:
REMARK  status: ('A' for Active; 'I' for Inactive)
REMARK    1  A    between atoms: C_14  and  C_3 
REMARK    2  A    between atoms: C_8  and  C_4 
REMARK    3  A    between atoms: N_10  and  C_9 
REMARK    4  A    between atoms: O_21  and  C_14 
REMARK    5  A    between atoms: C_25  and  O_21 
ROOT
ATOM      1  C   UNL d   1      43.775 -15.247  36.969  0.00  0.00     0.059 A 
ATOM      2  C   UNL d   1      43.560 -15.975  36.647  0.00  0.00     0.085 A 
ATOM      3  C   UNL d   1      45.150 -15.607  36.867  0.00  0.00     0.083 A 
ATOM      4  C   UNL d   1      44.569 -15.067  37.078  0.00  0.00     0.034 A 
ATOM      5  N   UNL d   1      44.131 -16.521  36.433  0.00  0.00    -0.245 NA
ATOM      6  C   UNL d   1      43.086 -14.822  37.126  0.00  0.00     0.197 A 
ATOM      7  C   UNL d   1      44.934 -16.338  36.543  0.00  0.00     0.087 A 
ATOM      8  C   UNL d   1      42.734 -16.001  36.604  0.00  0.00     0.021 A 
ATOM      9  C   UNL d   1      42.441 -15.291  36.899  0.00  0.00     0.041 A 
ATOM     10  O   UNL d   1      43.044 -14.063  37.452  0.00  0.00    -0.286 OA
ATOM     11  C   UNL d   1      45.515 -16.883  36.330  0.00  0.00     0.021 C 
ATOM     12  C   UNL d   1      42.204 -16.584  36.331  0.00  0.00     0.002 A 
ATOM     13  C   UNL d   1      41.624 -15.153  36.927  0.00  0.00     0.003 A 
ATOM     14  C   UNL d   1      41.396 -16.444  36.361  0.00  0.00     0.000 A 
ATOM     15  C   UNL d   1      41.102 -15.737  36.655  0.00  0.00     0.000 A 
ENDROOT
BRANCH   4  16
ATOM     16  C   UNL d   1      44.783 -14.338  37.401  0.00  0.00     0.102 A 
ATOM     17  O   UNL d   1      44.703 -14.112  38.190  0.00  0.00    -0.286 OA
ATOM     18  C   UNL d   1      44.983 -13.347  38.270  0.00  0.00     0.227 A 
ATOM     19  C   UNL d   1      45.241 -13.087  37.531  0.00  0.00     0.051 A 
ATOM     20  C   UNL d   1      45.118 -13.702  36.988  0.00  0.00     0.029 A 
BRANCH  18  21
ATOM     21  N   UNL d   1      45.008 -12.900  38.969  0.00  0.00    -0.089 N 
ATOM     22  O   UNL d   1      44.316 -12.718  39.372  0.00  0.00    -0.530 OA
ATOM     23  O   UNL d   1      45.742 -12.637  39.256  0.00  0.00    -0.530 OA
ENDBRANCH  18  21
ENDBRANCH   4  16
BRANCH   3  24
ATOM     24  C   UNL d   1      45.948 -15.427  36.975  0.00  0.00     0.302 C 
ATOM     25  O   UNL d   1      46.391 -15.142  36.341  0.00  0.00    -0.259 OA
BRANCH  24  26
ATOM     26  O   UNL d   1      46.300 -15.532  37.712  0.00  0.00    -0.271 OA
BRANCH  26  27
ATOM     27  C   UNL d   1      46.335 -16.285  38.046  0.00  0.00     0.126 C 
ATOM     28  C   UNL d   1      46.647 -16.383  38.801  0.00  0.00     0.029 C 
ENDBRANCH  26  27
ENDBRANCH  24  26
ENDBRANCH   3  24
TORSDOF 5
ENDMDL
MODEL 2
REMARK VINA RESULT:      64.7      1.547      2.595
REMARK  5 active torsions:
REMARK  status: ('A' for Active; 'I' for Inactive)
REMARK    1  A    between atoms: C_14  and  C_3 
REMARK    2  A    between atoms: C_8  and  C_4 
REMARK    3  A    between atoms: N_10  and  C_9 
REMARK    4  A    between atoms: O_21  and  C_14 
REMARK    5  A    between atoms: C_25  and  O_21 
ROOT
ATOM      1  C   UNL d   1      43.493 -15.785  37.101  0.00  0.00     0.059 A 
ATOM      2  C   UNL d   1      43.188 -15.125  36.712  0.00  0.00     0.085 A 
ATOM      3  C   UNL d   1      44.808 -15.250  36.979  0.00  0.00     0.083 A 
ATOM      4  C   UNL d   1      44.302 -15.844  37.233  0.00  0.00     0.034 A 
ATOM      5  N   UNL d   1      43.683 -14.527  36.455  0.00  0.00    -0.245 NA
ATOM      6  C   UNL d   1      42.866 -16.286  37.290  0.00  0.00     0.197 A 
ATOM      7  C   UNL d   1      44.501 -14.587  36.588  0.00  0.00     0.087 A 
ATOM      8  C   UNL d   1      42.367 -15.218  36.660  0.00  0.00     0.021 A 
ATOM      9  C   UNL d   1      42.167 -15.932  37.015  0.00  0.00     0.041 A 
ATOM     10  O   UNL d   1      42.921 -17.011  37.684  0.00  0.00    -0.286 OA
ATOM     11  C   UNL d   1      45.007 -13.988  36.331  0.00  0.00     0.021 C 
ATOM     12  C   UNL d   1      41.768 -14.740  36.331  0.00  0.00     0.002 A 
ATOM     13  C   UNL d   1      41.377 -16.179  37.049  0.00  0.00     0.003 A 
ATOM     14  C   UNL d   1      40.986 -14.987  36.365  0.00  0.00     0.000 A 
ATOM     15  C   UNL d   1      40.786 -15.699  36.720  0.00  0.00     0.000 A 
ENDROOT
BRANCH   4  16
ATOM     16  C   UNL d   1      44.607 -16.504  37.622  0.00  0.00     0.102 A 
ATOM     17  O   UNL d   1      44.788 -16.556  38.426  0.00  0.00    -0.286 OA
ATOM     18  C   UNL d   1      45.076 -17.306  38.579  0.00  0.00     0.227 A 
ATOM     19  C   UNL d   1      45.078 -17.732  37.872  0.00  0.00     0.051 A 
ATOM     20  C   UNL d   1      44.786 -17.236  37.275  0.00  0.00     0.029 A 
BRANCH  18  21
ATOM     21  N   UNL d   1      45.326 -17.601  39.313  0.00  0.00    -0.089 N 
ATOM     22  O   UNL d   1      46.123 -17.618  39.505  0.00  0.00    -0.530 OA
ATOM     23  O   UNL d   1      44.758 -17.878  39.854  0.00  0.00    -0.530 OA
ENDBRANCH  18  21
ENDBRANCH   4  16
BRANCH   3  24
ATOM     24  C   UNL d   1      45.620 -15.307  37.110  0.00  0.00     0.302 C 
ATOM     25  O   UNL d   1      46.106 -15.631  36.527  0.00  0.00    -0.259 OA
BRANCH  24  26
ATOM     26  O   UNL d   1      45.946 -15.043  37.819  0.00  0.00    -0.271 OA
BRANCH  26  27
ATOM     27  C   UNL d   1      46.645 -14.607  37.811  0.00  0.00     0.126 C 
ATOM     28  C   UNL d   1      46.615 -13.785  37.850  0.00  0.00     0.029 C 
ENDBRANCH  26  27
ENDBRANCH  24  26
ENDBRANCH   3  24
TORSDOF 5
ENDMDL
MODEL 3
REMARK VINA RESULT:      65.8      6.318      7.619
REMARK  5 active torsions:
REMARK  status: ('A' for Active; 'I' for Inactive)
REMARK    1  A    between atoms: C_14  and  C_3 
REMARK    2  A    between atoms: C_8  and  C_4 
REMARK    3  A    between atoms: N_10  and  C_9 
REMARK    4  A    between atoms: O_21  and  C_14 
REMARK    5  A    between atoms: C_25  and  O_21 
ROOT
ATOM      1  C   UNL d   1      45.085 -14.848  44.301  0.00  0.00     0.059 A 
ATOM      2  C   UNL d   1      45.820 -15.034  44.627  0.00  0.00     0.085 A 
ATOM      3  C   UNL d   1      45.389 -13.460  44.407  0.00  0.00     0.083 A 
ATOM      4  C   UNL d   1      44.874 -14.062  44.192  0.00  0.00     0.034 A 
ATOM      5  N   UNL d   1      46.341 -14.442  44.845  0.00  0.00    -0.245 NA
ATOM      6  C   UNL d   1      44.689 -15.553  44.140  0.00  0.00     0.197 A 
ATOM      7  C   UNL d   1      46.127 -13.647  44.735  0.00  0.00     0.087 A 
ATOM      8  C   UNL d   1      45.878 -15.859  44.669  0.00  0.00     0.021 A 
ATOM      9  C   UNL d   1      45.182 -16.180  44.370  0.00  0.00     0.041 A 
ATOM     10  O   UNL d   1      43.934 -15.625  43.809  0.00  0.00    -0.286 OA
ATOM     11  C   UNL d   1      46.646 -13.045  44.952  0.00  0.00     0.021 C 
ATOM     12  C   UNL d   1      46.480 -16.366  44.944  0.00  0.00     0.002 A 
ATOM     13  C   UNL d   1      45.077 -17.001  44.340  0.00  0.00     0.003 A 
ATOM     14  C   UNL d   1      46.373 -17.178  44.913  0.00  0.00     0.000 A 
ATOM     15  C   UNL d   1      45.680 -17.500  44.615  0.00  0.00     0.000 A 
ENDROOT
BRANCH   4  16
ATOM     16  C   UNL d   1      44.140 -13.877  43.865  0.00  0.00     0.102 A 
ATOM     17  O   UNL d   1      43.402 -14.047  44.194  0.00  0.00    -0.286 OA
ATOM     18  C   UNL d   1      42.822 -13.767  43.689  0.00  0.00     0.227 A 
ATOM     19  C   UNL d   1      43.191 -13.418  43.039  0.00  0.00     0.051 A 
ATOM     20  C   UNL d   1      44.011 -13.485  43.145  0.00  0.00     0.029 A 
BRANCH  18  21
ATOM     21  N   UNL d   1      42.002 -13.818  43.801  0.00  0.00    -0.089 N 
ATOM     22  O   UNL d   1      41.694 -14.165  44.478  0.00  0.00    -0.530 OA
ATOM     23  O   UNL d   1      41.493 -13.514  43.218  0.00  0.00    -0.530 OA
ENDBRANCH  18  21
ENDBRANCH   4  16
BRANCH   3  24
ATOM     24  C   UNL d   1      45.179 -12.670  44.298  0.00  0.00     0.302 C 
ATOM     25  O   UNL d   1      45.162 -12.160  44.946  0.00  0.00    -0.259 OA
BRANCH  24  26
ATOM     26  O   UNL d   1      44.986 -12.391  43.548  0.00  0.00    -0.271 OA
BRANCH  26  27
ATOM     27  C   UNL d   1      45.579 -12.104  43.053  0.00  0.00     0.126 C 
ATOM     28  C   UNL d   1      45.493 -12.160  42.237  0.00  0.00     0.029 C 
ENDBRANCH  26  27
ENDBRANCH  24  26
ENDBRANCH   3  24
TORSDOF 5
ENDMDL
