MODEL 1
REMARK VINA RESULT:      -8.3      0.000      0.000
REMARK  4 active torsions:
REMARK  status: ('A' for Active; 'I' for Inactive)
REMARK    1  A    between atoms: S_3  and  N_1 
REMARK    2  A    between atoms: C_7  and  C_4 
REMARK    3  A    between atoms: C_8  and  C_5 
REMARK    4  A    between atoms: O_19  and  C_17 
ROOT
ATOM      1  N   UNL d   1      53.248  32.758  53.696  0.00  0.00    -0.155 N 
ATOM      2  N   UNL d   1      52.781  33.436  53.548  0.00  0.00    -0.155 NA
ATOM      3  C   UNL d   1      52.118  33.189  53.143  0.00  0.00     0.110 A 
ATOM      4  C   UNL d   1      52.875  32.094  53.383  0.00  0.00     0.096 A 
ATOM      5  C   UNL d   1      52.156  32.352  53.028  0.00  0.00     0.041 A 
ENDROOT
BRANCH   4   6
ATOM      6  C   UNL d   1      53.149  31.316  53.408  0.00  0.00     0.021 A 
ATOM      7  C   UNL d   1      52.914  30.814  54.008  0.00  0.00     0.026 A 
ATOM      8  C   UNL d   1      53.189  30.037  54.033  0.00  0.00     0.094 A 
ATOM      9  C   UNL d   1      53.698  29.761  53.457  0.00  0.00     0.024 A 
ATOM     10  C   UNL d   1      53.938  30.263  52.849  0.00  0.00     0.002 A 
ATOM     11  C   UNL d   1      53.664  31.041  52.825  0.00  0.00     0.002 A 
BRANCH   8  12
ATOM     12  O   UNL d   1      52.945  29.533  54.646  0.00  0.00    -0.328 OA
ATOM     13  C   UNL d   1      53.344  28.830  54.782  0.00  0.00     0.181 C 
ENDBRANCH   8  12
ENDBRANCH   4   6
BRANCH   1  14
ATOM     14  S   UNL d   1      53.954  32.762  54.085  0.00  0.00     0.266 S 
ATOM     15  O   UNL d   1      54.359  32.884  53.363  0.00  0.00    -0.203 OA
ATOM     16  O   UNL d   1      53.595  32.644  54.806  0.00  0.00    -0.203 OA
ATOM     17  C   UNL d   1      54.706  32.770  54.473  0.00  0.00     0.165 C 
ENDBRANCH   1  14
BRANCH   3  18
ATOM     18  C   UNL d   1      51.491  33.660  52.875  0.00  0.00     0.049 A 
ATOM     19  S   UNL d   1      50.792  33.750  53.292  0.00  0.00    -0.085 SA
ATOM     20  C   UNL d   1      50.314  34.255  52.847  0.00  0.00     0.035 A 
ATOM     21  C   UNL d   1      50.743  34.466  52.151  0.00  0.00     0.007 A 
ATOM     22  C   UNL d   1      51.460  34.097  52.178  0.00  0.00     0.009 A 
ENDBRANCH   3  18
TORSDOF 4
ENDMDL
MODEL 2
REMARK VINA RESULT:      -8.1      1.279      2.344
REMARK  4 active torsions:
REMARK  status: ('A' for Active; 'I' for Inactive)
REMARK    1  A    between atoms: S_3  and  N_1 
REMARK    2  A    between atoms: C_7  and  C_4 
REMARK    3  A    between atoms: C_8  and  C_5 
REMARK    4  A    between atoms: O_19  and  C_17 
ROOT
ATOM      1  N   UNL d   1      52.354  32.344  53.063  0.00  0.00    -0.155 N 
ATOM      2  N   UNL d   1      51.601  32.580  52.789  0.00  0.00    -0.155 NA
ATOM      3  C   UNL d   1      51.552  33.388  52.880  0.00  0.00     0.110 A 
ATOM      4  C   UNL d   1      52.771  33.005  53.324  0.00  0.00     0.096 A 
ATOM      5  C   UNL d   1      52.274  33.676  53.214  0.00  0.00     0.041 A 
ENDROOT
BRANCH   4   6
ATOM      6  C   UNL d   1      53.535  33.016  53.636  0.00  0.00     0.021 A 
ATOM      7  C   UNL d   1      53.650  33.032  54.445  0.00  0.00     0.026 A 
ATOM      8  C   UNL d   1      54.413  33.043  54.757  0.00  0.00     0.094 A 
ATOM      9  C   UNL d   1      55.062  33.038  54.261  0.00  0.00     0.024 A 
ATOM     10  C   UNL d   1      54.951  33.021  53.444  0.00  0.00     0.002 A 
ATOM     11  C   UNL d   1      54.187  33.010  53.132  0.00  0.00     0.002 A 
BRANCH   8  12
ATOM     12  O   UNL d   1      54.522  33.059  55.579  0.00  0.00    -0.328 OA
ATOM     13  C   UNL d   1      54.916  33.688  55.929  0.00  0.00     0.181 C 
ENDBRANCH   8  12
ENDBRANCH   4   6
BRANCH   1  14
ATOM     14  S   UNL d   1      52.625  31.584  53.069  0.00  0.00     0.266 S 
ATOM     15  O   UNL d   1      52.901  31.670  52.283  0.00  0.00    -0.203 OA
ATOM     16  O   UNL d   1      52.371  31.464  53.833  0.00  0.00    -0.203 OA
ATOM     17  C   UNL d   1      52.917  30.790  53.053  0.00  0.00     0.165 C 
ENDBRANCH   1  14
BRANCH   3  18
ATOM     18  C   UNL d   1      50.910  33.876  52.687  0.00  0.00     0.049 A 
ATOM     19  S   UNL d   1      50.418  34.206  53.251  0.00  0.00    -0.085 SA
ATOM     20  C   UNL d   1      49.854  34.650  52.841  0.00  0.00     0.035 A 
ATOM     21  C   UNL d   1      50.021  34.578  52.017  0.00  0.00     0.007 A 
ATOM     22  C   UNL d   1      50.668  34.103  51.933  0.00  0.00     0.009 A 
ENDBRANCH   3  18
TORSDOF 4
ENDMDL
MODEL 3
REMARK VINA RESULT:      -8.1      1.326      3.855
REMARK  4 active torsions:
REMARK  status: ('A' for Active; 'I' for Inactive)
REMARK    1  A    between atoms: S_3  and  N_1 
REMARK    2  A    between atoms: C_7  and  C_4 
REMARK    3  A    between atoms: C_8  and  C_5 
REMARK    4  A    between atoms: O_19  and  C_17 
ROOT
ATOM      1  N   UNL d   1      53.071  32.888  53.750  0.00  0.00    -0.155 N 
ATOM      2  N   UNL d   1      53.406  32.149  53.952  0.00  0.00    -0.155 NA
ATOM      3  C   UNL d   1      52.986  31.576  53.552  0.00  0.00     0.110 A 
ATOM      4  C   UNL d   1      52.445  32.772  53.226  0.00  0.00     0.096 A 
ATOM      5  C   UNL d   1      52.380  31.943  53.091  0.00  0.00     0.041 A 
ENDROOT
BRANCH   4   6
ATOM      6  C   UNL d   1      51.967  33.355  52.892  0.00  0.00     0.021 A 
ATOM      7  C   UNL d   1      51.242  33.534  53.222  0.00  0.00     0.026 A 
ATOM      8  C   UNL d   1      50.764  34.117  52.887  0.00  0.00     0.094 A 
ATOM      9  C   UNL d   1      51.011  34.521  52.222  0.00  0.00     0.024 A 
ATOM     10  C   UNL d   1      51.742  34.345  51.885  0.00  0.00     0.002 A 
ATOM     11  C   UNL d   1      52.220  33.761  52.220  0.00  0.00     0.002 A 
BRANCH   8  12
ATOM     12  O   UNL d   1      50.028  34.293  53.229  0.00  0.00    -0.328 OA
ATOM     13  C   UNL d   1      49.539  34.853  52.884  0.00  0.00     0.181 C 
ENDBRANCH   8  12
ENDBRANCH   4   6
BRANCH   1  14
ATOM     14  S   UNL d   1      53.325  33.600  54.029  0.00  0.00     0.266 S 
ATOM     15  O   UNL d   1      52.807  33.537  54.683  0.00  0.00    -0.203 OA
ATOM     16  O   UNL d   1      53.842  33.697  53.406  0.00  0.00    -0.203 OA
ATOM     17  C   UNL d   1      53.578  34.346  54.339  0.00  0.00     0.165 C 
ENDBRANCH   1  14
BRANCH   3  18
ATOM     18  C   UNL d   1      53.112  30.756  53.574  0.00  0.00     0.049 A 
ATOM     19  S   UNL d   1      52.894  30.257  52.963  0.00  0.00    -0.085 SA
ATOM     20  C   UNL d   1      53.109  29.494  53.193  0.00  0.00     0.035 A 
ATOM     21  C   UNL d   1      53.462  29.547  53.958  0.00  0.00     0.007 A 
ATOM     22  C   UNL d   1      53.458  30.323  54.182  0.00  0.00     0.009 A 
ENDBRANCH   3  18
TORSDOF 4
ENDMDL
MODEL 4
REMARK VINA RESULT:      -7.5      1.700      3.954
REMARK  4 active torsions:
REMARK  status: ('A' for Active; 'I' for Inactive)
REMARK    1  A    between atoms: S_3  and  N_1 
REMARK    2  A    between atoms: C_7  and  C_4 
REMARK    3  A    between atoms: C_8  and  C_5 
REMARK    4  A    between atoms: O_19  and  C_17 
ROOT
ATOM      1  N   UNL d   1      52.871  32.596  53.430  0.00  0.00    -0.155 N 
ATOM      2  N   UNL d   1      53.536  32.516  53.929  0.00  0.00    -0.155 NA
ATOM      3  C   UNL d   1      53.741  33.263  54.181  0.00  0.00     0.110 A 
ATOM      4  C   UNL d   1      52.664  33.392  53.374  0.00  0.00     0.096 A 
ATOM      5  C   UNL d   1      53.208  33.828  53.846  0.00  0.00     0.041 A 
ENDROOT
BRANCH   4   6
ATOM      6  C   UNL d   1      52.040  33.710  52.938  0.00  0.00     0.021 A 
ATOM      7  C   UNL d   1      51.312  33.835  53.288  0.00  0.00     0.026 A 
ATOM      8  C   UNL d   1      50.689  34.153  52.851  0.00  0.00     0.094 A 
ATOM      9  C   UNL d   1      50.793  34.347  52.065  0.00  0.00     0.024 A 
ATOM     10  C   UNL d   1      51.525  34.224  51.707  0.00  0.00     0.002 A 
ATOM     11  C   UNL d   1      52.149  33.905  52.143  0.00  0.00     0.002 A 
BRANCH   8  12
ATOM     12  O   UNL d   1      49.953  34.276  53.214  0.00  0.00    -0.328 OA
ATOM     13  C   UNL d   1      49.472  34.893  52.967  0.00  0.00     0.181 C 
ENDBRANCH   8  12
ENDBRANCH   4   6
BRANCH   1  14
ATOM     14  S   UNL d   1      52.494  31.985  53.063  0.00  0.00     0.266 S 
ATOM     15  O   UNL d   1      53.020  32.041  52.415  0.00  0.00    -0.203 OA
ATOM     16  O   UNL d   1      51.963  31.901  53.675  0.00  0.00    -0.203 OA
ATOM     17  C   UNL d   1      52.113  31.345  52.660  0.00  0.00     0.165 C 
ENDBRANCH   1  14
BRANCH   3  18
ATOM     18  C   UNL d   1      54.367  33.467  54.686  0.00  0.00     0.049 A 
ATOM     19  S   UNL d   1      54.318  33.406  55.501  0.00  0.00    -0.085 SA
ATOM     20  C   UNL d   1      55.045  33.659  55.801  0.00  0.00     0.035 A 
ATOM     21  C   UNL d   1      55.531  33.873  55.146  0.00  0.00     0.007 A 
ATOM     22  C   UNL d   1      55.107  33.753  54.469  0.00  0.00     0.009 A 
ENDBRANCH   3  18
TORSDOF 4
ENDMDL
MODEL 5
REMARK VINA RESULT:      -7.3      1.251      2.683
REMARK  4 active torsions:
REMARK  status: ('A' for Active; 'I' for Inactive)
REMARK    1  A    between atoms: S_3  and  N_1 
REMARK    2  A    between atoms: C_7  and  C_4 
REMARK    3  A    between atoms: C_8  and  C_5 
REMARK    4  A    between atoms: O_19  and  C_17 
ROOT
ATOM      1  N   UNL d   1      53.011  32.437  53.496  0.00  0.00    -0.155 N 
ATOM      2  N   UNL d   1      53.389  33.114  53.807  0.00  0.00    -0.155 NA
ATOM      3  C   UNL d   1      54.074  32.864  54.170  0.00  0.00     0.110 A 
ATOM      4  C   UNL d   1      53.461  31.768  53.667  0.00  0.00     0.096 A 
ATOM      5  C   UNL d   1      54.139  32.024  54.095  0.00  0.00     0.041 A 
ENDROOT
BRANCH   4   6
ATOM      6  C   UNL d   1      53.285  30.989  53.460  0.00  0.00     0.021 A 
ATOM      7  C   UNL d   1      53.089  30.443  54.035  0.00  0.00     0.026 A 
ATOM      8  C   UNL d   1      52.914  29.664  53.828  0.00  0.00     0.094 A 
ATOM      9  C   UNL d   1      52.934  29.431  53.046  0.00  0.00     0.024 A 
ATOM     10  C   UNL d   1      53.132  29.978  52.462  0.00  0.00     0.002 A 
ATOM     11  C   UNL d   1      53.307  30.757  52.668  0.00  0.00     0.002 A 
BRANCH   8  12
ATOM     12  O   UNL d   1      52.715  29.116  54.418  0.00  0.00    -0.328 OA
ATOM     13  C   UNL d   1      53.304  28.684  54.792  0.00  0.00     0.181 C 
ENDBRANCH   8  12
ENDBRANCH   4   6
BRANCH   1  14
ATOM     14  S   UNL d   1      52.313  32.444  53.092  0.00  0.00     0.266 S 
ATOM     15  O   UNL d   1      51.889  32.383  53.811  0.00  0.00    -0.203 OA
ATOM     16  O   UNL d   1      52.691  32.504  52.373  0.00  0.00    -0.203 OA
ATOM     17  C   UNL d   1      51.568  32.450  52.688  0.00  0.00     0.165 C 
ENDBRANCH   1  14
BRANCH   3  18
ATOM     18  C   UNL d   1      54.635  33.334  54.559  0.00  0.00     0.049 A 
ATOM     19  S   UNL d   1      54.558  33.561  55.342  0.00  0.00    -0.085 SA
ATOM     20  C   UNL d   1      55.222  34.019  55.521  0.00  0.00     0.035 A 
ATOM     21  C   UNL d   1      55.700  34.060  54.827  0.00  0.00     0.007 A 
ATOM     22  C   UNL d   1      55.332  33.638  54.245  0.00  0.00     0.009 A 
ENDBRANCH   3  18
TORSDOF 4
ENDMDL
MODEL 6
REMARK VINA RESULT:      -7.0      1.912      4.061
REMARK  4 active torsions:
REMARK  status: ('A' for Active; 'I' for Inactive)
REMARK    1  A    between atoms: S_3  and  N_1 
REMARK    2  A    between atoms: C_7  and  C_4 
REMARK    3  A    between atoms: C_8  and  C_5 
REMARK    4  A    between atoms: O_19  and  C_17 
ROOT
ATOM      1  N   UNL d   1      51.948  32.875  53.077  0.00  0.00    -0.155 N 
ATOM      2  N   UNL d   1      51.957  32.043  53.008  0.00  0.00    -0.155 NA
ATOM      3  C   UNL d   1      52.687  31.787  53.265  0.00  0.00     0.110 A 
ATOM      4  C   UNL d   1      52.670  33.134  53.377  0.00  0.00     0.096 A 
ATOM      5  C   UNL d   1      53.150  32.454  53.502  0.00  0.00     0.041 A 
ENDROOT
BRANCH   4   6
ATOM      6  C   UNL d   1      52.890  33.915  53.531  0.00  0.00     0.021 A 
ATOM      7  C   UNL d   1      52.859  34.211  54.292  0.00  0.00     0.026 A 
ATOM      8  C   UNL d   1      53.078  34.991  54.445  0.00  0.00     0.094 A 
ATOM      9  C   UNL d   1      53.329  35.475  53.837  0.00  0.00     0.024 A 
ATOM     10  C   UNL d   1      53.363  35.181  53.068  0.00  0.00     0.002 A 
ATOM     11  C   UNL d   1      53.143  34.401  52.915  0.00  0.00     0.002 A 
BRANCH   8  12
ATOM     12  O   UNL d   1      53.044  35.284  55.220  0.00  0.00    -0.328 OA
ATOM     13  C   UNL d   1      52.938  36.087  55.351  0.00  0.00     0.181 C 
ENDBRANCH   8  12
ENDBRANCH   4   6
BRANCH   1  14
ATOM     14  S   UNL d   1      51.324  33.347  52.880  0.00  0.00     0.266 S 
ATOM     15  O   UNL d   1      50.996  33.243  53.642  0.00  0.00    -0.203 OA
ATOM     16  O   UNL d   1      51.613  33.471  52.128  0.00  0.00    -0.203 OA
ATOM     17  C   UNL d   1      50.661  33.839  52.693  0.00  0.00     0.165 C 
ENDBRANCH   1  14
BRANCH   3  18
ATOM     18  C   UNL d   1      52.959  31.004  53.301  0.00  0.00     0.049 A 
ATOM     19  S   UNL d   1      52.586  30.386  52.915  0.00  0.00    -0.085 SA
ATOM     20  C   UNL d   1      53.021  29.705  53.084  0.00  0.00     0.035 A 
ATOM     21  C   UNL d   1      53.664  29.929  53.582  0.00  0.00     0.007 A 
ATOM     22  C   UNL d   1      53.618  30.725  53.708  0.00  0.00     0.009 A 
ENDBRANCH   3  18
TORSDOF 4
ENDMDL
