MODEL 1
REMARK VINA RESULT:      -8.4      0.000      0.000
REMARK  5 active torsions:
REMARK  status: ('A' for Active; 'I' for Inactive)
REMARK    1  A    between atoms: C_11  and  C_1 
REMARK    2  A    between atoms: C_2  and  N_5 
REMARK    3  A    between atoms: N_3  and  C_7 
REMARK       I    between atoms: N_5  and  C_6 
REMARK    4  A    between atoms: C_6  and  C_9 
REMARK    5  A    between atoms: C_16  and  C_8 
ROOT
ATOM      1  N   UNL d   1      51.487  33.556  53.293  0.00  0.00    -0.183 NA
ATOM      2  C   UNL d   1      52.324  33.823  53.251  0.00  0.00     0.281 C 
ATOM      3  O   UNL d   1      52.522  34.480  52.772  0.00  0.00    -0.265 OA
ENDROOT
BRANCH   2   4
ATOM      4  C   UNL d   1      52.923  33.385  53.717  0.00  0.00     0.065 A 
ATOM      5  C   UNL d   1      53.400  33.839  54.215  0.00  0.00     0.091 A 
ATOM      6  C   UNL d   1      53.977  33.438  54.668  0.00  0.00     0.133 A 
ATOM      7  C   UNL d   1      54.065  32.619  54.616  0.00  0.00     0.024 A 
ATOM      8  C   UNL d   1      53.579  32.165  54.109  0.00  0.00     0.002 A 
ATOM      9  C   UNL d   1      53.011  32.566  53.665  0.00  0.00     0.005 A 
BRANCH   5  10
ATOM     10  C   UNL d   1      53.313  34.645  54.267  0.00  0.00     0.213 C 
ATOM     11  O   UNL d   1      52.844  34.992  54.865  0.00  0.00    -0.644 OA
ATOM     12  O   UNL d   1      53.705  35.043  53.712  0.00  0.00    -0.644 OA
ENDBRANCH   5  10
BRANCH   6  13
ATOM     13  N   UNL d   1      54.467  33.850  55.171  0.00  0.00    -0.114 N 
ATOM     14  O   UNL d   1      55.236  34.087  54.988  0.00  0.00    -0.532 OA
ATOM     15  O   UNL d   1      54.260  34.083  55.923  0.00  0.00    -0.532 OA
ENDBRANCH   6  13
ENDBRANCH   2   4
BRANCH   1  16
ATOM     16  C   UNL d   1      50.914  33.961  52.858  0.00  0.00     0.197 A 
ATOM     17  N   UNL d   1      50.320  34.319  53.243  0.00  0.00    -0.221 NA
ATOM     18  C   UNL d   1      49.847  34.668  52.688  0.00  0.00     0.090 A 
ATOM     19  C   UNL d   1      50.133  34.532  52.017  0.00  0.00     0.058 A 
ATOM     20  S   UNL d   1      50.820  34.084  52.022  0.00  0.00    -0.046 SA
BRANCH  18  21
ATOM     21  C   UNL d   1      49.160  35.108  52.783  0.00  0.00     0.018 A 
ATOM     22  C   UNL d   1      48.610  35.140  52.165  0.00  0.00     0.002 A 
ATOM     23  C   UNL d   1      47.907  35.585  52.251  0.00  0.00     0.000 A 
ATOM     24  C   UNL d   1      47.767  35.994  52.964  0.00  0.00     0.000 A 
ATOM     25  C   UNL d   1      48.312  35.960  53.572  0.00  0.00     0.000 A 
ATOM     26  C   UNL d   1      49.015  35.515  53.486  0.00  0.00     0.002 A 
ENDBRANCH  18  21
ENDBRANCH   1  16
TORSDOF 5
ENDMDL
MODEL 2
REMARK VINA RESULT:      -8.1      2.276      4.876
REMARK  5 active torsions:
REMARK  status: ('A' for Active; 'I' for Inactive)
REMARK    1  A    between atoms: C_11  and  C_1 
REMARK    2  A    between atoms: C_2  and  N_5 
REMARK    3  A    between atoms: N_3  and  C_7 
REMARK       I    between atoms: N_5  and  C_6 
REMARK    4  A    between atoms: C_6  and  C_9 
REMARK    5  A    between atoms: C_16  and  C_8 
ROOT
ATOM      1  N   UNL d   1      52.474  32.069  53.292  0.00  0.00    -0.183 NA
ATOM      2  C   UNL d   1      53.042  32.740  53.253  0.00  0.00     0.281 C 
ATOM      3  O   UNL d   1      53.862  32.581  53.192  0.00  0.00    -0.265 OA
ENDROOT
BRANCH   2   4
ATOM      4  C   UNL d   1      52.724  33.556  53.279  0.00  0.00     0.065 A 
ATOM      5  C   UNL d   1      53.065  34.062  53.835  0.00  0.00     0.091 A 
ATOM      6  C   UNL d   1      52.774  34.844  53.874  0.00  0.00     0.133 A 
ATOM      7  C   UNL d   1      52.168  35.098  53.375  0.00  0.00     0.024 A 
ATOM      8  C   UNL d   1      51.826  34.581  52.814  0.00  0.00     0.002 A 
ATOM      9  C   UNL d   1      52.118  33.810  52.780  0.00  0.00     0.005 A 
BRANCH   5  10
ATOM     10  C   UNL d   1      53.661  33.812  54.326  0.00  0.00     0.213 C 
ATOM     11  O   UNL d   1      53.495  33.509  55.088  0.00  0.00    -0.644 OA
ATOM     12  O   UNL d   1      54.381  33.885  54.016  0.00  0.00    -0.644 OA
ENDBRANCH   5  10
BRANCH   6  13
ATOM     13  N   UNL d   1      53.084  35.374  54.410  0.00  0.00    -0.114 N 
ATOM     14  O   UNL d   1      53.675  35.924  54.235  0.00  0.00    -0.532 OA
ATOM     15  O   UNL d   1      52.852  35.430  55.188  0.00  0.00    -0.532 OA
ENDBRANCH   6  13
ENDBRANCH   2   4
BRANCH   1  16
ATOM     16  C   UNL d   1      52.763  31.297  53.267  0.00  0.00     0.197 A 
ATOM     17  N   UNL d   1      52.805  30.880  53.941  0.00  0.00    -0.221 NA
ATOM     18  C   UNL d   1      53.103  30.152  53.757  0.00  0.00     0.090 A 
ATOM     19  C   UNL d   1      53.232  30.129  53.027  0.00  0.00     0.058 A 
ATOM     20  S   UNL d   1      53.045  30.818  52.624  0.00  0.00    -0.046 SA
BRANCH  18  21
ATOM     21  C   UNL d   1      53.260  29.508  54.244  0.00  0.00     0.018 A 
ATOM     22  C   UNL d   1      53.081  29.558  55.051  0.00  0.00     0.002 A 
ATOM     23  C   UNL d   1      53.237  28.908  55.555  0.00  0.00     0.000 A 
ATOM     24  C   UNL d   1      53.572  28.215  55.236  0.00  0.00     0.000 A 
ATOM     25  C   UNL d   1      53.746  28.170  54.440  0.00  0.00     0.000 A 
ATOM     26  C   UNL d   1      53.591  28.819  53.936  0.00  0.00     0.002 A 
ENDBRANCH  18  21
ENDBRANCH   1  16
TORSDOF 5
ENDMDL
MODEL 3
REMARK VINA RESULT:      -8.0      1.803      2.244
REMARK  5 active torsions:
REMARK  status: ('A' for Active; 'I' for Inactive)
REMARK    1  A    between atoms: C_11  and  C_1 
REMARK    2  A    between atoms: C_2  and  N_5 
REMARK    3  A    between atoms: N_3  and  C_7 
REMARK       I    between atoms: N_5  and  C_6 
REMARK    4  A    between atoms: C_6  and  C_9 
REMARK    5  A    between atoms: C_16  and  C_8 
ROOT
ATOM      1  N   UNL d   1      51.797  33.570  53.328  0.00  0.00    -0.183 NA
ATOM      2  C   UNL d   1      52.369  32.998  52.982  0.00  0.00     0.281 C 
ATOM      3  O   UNL d   1      52.348  32.845  52.160  0.00  0.00    -0.265 OA
ENDROOT
BRANCH   2   4
ATOM      4  C   UNL d   1      52.942  32.609  53.518  0.00  0.00     0.065 A 
ATOM      5  C   UNL d   1      52.996  31.787  53.458  0.00  0.00     0.091 A 
ATOM      6  C   UNL d   1      53.538  31.398  53.962  0.00  0.00     0.133 A 
ATOM      7  C   UNL d   1      54.001  31.823  54.497  0.00  0.00     0.024 A 
ATOM      8  C   UNL d   1      53.942  32.654  54.553  0.00  0.00     0.002 A 
ATOM      9  C   UNL d   1      53.405  33.033  54.053  0.00  0.00     0.005 A 
BRANCH   5  10
ATOM     10  C   UNL d   1      52.540  31.370  52.931  0.00  0.00     0.213 C 
ATOM     11  O   UNL d   1      51.795  31.062  53.154  0.00  0.00    -0.644 OA
ATOM     12  O   UNL d   1      52.867  31.292  52.219  0.00  0.00    -0.644 OA
ENDBRANCH   5  10
BRANCH   6  13
ATOM     13  N   UNL d   1      53.620  30.588  53.933  0.00  0.00    -0.114 N 
ATOM     14  O   UNL d   1      53.233  30.060  54.437  0.00  0.00    -0.532 OA
ATOM     15  O   UNL d   1      54.095  30.194  53.403  0.00  0.00    -0.532 OA
ENDBRANCH   6  13
ENDBRANCH   2   4
BRANCH   1  16
ATOM     16  C   UNL d   1      51.253  33.943  52.834  0.00  0.00     0.197 A 
ATOM     17  N   UNL d   1      50.566  34.196  53.138  0.00  0.00    -0.221 NA
ATOM     18  C   UNL d   1      50.144  34.536  52.538  0.00  0.00     0.090 A 
ATOM     19  C   UNL d   1      50.546  34.492  51.915  0.00  0.00     0.058 A 
ATOM     20  S   UNL d   1      51.275  34.127  52.003  0.00  0.00    -0.046 SA
BRANCH  18  21
ATOM     21  C   UNL d   1      49.400  34.885  52.547  0.00  0.00     0.018 A 
ATOM     22  C   UNL d   1      49.162  35.313  53.214  0.00  0.00     0.002 A 
ATOM     23  C   UNL d   1      48.407  35.672  53.235  0.00  0.00     0.000 A 
ATOM     24  C   UNL d   1      47.900  35.594  52.578  0.00  0.00     0.000 A 
ATOM     25  C   UNL d   1      48.138  35.170  51.921  0.00  0.00     0.000 A 
ATOM     26  C   UNL d   1      48.893  34.811  51.901  0.00  0.00     0.002 A 
ENDBRANCH  18  21
ENDBRANCH   1  16
TORSDOF 5
ENDMDL
MODEL 4
REMARK VINA RESULT:      -7.1      2.243      5.381
REMARK  5 active torsions:
REMARK  status: ('A' for Active; 'I' for Inactive)
REMARK    1  A    between atoms: C_11  and  C_1 
REMARK    2  A    between atoms: C_2  and  N_5 
REMARK    3  A    between atoms: N_3  and  C_7 
REMARK       I    between atoms: N_5  and  C_6 
REMARK    4  A    between atoms: C_6  and  C_9 
REMARK    5  A    between atoms: C_16  and  C_8 
ROOT
ATOM      1  N   UNL d   1      50.761  34.313  52.075  0.00  0.00    -0.183 NA
ATOM      2  C   UNL d   1      49.988  34.480  52.460  0.00  0.00     0.281 C 
ATOM      3  O   UNL d   1      49.926  34.431  53.293  0.00  0.00    -0.265 OA
ENDROOT
BRANCH   2   4
ATOM      4  C   UNL d   1      49.308  34.693  51.951  0.00  0.00     0.065 A 
ATOM      5  C   UNL d   1      48.739  35.185  52.290  0.00  0.00     0.091 A 
ATOM      6  C   UNL d   1      48.083  35.399  51.819  0.00  0.00     0.133 A 
ATOM      7  C   UNL d   1      48.010  35.127  51.043  0.00  0.00     0.024 A 
ATOM      8  C   UNL d   1      48.589  34.629  50.705  0.00  0.00     0.002 A 
ATOM      9  C   UNL d   1      49.235  34.421  51.175  0.00  0.00     0.005 A 
BRANCH   5  10
ATOM     10  C   UNL d   1      48.811  35.453  53.054  0.00  0.00     0.213 C 
ATOM     11  O   UNL d   1      49.186  36.181  53.222  0.00  0.00    -0.644 OA
ATOM     12  O   UNL d   1      48.501  34.969  53.592  0.00  0.00    -0.644 OA
ENDBRANCH   5  10
BRANCH   6  13
ATOM     13  N   UNL d   1      47.500  35.883  52.118  0.00  0.00    -0.114 N 
ATOM     14  O   UNL d   1      47.518  36.708  52.095  0.00  0.00    -0.532 OA
ATOM     15  O   UNL d   1      46.822  35.615  52.480  0.00  0.00    -0.532 OA
ENDBRANCH   6  13
ENDBRANCH   2   4
BRANCH   1  16
ATOM     16  C   UNL d   1      51.409  34.111  52.544  0.00  0.00     0.197 A 
ATOM     17  N   UNL d   1      51.655  33.357  52.558  0.00  0.00    -0.221 NA
ATOM     18  C   UNL d   1      52.290  33.318  53.057  0.00  0.00     0.090 A 
ATOM     19  C   UNL d   1      52.419  33.997  53.326  0.00  0.00     0.058 A 
ATOM     20  S   UNL d   1      51.905  34.576  53.055  0.00  0.00    -0.046 SA
BRANCH  18  21
ATOM     21  C   UNL d   1      52.753  32.674  53.272  0.00  0.00     0.018 A 
ATOM     22  C   UNL d   1      53.401  32.790  53.774  0.00  0.00     0.002 A 
ATOM     23  C   UNL d   1      53.879  32.141  53.999  0.00  0.00     0.000 A 
ATOM     24  C   UNL d   1      53.696  31.380  53.711  0.00  0.00     0.000 A 
ATOM     25  C   UNL d   1      53.056  31.270  53.216  0.00  0.00     0.000 A 
ATOM     26  C   UNL d   1      52.578  31.919  52.991  0.00  0.00     0.002 A 
ENDBRANCH  18  21
ENDBRANCH   1  16
TORSDOF 5
ENDMDL
