MODEL 1
REMARK VINA RESULT:      43.9      0.000      0.000
REMARK  3 active torsions:
REMARK  status: ('A' for Active; 'I' for Inactive)
REMARK       I    between atoms: C_6  and  N_1 
REMARK    1  A    between atoms: C_7  and  C_3 
REMARK    2  A    between atoms: C_8  and  C_4 
REMARK    3  A    between atoms: C_20  and  C_18 
ROOT
ATOM      1  N   UNL d   1      57.861  49.560  51.471  0.00  0.00    -0.193 N 
ATOM      2  N   UNL d   1      58.582  49.594  51.850  0.00  0.00    -0.163 NA
ATOM      3  C   UNL d   1      57.995  49.526  50.656  0.00  0.00     0.110 A 
ATOM      4  C   UNL d   1      59.165  49.581  51.268  0.00  0.00     0.103 A 
ATOM      5  C   UNL d   1      58.802  49.540  50.545  0.00  0.00     0.042 A 
ATOM      6  C   UNL d   1      57.097  49.559  51.847  0.00  0.00     0.281 C 
ATOM      7  O   UNL d   1      56.428  49.523  51.402  0.00  0.00    -0.265 OA
ATOM      8  C   UNL d   1      57.060  49.596  52.670  0.00  0.00     0.068 C 
ENDROOT
BRANCH   4   9
ATOM      9  C   UNL d   1      59.977  49.607  51.402  0.00  0.00     0.019 A 
ATOM     10  C   UNL d   1      60.507  49.563  50.770  0.00  0.00     0.002 A 
ATOM     11  C   UNL d   1      61.319  49.588  50.905  0.00  0.00     0.000 A 
ATOM     12  C   UNL d   1      61.607  49.658  51.679  0.00  0.00     0.000 A 
ATOM     13  C   UNL d   1      61.080  49.702  52.311  0.00  0.00     0.000 A 
ATOM     14  C   UNL d   1      60.265  49.676  52.177  0.00  0.00     0.002 A 
BRANCH  12  15
ATOM     15  C   UNL d   1      62.421  49.683  51.814  0.00  0.00     0.000 C 
ATOM     16  C   UNL d   1      62.714  49.700  52.584  0.00  0.00     0.000 C 
ENDBRANCH  12  15
ENDBRANCH   4   9
BRANCH   3  17
ATOM     17  C   UNL d   1      57.407  49.485  50.072  0.00  0.00     0.118 A 
ATOM     18  O   UNL d   1      57.518  49.618  49.270  0.00  0.00    -0.304 OA
ATOM     19  C   UNL d   1      56.786  49.522  48.874  0.00  0.00     0.123 A 
ATOM     20  C   UNL d   1      56.221  49.328  49.447  0.00  0.00     0.029 A 
ATOM     21  C   UNL d   1      56.623  49.309  50.187  0.00  0.00     0.028 A 
ENDBRANCH   3  17
TORSDOF 3
ENDMDL
MODEL 2
REMARK VINA RESULT:      44.9      1.601      4.250
REMARK  3 active torsions:
REMARK  status: ('A' for Active; 'I' for Inactive)
REMARK       I    between atoms: C_6  and  N_1 
REMARK    1  A    between atoms: C_7  and  C_3 
REMARK    2  A    between atoms: C_8  and  C_4 
REMARK    3  A    between atoms: C_20  and  C_18 
ROOT
ATOM      1  N   UNL d   1      59.930  49.671  52.255  0.00  0.00    -0.193 N 
ATOM      2  N   UNL d   1      59.135  49.670  52.075  0.00  0.00    -0.163 NA
ATOM      3  C   UNL d   1      60.359  49.679  51.550  0.00  0.00     0.110 A 
ATOM      4  C   UNL d   1      59.071  49.679  51.253  0.00  0.00     0.103 A 
ATOM      5  C   UNL d   1      59.818  49.684  50.941  0.00  0.00     0.042 A 
ATOM      6  C   UNL d   1      60.266  49.663  53.038  0.00  0.00     0.281 C 
ATOM      7  O   UNL d   1      61.064  49.665  53.135  0.00  0.00    -0.265 OA
ATOM      8  C   UNL d   1      59.758  49.655  53.688  0.00  0.00     0.068 C 
ENDROOT
BRANCH   4   9
ATOM      9  C   UNL d   1      58.366  49.681  50.828  0.00  0.00     0.019 A 
ATOM     10  C   UNL d   1      58.377  49.701  50.002  0.00  0.00     0.002 A 
ATOM     11  C   UNL d   1      57.672  49.704  49.577  0.00  0.00     0.000 A 
ATOM     12  C   UNL d   1      56.947  49.686  49.979  0.00  0.00     0.000 A 
ATOM     13  C   UNL d   1      56.934  49.666  50.802  0.00  0.00     0.000 A 
ATOM     14  C   UNL d   1      57.641  49.663  51.230  0.00  0.00     0.002 A 
BRANCH  12  15
ATOM     15  C   UNL d   1      56.240  49.688  49.552  0.00  0.00     0.000 C 
ATOM     16  C   UNL d   1      56.057  49.061  49.049  0.00  0.00     0.000 C 
ENDBRANCH  12  15
ENDBRANCH   4   9
BRANCH   3  17
ATOM     17  C   UNL d   1      61.186  49.682  51.488  0.00  0.00     0.118 A 
ATOM     18  O   UNL d   1      61.615  49.660  50.788  0.00  0.00    -0.304 OA
ATOM     19  C   UNL d   1      62.433  49.671  50.970  0.00  0.00     0.123 A 
ATOM     20  C   UNL d   1      62.501  49.701  51.794  0.00  0.00     0.029 A 
ATOM     21  C   UNL d   1      61.717  49.707  52.102  0.00  0.00     0.028 A 
ENDBRANCH   3  17
TORSDOF 3
ENDMDL
