MODEL 1
REMARK VINA RESULT:      -8.8      0.000      0.000
REMARK  6 active torsions:
REMARK  status: ('A' for Active; 'I' for Inactive)
REMARK    1  A    between atoms: N_4  and  S_1 
REMARK    2  A    between atoms: C_12  and  S_1 
REMARK    3  A    between atoms: N_3  and  C_2 
REMARK    4  A    between atoms: C_7  and  N_4 
REMARK    5  A    between atoms: C_6  and  C_8 
REMARK       I    between atoms: C_8  and  N_13 
REMARK    6  A    between atoms: N_13  and  C_22 
ROOT
ATOM      1  C   UNL d   1      51.800  33.620  53.007  0.00  0.00     0.106 A 
ATOM      2  C   UNL d   1      51.770  34.388  52.726  0.00  0.00     0.015 A 
ATOM      3  C   UNL d   1      51.111  33.224  53.235  0.00  0.00     0.015 A 
ATOM      4  C   UNL d   1      50.349  34.383  52.895  0.00  0.00     0.085 A 
ATOM      5  C   UNL d   1      50.383  33.609  53.178  0.00  0.00     0.020 A 
ATOM      6  C   UNL d   1      51.042  34.772  52.669  0.00  0.00     0.020 A 
ENDROOT
BRANCH   1   7
ATOM      7  S   UNL d   1      52.528  33.236  53.064  0.00  0.00     0.300 S 
ATOM      8  O   UNL d   1      52.148  32.515  53.191  0.00  0.00    -0.198 OA
ATOM      9  O   UNL d   1      52.923  33.953  52.937  0.00  0.00    -0.198 OA
BRANCH   7  10
ATOM     10  N   UNL d   1      53.264  32.853  53.120  0.00  0.00     0.034 NA
BRANCH  10  11
ATOM     11  C   UNL d   1      53.657  32.814  53.844  0.00  0.00     0.760 A 
ATOM     12  N   UNL d   1      54.239  33.387  54.037  0.00  0.00    -0.059 NA
ATOM     13  C   UNL d   1      54.633  33.349  54.761  0.00  0.00     0.102 A 
ATOM     14  C   UNL d   1      55.207  33.913  54.951  0.00  0.00     0.021 C 
ATOM     15  C   UNL d   1      54.453  32.746  55.295  0.00  0.00     0.041 A 
ATOM     16  C   UNL d   1      53.870  32.174  55.102  0.00  0.00     0.120 A 
ATOM     17  N   UNL d   1      53.483  32.218  54.380  0.00  0.00    -0.057 NA
ENDBRANCH  10  11
ENDBRANCH   7  10
ENDBRANCH   1   7
BRANCH   4  18
ATOM     18  N   UNL d   1      49.610  34.770  52.839  0.00  0.00    -0.208 NA
ATOM     19  C   UNL d   1      49.206  34.795  52.118  0.00  0.00     0.285 C 
ATOM     20  O   UNL d   1      49.541  34.433  51.453  0.00  0.00    -0.265 OA
BRANCH  19  21
ATOM     21  C   UNL d   1      48.477  35.178  52.066  0.00  0.00     0.089 A 
ATOM     22  S   UNL d   1      47.890  35.039  51.493  0.00  0.00    -0.059 SA
ATOM     23  C   UNL d   1      47.262  35.551  51.665  0.00  0.00     0.156 A 
ATOM     24  C   UNL d   1      47.466  35.996  52.335  0.00  0.00     0.031 A 
ATOM     25  C   UNL d   1      48.208  35.759  52.569  0.00  0.00     0.014 A 
BRANCH  23  26
ATOM     26  N   UNL d   1      46.550  35.600  51.227  0.00  0.00    -0.107 N 
ATOM     27  O   UNL d   1      46.342  35.005  50.691  0.00  0.00    -0.531 OA
ATOM     28  O   UNL d   1      46.053  36.254  51.337  0.00  0.00    -0.531 OA
ENDBRANCH  23  26
ENDBRANCH  19  21
ENDBRANCH   4  18
TORSDOF 6
ENDMDL
MODEL 2
REMARK VINA RESULT:      -8.2      1.094      1.602
REMARK  6 active torsions:
REMARK  status: ('A' for Active; 'I' for Inactive)
REMARK    1  A    between atoms: N_4  and  S_1 
REMARK    2  A    between atoms: C_12  and  S_1 
REMARK    3  A    between atoms: N_3  and  C_2 
REMARK    4  A    between atoms: C_7  and  N_4 
REMARK    5  A    between atoms: C_6  and  C_8 
REMARK       I    between atoms: C_8  and  N_13 
REMARK    6  A    between atoms: N_13  and  C_22 
ROOT
ATOM      1  C   UNL d   1      51.805  33.497  52.941  0.00  0.00     0.106 A 
ATOM      2  C   UNL d   1      51.790  34.249  52.618  0.00  0.00     0.015 A 
ATOM      3  C   UNL d   1      51.130  33.169  53.287  0.00  0.00     0.015 A 
ATOM      4  C   UNL d   1      50.411  34.365  52.982  0.00  0.00     0.085 A 
ATOM      5  C   UNL d   1      50.430  33.606  53.307  0.00  0.00     0.020 A 
ATOM      6  C   UNL d   1      51.089  34.686  52.638  0.00  0.00     0.020 A 
ENDROOT
BRANCH   1   7
ATOM      7  S   UNL d   1      52.505  33.061  52.921  0.00  0.00     0.300 S 
ATOM      8  O   UNL d   1      52.711  33.340  53.669  0.00  0.00    -0.198 OA
ATOM      9  O   UNL d   1      52.311  32.772  52.169  0.00  0.00    -0.198 OA
BRANCH   7  10
ATOM     10  N   UNL d   1      53.210  32.619  52.897  0.00  0.00     0.034 NA
BRANCH  10  11
ATOM     11  C   UNL d   1      53.242  31.871  53.242  0.00  0.00     0.760 A 
ATOM     12  N   UNL d   1      52.982  31.198  52.813  0.00  0.00    -0.059 NA
ATOM     13  C   UNL d   1      53.015  30.449  53.159  0.00  0.00     0.102 A 
ATOM     14  C   UNL d   1      52.759  29.786  52.736  0.00  0.00     0.021 C 
ATOM     15  C   UNL d   1      53.304  30.364  53.927  0.00  0.00     0.041 A 
ATOM     16  C   UNL d   1      53.563  31.037  54.356  0.00  0.00     0.120 A 
ATOM     17  N   UNL d   1      53.528  31.779  54.006  0.00  0.00    -0.057 NA
ENDBRANCH  10  11
ENDBRANCH   7  10
ENDBRANCH   1   7
BRANCH   4  18
ATOM     18  N   UNL d   1      49.700  34.805  53.004  0.00  0.00    -0.208 NA
ATOM     19  C   UNL d   1      49.217  34.852  52.334  0.00  0.00     0.285 C 
ATOM     20  O   UNL d   1      49.446  34.459  51.642  0.00  0.00    -0.265 OA
BRANCH  19  21
ATOM     21  C   UNL d   1      48.517  35.287  52.359  0.00  0.00     0.089 A 
ATOM     22  S   UNL d   1      47.892  35.241  51.813  0.00  0.00    -0.059 SA
ATOM     23  C   UNL d   1      47.313  35.777  52.065  0.00  0.00     0.156 A 
ATOM     24  C   UNL d   1      47.586  36.145  52.757  0.00  0.00     0.031 A 
ATOM     25  C   UNL d   1      48.319  35.838  52.925  0.00  0.00     0.014 A 
BRANCH  23  26
ATOM     26  N   UNL d   1      46.584  35.914  51.677  0.00  0.00    -0.107 N 
ATOM     27  O   UNL d   1      46.148  36.602  51.825  0.00  0.00    -0.531 OA
ATOM     28  O   UNL d   1      46.301  35.349  51.140  0.00  0.00    -0.531 OA
ENDBRANCH  23  26
ENDBRANCH  19  21
ENDBRANCH   4  18
TORSDOF 6
ENDMDL
MODEL 3
REMARK VINA RESULT:      -7.9      1.362      6.420
REMARK  6 active torsions:
REMARK  status: ('A' for Active; 'I' for Inactive)
REMARK    1  A    between atoms: N_4  and  S_1 
REMARK    2  A    between atoms: C_12  and  S_1 
REMARK    3  A    between atoms: N_3  and  C_2 
REMARK    4  A    between atoms: C_7  and  N_4 
REMARK    5  A    between atoms: C_6  and  C_8 
REMARK       I    between atoms: C_8  and  N_13 
REMARK    6  A    between atoms: N_13  and  C_22 
ROOT
ATOM      1  C   UNL d   1      48.968  35.127  52.325  0.00  0.00     0.106 A 
ATOM      2  C   UNL d   1      49.295  34.612  51.780  0.00  0.00     0.015 A 
ATOM      3  C   UNL d   1      49.248  35.158  53.102  0.00  0.00     0.015 A 
ATOM      4  C   UNL d   1      50.200  34.142  52.785  0.00  0.00     0.085 A 
ATOM      5  C   UNL d   1      49.867  34.663  53.331  0.00  0.00     0.020 A 
ATOM      6  C   UNL d   1      49.914  34.116  52.010  0.00  0.00     0.020 A 
ENDROOT
BRANCH   1   7
ATOM      7  S   UNL d   1      48.349  35.622  52.095  0.00  0.00     0.300 S 
ATOM      8  O   UNL d   1      48.310  35.248  51.361  0.00  0.00    -0.198 OA
ATOM      9  O   UNL d   1      48.377  36.007  52.829  0.00  0.00    -0.198 OA
BRANCH   7  10
ATOM     10  N   UNL d   1      47.725  36.124  51.868  0.00  0.00     0.034 NA
BRANCH  10  11
ATOM     11  C   UNL d   1      46.943  35.877  51.953  0.00  0.00     0.760 A 
ATOM     12  N   UNL d   1      46.525  36.043  52.662  0.00  0.00    -0.059 NA
ATOM     13  C   UNL d   1      45.742  35.796  52.748  0.00  0.00     0.102 A 
ATOM     14  C   UNL d   1      45.330  35.960  53.446  0.00  0.00     0.021 C 
ATOM     15  C   UNL d   1      45.371  35.386  52.135  0.00  0.00     0.041 A 
ATOM     16  C   UNL d   1      45.789  35.221  51.426  0.00  0.00     0.120 A 
ATOM     17  N   UNL d   1      46.568  35.469  51.348  0.00  0.00    -0.057 NA
ENDBRANCH  10  11
ENDBRANCH   7  10
ENDBRANCH   1   7
BRANCH   4  18
ATOM     18  N   UNL d   1      50.827  33.641  53.020  0.00  0.00    -0.208 NA
ATOM     19  C   UNL d   1      51.612  33.879  52.917  0.00  0.00     0.285 C 
ATOM     20  O   UNL d   1      51.770  34.617  52.577  0.00  0.00    -0.265 OA
BRANCH  19  21
ATOM     21  C   UNL d   1      52.228  33.383  53.150  0.00  0.00     0.089 A 
ATOM     22  S   UNL d   1      52.826  33.568  53.697  0.00  0.00    -0.059 SA
ATOM     23  C   UNL d   1      53.315  32.901  53.752  0.00  0.00     0.156 A 
ATOM     24  C   UNL d   1      53.017  32.319  53.243  0.00  0.00     0.031 A 
ATOM     25  C   UNL d   1      52.355  32.624  52.883  0.00  0.00     0.014 A 
BRANCH  23  26
ATOM     26  N   UNL d   1      53.992  32.842  54.242  0.00  0.00    -0.107 N 
ATOM     27  O   UNL d   1      53.919  32.635  55.040  0.00  0.00    -0.531 OA
ATOM     28  O   UNL d   1      54.739  32.995  53.917  0.00  0.00    -0.531 OA
ENDBRANCH  23  26
ENDBRANCH  19  21
ENDBRANCH   4  18
TORSDOF 6
ENDMDL
