MODEL 1
REMARK VINA RESULT:       8.6      0.000      0.000
REMARK  8 active torsions:
REMARK  status: ('A' for Active; 'I' for Inactive)
REMARK    1  A    between atoms: C_2  and  S_1 
REMARK    2  A    between atoms: N_6  and  S_1 
REMARK    3  A    between atoms: C_3  and  C_14 
REMARK       I    between atoms: N_7  and  C_3 
REMARK    4  A    between atoms: C_17  and  N_6 
REMARK    5  A    between atoms: C_14  and  C_19 
REMARK    6  A    between atoms: C_20  and  C_17 
REMARK    7  A    between atoms: C_19  and  C_21 
REMARK    8  A    between atoms: C_21  and  C_20 
ROOT
ATOM      1  N   UNL d   1      46.270 -17.220  44.487  0.00  0.00    -0.157 NA
ENDROOT
BRANCH   1   2
ATOM      2  S   UNL d   1      46.338 -17.841  43.945  0.00  0.00     0.285 S 
ATOM      3  O   UNL d   1      46.022 -17.974  44.701  0.00  0.00    -0.198 OA
ATOM      4  O   UNL d   1      46.585 -17.081  43.736  0.00  0.00    -0.198 OA
BRANCH   2   5
ATOM      5  C   UNL d   1      46.405 -18.464  43.401  0.00  0.00     0.105 A 
ATOM      6  C   UNL d   1      46.349 -19.247  43.658  0.00  0.00     0.013 A 
ATOM      7  C   UNL d   1      46.416 -19.860  43.123  0.00  0.00     0.001 A 
ATOM      8  C   UNL d   1      46.538 -19.698  42.334  0.00  0.00     0.000 A 
ATOM      9  C   UNL d   1      46.595 -18.920  42.070  0.00  0.00     0.001 A 
ATOM     10  C   UNL d   1      46.605 -20.323  41.793  0.00  0.00     0.000 C 
ATOM     11  C   UNL d   1      46.528 -18.308  42.605  0.00  0.00     0.013 A 
ENDBRANCH   2   5
ENDBRANCH   1   2
BRANCH   1  12
ATOM     12  C   UNL d   1      45.978 -16.485  44.243  0.00  0.00     0.112 C 
BRANCH  12  13
ATOM     13  C   UNL d   1      45.353 -16.133  44.656  0.00  0.00     0.021 C 
BRANCH  13  14
ATOM     14  C   UNL d   1      45.436 -15.362  44.955  0.00  0.00     0.002 C 
BRANCH  14  15
ATOM     15  C   UNL d   1      44.956 -14.753  44.679  0.00  0.00     0.005 C 
BRANCH  15  16
ATOM     16  C   UNL d   1      45.241 -13.983  44.622  0.00  0.00     0.061 C 
BRANCH  16  17
ATOM     17  C   UNL d   1      44.902 -13.450  44.089  0.00  0.00     0.265 C 
ATOM     18  N   UNL d   1      45.359 -12.846  43.762  0.00  0.00    -0.269 N 
ATOM     19  C   UNL d   1      45.011 -12.313  43.226  0.00  0.00     0.102 C 
ATOM     20  C   UNL d   1      46.157 -12.774  43.969  0.00  0.00     0.102 C 
ATOM     21  O   UNL d   1      44.103 -13.524  43.885  0.00  0.00    -0.267 OA
ENDBRANCH  16  17
ENDBRANCH  15  16
ENDBRANCH  14  15
ENDBRANCH  13  14
ENDBRANCH  12  13
ENDBRANCH   1  12
TORSDOF 8
ENDMDL
