MODEL 1
REMARK VINA RESULT:       1.8      0.000      0.000
REMARK  5 active torsions:
REMARK  status: ('A' for Active; 'I' for Inactive)
REMARK    1  A    between atoms: C_11  and  C_1 
REMARK    2  A    between atoms: O_19  and  C_11 
REMARK    3  A    between atoms: C_16  and  N_12 
REMARK    4  A    between atoms: C_18  and  C_16 
REMARK    5  A    between atoms: C_26  and  O_19 
ROOT
ATOM      1  C   UNL d   1      58.271   0.665  33.598  0.00  0.00     0.088 A 
ATOM      2  C   UNL d   1      57.499   0.650  33.334  0.00  0.00     0.033 A 
ATOM      3  C   UNL d   1      57.182   0.641  32.556  0.00  0.00     0.043 A 
ATOM      4  C   UNL d   1      56.999   0.645  33.990  0.00  0.00     0.100 A 
ATOM      5  C   UNL d   1      58.249   0.668  34.437  0.00  0.00     0.105 A 
ATOM      6  O   UNL d   1      57.456   0.656  34.671  0.00  0.00    -0.307 OA
ATOM      7  C   UNL d   1      56.365   0.627  32.458  0.00  0.00     0.103 A 
ATOM      8  O   UNL d   1      56.041   0.618  31.693  0.00  0.00    -0.288 OA
ATOM      9  C   UNL d   1      56.174   0.630  33.874  0.00  0.00     0.025 A 
ATOM     10  C   UNL d   1      55.862   0.621  33.107  0.00  0.00     0.025 A 
ATOM     11  N   UNL d   1      57.363   0.637  31.149  0.00  0.00    -0.282 N 
ATOM     12  C   UNL d   1      57.679   0.647  31.914  0.00  0.00     0.084 A 
ATOM     13  C   UNL d   1      56.542   0.623  31.040  0.00  0.00     0.209 A 
ATOM     14  C   UNL d   1      58.906   0.682  34.937  0.00  0.00     0.027 C 
ATOM     15  C   UNL d   1      55.675   0.625  34.530  0.00  0.00     0.002 A 
ATOM     16  C   UNL d   1      55.050   0.607  32.994  0.00  0.00     0.002 A 
ATOM     17  C   UNL d   1      54.855   0.610  34.411  0.00  0.00     0.000 A 
ATOM     18  C   UNL d   1      54.544   0.602  33.649  0.00  0.00     0.000 A 
ENDROOT
BRANCH  11  19
ATOM     19  C   UNL d   1      57.855   0.643  30.495  0.00  0.00     0.084 C 
BRANCH  19  20
ATOM     20  C   UNL d   1      58.045  -0.073  30.117  0.00  0.00     0.037 A 
ATOM     21  C   UNL d   1      57.858  -0.793  30.478  0.00  0.00     0.100 A 
ATOM     22  N   UNL d   1      58.047  -1.496  30.103  0.00  0.00    -0.242 NA
ATOM     23  C   UNL d   1      58.420  -1.491  29.368  0.00  0.00     0.099 A 
ATOM     24  C   UNL d   1      58.603  -0.775  29.015  0.00  0.00     0.021 A 
ATOM     25  C   UNL d   1      58.417  -0.062  29.385  0.00  0.00     0.005 A 
ENDBRANCH  19  20
ENDBRANCH  11  19
BRANCH   1  26
ATOM     26  C   UNL d   1      58.940   0.674  33.124  0.00  0.00     0.302 C 
ATOM     27  O   UNL d   1      58.877   0.677  32.309  0.00  0.00    -0.259 OA
BRANCH  26  28
ATOM     28  O   UNL d   1      59.696   0.680  33.471  0.00  0.00    -0.271 OA
BRANCH  28  29
ATOM     29  C   UNL d   1      60.349   0.540  33.003  0.00  0.00     0.126 C 
ATOM     30  C   UNL d   1      61.105   0.611  33.315  0.00  0.00     0.029 C 
ENDBRANCH  28  29
ENDBRANCH  26  28
ENDBRANCH   1  26
TORSDOF 5
ENDMDL
MODEL 2
REMARK VINA RESULT:       3.7      2.305      5.466
REMARK  5 active torsions:
REMARK  status: ('A' for Active; 'I' for Inactive)
REMARK    1  A    between atoms: C_11  and  C_1 
REMARK    2  A    between atoms: O_19  and  C_11 
REMARK    3  A    between atoms: C_16  and  N_12 
REMARK    4  A    between atoms: C_18  and  C_16 
REMARK    5  A    between atoms: C_26  and  O_19 
ROOT
ATOM      1  C   UNL d   1      58.197  -1.740  29.784  0.00  0.00     0.088 A 
ATOM      2  C   UNL d   1      58.962  -1.949  29.589  0.00  0.00     0.033 A 
ATOM      3  C   UNL d   1      59.685  -1.529  29.668  0.00  0.00     0.043 A 
ATOM      4  C   UNL d   1      58.951  -2.708  29.268  0.00  0.00     0.100 A 
ATOM      5  C   UNL d   1      57.701  -2.385  29.578  0.00  0.00     0.105 A 
ATOM      6  O   UNL d   1      58.178  -2.981  29.259  0.00  0.00    -0.307 OA
ATOM      7  C   UNL d   1      60.383  -1.886  29.420  0.00  0.00     0.103 A 
ATOM      8  O   UNL d   1      61.105  -1.480  29.493  0.00  0.00    -0.288 OA
ATOM      9  C   UNL d   1      59.667  -3.056  29.022  0.00  0.00     0.025 A 
ATOM     10  C   UNL d   1      60.380  -2.642  29.099  0.00  0.00     0.025 A 
ATOM     11  N   UNL d   1      60.404  -0.370  30.061  0.00  0.00    -0.282 N 
ATOM     12  C   UNL d   1      59.689  -0.781  29.985  0.00  0.00     0.084 A 
ATOM     13  C   UNL d   1      61.112  -0.721  29.814  0.00  0.00     0.209 A 
ATOM     14  C   UNL d   1      56.882  -2.415  29.678  0.00  0.00     0.027 C 
ATOM     15  C   UNL d   1      59.656  -3.815  28.701  0.00  0.00     0.002 A 
ATOM     16  C   UNL d   1      61.083  -2.986  28.856  0.00  0.00     0.002 A 
ATOM     17  C   UNL d   1      60.369  -4.159  28.456  0.00  0.00     0.000 A 
ATOM     18  C   UNL d   1      61.078  -3.748  28.533  0.00  0.00     0.000 A 
ENDROOT
BRANCH  11  19
ATOM     19  C   UNL d   1      60.420   0.384  30.379  0.00  0.00     0.084 C 
BRANCH  19  20
ATOM     20  C   UNL d   1      60.421   0.482  31.204  0.00  0.00     0.037 A 
ATOM     21  C   UNL d   1      59.706   0.575  31.610  0.00  0.00     0.100 A 
ATOM     22  N   UNL d   1      59.710   0.672  32.423  0.00  0.00    -0.242 NA
ATOM     23  C   UNL d   1      60.421   0.679  32.839  0.00  0.00     0.099 A 
ATOM     24  C   UNL d   1      61.126   0.587  32.433  0.00  0.00     0.021 A 
ATOM     25  C   UNL d   1      61.132   0.488  31.615  0.00  0.00     0.005 A 
ENDBRANCH  19  20
ENDBRANCH  11  19
BRANCH   1  26
ATOM     26  C   UNL d   1      57.965  -1.028  30.118  0.00  0.00     0.302 C 
ATOM     27  O   UNL d   1      57.936  -0.344  29.672  0.00  0.00    -0.259 OA
BRANCH  26  28
ATOM     28  O   UNL d   1      57.754  -0.996  30.922  0.00  0.00    -0.271 OA
BRANCH  28  29
ATOM     29  C   UNL d   1      57.282  -0.384  31.184  0.00  0.00     0.126 C 
ATOM     30  C   UNL d   1      56.701  -0.522  31.748  0.00  0.00     0.029 C 
ENDBRANCH  28  29
ENDBRANCH  26  28
ENDBRANCH   1  26
TORSDOF 5
ENDMDL
