MODEL 1
REMARK VINA RESULT:      11.9      0.000      0.000
REMARK  1 active torsions:
REMARK  status: ('A' for Active; 'I' for Inactive)
REMARK    1  A    between atoms: C_7  and  C_3 
ROOT
ATOM      1  C   UNL d   1     -55.580-102.651 -36.554  0.00  0.00     0.179 A 
ATOM      2  N   UNL d   1     -55.808-102.878 -37.295  0.00  0.00    -0.221 NA
ATOM      3  C   UNL d   1     -55.339-102.489 -37.853  0.00  0.00     0.101 A 
ATOM      4  N   UNL d   1     -54.968-102.120 -36.641  0.00  0.00    -0.282 N 
ATOM      5  C   UNL d   1     -54.830-102.029 -37.445  0.00  0.00     0.101 A 
ATOM      6  S   UNL d   1     -55.709-102.733 -35.738  0.00  0.00    -0.048 SA
ATOM      7  C   UNL d   1     -54.723-101.877 -35.882  0.00  0.00     0.089 A 
ATOM      8  C   UNL d   1     -55.166-102.243 -35.322  0.00  0.00     0.057 A 
ENDROOT
BRANCH   3   9
ATOM      9  C   UNL d   1     -55.355-102.533 -38.678  0.00  0.00     0.019 A 
ATOM     10  C   UNL d   1     -54.713-102.291 -39.129  0.00  0.00     0.002 A 
ATOM     11  C   UNL d   1     -54.728-102.335 -39.957  0.00  0.00     0.011 A 
ATOM     12  C   UNL d   1     -55.377-102.618 -40.329  0.00  0.00     0.058 A 
ATOM     13  C   UNL d   1     -56.051-102.875 -39.880  0.00  0.00     0.011 A 
ATOM     14 CL   UNL d   1     -55.391-102.663 -41.172  0.00  0.00    -0.082 Cl
ATOM     15  C   UNL d   1     -56.027-102.827 -39.055  0.00  0.00     0.002 A 
ENDBRANCH   3   9
TORSDOF 1
ENDMDL
