MODEL 1
REMARK VINA RESULT:     -10.8      0.000      0.000
REMARK  5 active torsions:
REMARK  status: ('A' for Active; 'I' for Inactive)
REMARK    1  A    between atoms: C_5  and  N_1 
REMARK    2  A    between atoms: C_8  and  C_2 
REMARK    3  A    between atoms: C_7  and  C_5 
REMARK    4  A    between atoms: N_10  and  C_8 
REMARK       I    between atoms: C_9  and  N_10 
REMARK    5  A    between atoms: C_17  and  C_9 
ROOT
ATOM      1  N   UNL d   1      53.396  32.058  53.236  0.00  0.00    -0.288 N 
ATOM      2  C   UNL d   1      52.637  32.328  53.062  0.00  0.00     0.167 A 
ATOM      3  N   UNL d   1      52.136  31.685  53.035  0.00  0.00    -0.225 NA
ATOM      4  C   UNL d   1      53.355  31.236  53.315  0.00  0.00     0.083 A 
ATOM      5  C   UNL d   1      52.575  31.011  53.191  0.00  0.00     0.099 A 
ATOM      6  C   UNL d   1      53.931  30.670  53.486  0.00  0.00     0.019 A 
ATOM      7  C   UNL d   1      52.358  30.212  53.234  0.00  0.00     0.021 A 
ATOM      8  C   UNL d   1      53.711  29.874  53.529  0.00  0.00     0.002 A 
ATOM      9  C   UNL d   1      52.933  29.644  53.404  0.00  0.00     0.002 A 
ENDROOT
BRANCH   1  10
ATOM     10  C   UNL d   1      54.070  32.526  53.314  0.00  0.00     0.084 C 
BRANCH  10  11
ATOM     11  C   UNL d   1      54.279  32.822  54.046  0.00  0.00     0.045 A 
ATOM     12  C   UNL d   1      54.996  33.240  54.134  0.00  0.00     0.141 A 
ATOM     13  F   UNL d   1      55.489  33.351  53.483  0.00  0.00    -0.204 F 
ATOM     14  C   UNL d   1      55.214  33.544  54.874  0.00  0.00     0.030 A 
ATOM     15  C   UNL d   1      54.721  33.434  55.531  0.00  0.00     0.002 A 
ATOM     16  C   UNL d   1      54.004  33.014  55.430  0.00  0.00     0.000 A 
ATOM     17  C   UNL d   1      53.789  32.714  54.699  0.00  0.00     0.004 A 
ENDBRANCH  10  11
ENDBRANCH   1  10
BRANCH   2  18
ATOM     18  C   UNL d   1      52.424  33.117  52.937  0.00  0.00     0.140 C 
BRANCH  18  19
ATOM     19  N   UNL d   1      51.681  33.293  52.623  0.00  0.00    -0.203 NA
ATOM     20  C   UNL d   1      51.428  34.067  52.569  0.00  0.00     0.279 C 
ATOM     21  O   UNL d   1      51.920  34.678  52.831  0.00  0.00    -0.265 OA
BRANCH  20  22
ATOM     22  C   UNL d   1      50.694  34.244  52.259  0.00  0.00     0.062 C 
ATOM     23  C   UNL d   1      50.141  34.621  52.713  0.00  0.00     0.005 C 
ENDBRANCH  20  22
ENDBRANCH  18  19
ENDBRANCH   2  18
TORSDOF 5
ENDMDL
MODEL 2
REMARK VINA RESULT:     -10.2      1.260      3.138
REMARK  5 active torsions:
REMARK  status: ('A' for Active; 'I' for Inactive)
REMARK    1  A    between atoms: C_5  and  N_1 
REMARK    2  A    between atoms: C_8  and  C_2 
REMARK    3  A    between atoms: C_7  and  C_5 
REMARK    4  A    between atoms: N_10  and  C_8 
REMARK       I    between atoms: C_9  and  N_10 
REMARK    5  A    between atoms: C_17  and  C_9 
ROOT
ATOM      1  N   UNL d   1      53.122  32.862  53.182  0.00  0.00    -0.288 N 
ATOM      2  C   UNL d   1      52.818  32.096  53.208  0.00  0.00     0.167 A 
ATOM      3  N   UNL d   1      52.009  32.137  53.116  0.00  0.00    -0.225 NA
ATOM      4  C   UNL d   1      52.485  33.377  53.071  0.00  0.00     0.083 A 
ATOM      5  C   UNL d   1      51.800  32.926  53.031  0.00  0.00     0.099 A 
ATOM      6  C   UNL d   1      52.447  34.199  53.003  0.00  0.00     0.019 A 
ATOM      7  C   UNL d   1      51.063  33.290  52.922  0.00  0.00     0.021 A 
ATOM      8  C   UNL d   1      51.711  34.560  52.893  0.00  0.00     0.002 A 
ATOM      9  C   UNL d   1      51.024  34.112  52.853  0.00  0.00     0.002 A 
ENDROOT
BRANCH   1  10
ATOM     10  C   UNL d   1      53.916  33.070  53.253  0.00  0.00     0.084 C 
BRANCH  10  11
ATOM     11  C   UNL d   1      54.231  33.236  53.988  0.00  0.00     0.045 A 
ATOM     12  C   UNL d   1      55.052  33.360  54.068  0.00  0.00     0.141 A 
ATOM     13  F   UNL d   1      55.540  33.314  53.405  0.00  0.00    -0.204 F 
ATOM     14  C   UNL d   1      55.379  33.528  54.811  0.00  0.00     0.030 A 
ATOM     15  C   UNL d   1      54.891  33.575  55.479  0.00  0.00     0.002 A 
ATOM     16  C   UNL d   1      54.068  33.449  55.387  0.00  0.00     0.000 A 
ATOM     17  C   UNL d   1      53.746  33.282  54.652  0.00  0.00     0.004 A 
ENDBRANCH  10  11
ENDBRANCH   1  10
BRANCH   2  18
ATOM     18  C   UNL d   1      53.261  31.406  53.311  0.00  0.00     0.140 C 
BRANCH  18  19
ATOM     19  N   UNL d   1      52.881  30.707  53.531  0.00  0.00    -0.203 NA
ATOM     20  C   UNL d   1      53.307  30.017  53.625  0.00  0.00     0.279 C 
ATOM     21  O   UNL d   1      54.125  30.019  53.498  0.00  0.00    -0.265 OA
BRANCH  20  22
ATOM     22  C   UNL d   1      52.934  29.324  53.843  0.00  0.00     0.062 C 
ATOM     23  C   UNL d   1      53.245  28.863  54.430  0.00  0.00     0.005 C 
ENDBRANCH  20  22
ENDBRANCH  18  19
ENDBRANCH   2  18
TORSDOF 5
ENDMDL
MODEL 3
REMARK VINA RESULT:      -9.5      1.596      3.874
REMARK  5 active torsions:
REMARK  status: ('A' for Active; 'I' for Inactive)
REMARK    1  A    between atoms: C_5  and  N_1 
REMARK    2  A    between atoms: C_8  and  C_2 
REMARK    3  A    between atoms: C_7  and  C_5 
REMARK    4  A    between atoms: N_10  and  C_8 
REMARK       I    between atoms: C_9  and  N_10 
REMARK    5  A    between atoms: C_17  and  C_9 
ROOT
ATOM      1  N   UNL d   1      53.082  33.025  54.106  0.00  0.00    -0.288 N 
ATOM      2  C   UNL d   1      53.492  32.385  53.788  0.00  0.00     0.167 A 
ATOM      3  N   UNL d   1      54.279  32.461  53.986  0.00  0.00    -0.225 NA
ATOM      4  C   UNL d   1      53.631  33.498  54.504  0.00  0.00     0.083 A 
ATOM      5  C   UNL d   1      54.369  33.146  54.427  0.00  0.00     0.099 A 
ATOM      6  C   UNL d   1      53.548  34.204  54.925  0.00  0.00     0.019 A 
ATOM      7  C   UNL d   1      55.038  33.495  54.771  0.00  0.00     0.021 A 
ATOM      8  C   UNL d   1      54.216  34.549  55.267  0.00  0.00     0.002 A 
ATOM      9  C   UNL d   1      54.956  34.200  55.192  0.00  0.00     0.002 A 
ENDROOT
BRANCH   1  10
ATOM     10  C   UNL d   1      52.273  33.164  54.038  0.00  0.00     0.084 C 
BRANCH  10  11
ATOM     11  C   UNL d   1      51.981  33.574  53.394  0.00  0.00     0.045 A 
ATOM     12  C   UNL d   1      51.158  33.609  53.264  0.00  0.00     0.141 A 
ATOM     13  F   UNL d   1      50.643  33.230  53.785  0.00  0.00    -0.204 F 
ATOM     14  C   UNL d   1      50.855  34.024  52.614  0.00  0.00     0.030 A 
ATOM     15  C   UNL d   1      51.369  34.407  52.088  0.00  0.00     0.002 A 
ATOM     16  C   UNL d   1      52.194  34.364  52.229  0.00  0.00     0.000 A 
ATOM     17  C   UNL d   1      52.492  33.954  52.872  0.00  0.00     0.004 A 
ENDBRANCH  10  11
ENDBRANCH   1  10
BRANCH   2  18
ATOM     18  C   UNL d   1      53.158  31.772  53.345  0.00  0.00     0.140 C 
BRANCH  18  19
ATOM     19  N   UNL d   1      53.318  30.988  53.550  0.00  0.00    -0.203 NA
ATOM     20  C   UNL d   1      53.082  30.378  53.062  0.00  0.00     0.279 C 
ATOM     21  O   UNL d   1      52.680  30.547  52.359  0.00  0.00    -0.265 OA
BRANCH  20  22
ATOM     22  C   UNL d   1      53.238  29.602  53.261  0.00  0.00     0.062 C 
ATOM     23  C   UNL d   1      52.691  29.170  53.673  0.00  0.00     0.005 C 
ENDBRANCH  20  22
ENDBRANCH  18  19
ENDBRANCH   2  18
TORSDOF 5
ENDMDL
MODEL 4
REMARK VINA RESULT:      -9.2      1.224      2.816
REMARK  5 active torsions:
REMARK  status: ('A' for Active; 'I' for Inactive)
REMARK    1  A    between atoms: C_5  and  N_1 
REMARK    2  A    between atoms: C_8  and  C_2 
REMARK    3  A    between atoms: C_7  and  C_5 
REMARK    4  A    between atoms: N_10  and  C_8 
REMARK       I    between atoms: C_9  and  N_10 
REMARK    5  A    between atoms: C_17  and  C_9 
ROOT
ATOM      1  N   UNL d   1      53.371  32.860  53.633  0.00  0.00    -0.288 N 
ATOM      2  C   UNL d   1      52.702  33.300  53.830  0.00  0.00     0.167 A 
ATOM      3  N   UNL d   1      52.913  33.845  54.399  0.00  0.00    -0.225 NA
ATOM      4  C   UNL d   1      53.998  33.143  54.091  0.00  0.00     0.083 A 
ATOM      5  C   UNL d   1      53.711  33.751  54.562  0.00  0.00     0.099 A 
ATOM      6  C   UNL d   1      54.793  32.921  54.134  0.00  0.00     0.019 A 
ATOM      7  C   UNL d   1      54.215  34.149  55.086  0.00  0.00     0.021 A 
ATOM      8  C   UNL d   1      55.293  33.320  54.658  0.00  0.00     0.002 A 
ATOM      9  C   UNL d   1      55.009  33.928  55.131  0.00  0.00     0.002 A 
ENDROOT
BRANCH   1  10
ATOM     10  C   UNL d   1      53.403  32.249  53.081  0.00  0.00     0.084 C 
BRANCH  10  11
ATOM     11  C   UNL d   1      53.274  31.478  53.315  0.00  0.00     0.045 A 
ATOM     12  C   UNL d   1      52.999  30.917  52.761  0.00  0.00     0.141 A 
ATOM     13  F   UNL d   1      52.860  31.145  51.982  0.00  0.00    -0.204 F 
ATOM     14  C   UNL d   1      52.867  30.132  52.993  0.00  0.00     0.030 A 
ATOM     15  C   UNL d   1      53.006  29.900  53.776  0.00  0.00     0.002 A 
ATOM     16  C   UNL d   1      53.282  30.472  54.323  0.00  0.00     0.000 A 
ATOM     17  C   UNL d   1      53.412  31.247  54.093  0.00  0.00     0.004 A 
ENDBRANCH  10  11
ENDBRANCH   1  10
BRANCH   2  18
ATOM     18  C   UNL d   1      51.949  33.202  53.505  0.00  0.00     0.140 C 
BRANCH  18  19
ATOM     19  N   UNL d   1      51.507  33.867  53.297  0.00  0.00    -0.203 NA
ATOM     20  C   UNL d   1      50.718  33.794  53.099  0.00  0.00     0.279 C 
ATOM     21  O   UNL d   1      50.361  33.047  53.107  0.00  0.00    -0.265 OA
BRANCH  20  22
ATOM     22  C   UNL d   1      50.277  34.449  52.893  0.00  0.00     0.062 C 
ATOM     23  C   UNL d   1      49.781  34.421  52.255  0.00  0.00     0.005 C 
ENDBRANCH  20  22
ENDBRANCH  18  19
ENDBRANCH   2  18
TORSDOF 5
ENDMDL
MODEL 5
REMARK VINA RESULT:      -8.8      1.271      3.118
REMARK  5 active torsions:
REMARK  status: ('A' for Active; 'I' for Inactive)
REMARK    1  A    between atoms: C_5  and  N_1 
REMARK    2  A    between atoms: C_8  and  C_2 
REMARK    3  A    between atoms: C_7  and  C_5 
REMARK    4  A    between atoms: N_10  and  C_8 
REMARK       I    between atoms: C_9  and  N_10 
REMARK    5  A    between atoms: C_17  and  C_9 
ROOT
ATOM      1  N   UNL d   1      53.085  32.201  53.264  0.00  0.00    -0.288 N 
ATOM      2  C   UNL d   1      53.487  32.322  53.974  0.00  0.00     0.167 A 
ATOM      3  N   UNL d   1      53.642  31.594  54.308  0.00  0.00    -0.225 NA
ATOM      4  C   UNL d   1      52.995  31.385  53.166  0.00  0.00     0.083 A 
ATOM      5  C   UNL d   1      53.341  31.015  53.813  0.00  0.00     0.099 A 
ATOM      6  C   UNL d   1      52.642  30.937  52.569  0.00  0.00     0.019 A 
ATOM      7  C   UNL d   1      53.338  30.188  53.873  0.00  0.00     0.021 A 
ATOM      8  C   UNL d   1      52.642  30.113  52.631  0.00  0.00     0.002 A 
ATOM      9  C   UNL d   1      52.986  29.739  53.276  0.00  0.00     0.002 A 
ENDROOT
BRANCH   1  10
ATOM     10  C   UNL d   1      52.823  32.789  52.750  0.00  0.00     0.084 C 
BRANCH  10  11
ATOM     11  C   UNL d   1      52.094  33.138  52.865  0.00  0.00     0.045 A 
ATOM     12  C   UNL d   1      51.912  33.854  52.478  0.00  0.00     0.141 A 
ATOM     13  F   UNL d   1      52.469  34.206  51.982  0.00  0.00    -0.204 F 
ATOM     14  C   UNL d   1      51.173  34.213  52.590  0.00  0.00     0.030 A 
ATOM     15  C   UNL d   1      50.611  33.862  53.087  0.00  0.00     0.002 A 
ATOM     16  C   UNL d   1      50.805  33.143  53.471  0.00  0.00     0.000 A 
ATOM     17  C   UNL d   1      51.535  32.789  53.359  0.00  0.00     0.004 A 
ENDBRANCH  10  11
ENDBRANCH   1  10
BRANCH   2  18
ATOM     18  C   UNL d   1      53.695  33.057  54.289  0.00  0.00     0.140 C 
BRANCH  18  19
ATOM     19  N   UNL d   1      54.430  33.150  54.653  0.00  0.00    -0.203 NA
ATOM     20  C   UNL d   1      54.604  33.833  55.065  0.00  0.00     0.279 C 
ATOM     21  O   UNL d   1      54.039  34.435  55.118  0.00  0.00    -0.265 OA
BRANCH  20  22
ATOM     22  C   UNL d   1      55.330  33.928  55.426  0.00  0.00     0.062 C 
ATOM     23  C   UNL d   1      55.939  34.281  55.027  0.00  0.00     0.005 C 
ENDBRANCH  20  22
ENDBRANCH  18  19
ENDBRANCH   2  18
TORSDOF 5
ENDMDL
