MODEL 1
REMARK VINA RESULT:      -6.1      0.000      0.000
REMARK  5 active torsions:
REMARK  status: ('A' for Active; 'I' for Inactive)
REMARK       I    between atoms: C_3  and  N_1 
REMARK    1  A    between atoms: C_12  and  C_3 
REMARK    2  A    between atoms: C_7  and  O_10 
REMARK    3  A    between atoms: O_10  and  C_21 
REMARK    4  A    between atoms: C_22  and  C_12 
REMARK    5  A    between atoms: C_21  and  C_22 
ROOT
ATOM      1  N   UNL d   1     -48.980  13.418  22.630  0.00  0.00    -0.273 N 
ATOM      2  C   UNL d   1     -49.448  14.096  22.691  0.00  0.00     0.067 A 
ATOM      3  C   UNL d   1     -48.187  13.445  22.854  0.00  0.00     0.265 C 
ATOM      4  C   UNL d   1     -50.242  14.069  22.466  0.00  0.00     0.016 A 
ATOM      5  O   UNL d   1     -47.861  14.147  23.138  0.00  0.00    -0.267 OA
ATOM      6  C   UNL d   1     -49.305  12.716  22.346  0.00  0.00     0.083 A 
ATOM      7  C   UNL d   1     -49.123  14.797  22.975  0.00  0.00     0.018 A 
ATOM      8  C   UNL d   1     -50.099  12.691  22.122  0.00  0.00     0.019 A 
ATOM      9  C   UNL d   1     -50.568  13.368  22.182  0.00  0.00     0.003 A 
ATOM     10  C   UNL d   1     -50.710  14.746  22.527  0.00  0.00     0.001 A 
ATOM     11  C   UNL d   1     -49.591  15.475  23.035  0.00  0.00     0.002 A 
ATOM     12  C   UNL d   1     -50.385  15.448  22.811  0.00  0.00     0.000 A 
ENDROOT
BRANCH   3  13
ATOM     13  C   UNL d   1     -47.718  12.767  22.794  0.00  0.00     0.063 C 
BRANCH  13  14
ATOM     14  C   UNL d   1     -46.926  12.792  23.025  0.00  0.00     0.032 C 
BRANCH  14  15
ATOM     15  C   UNL d   1     -46.488  12.094  23.068  0.00  0.00     0.123 C 
BRANCH  15  16
ATOM     16  O   UNL d   1     -45.663  12.124  23.060  0.00  0.00    -0.305 OA
BRANCH  16  17
ATOM     17  C   UNL d   1     -45.225  11.440  23.205  0.00  0.00     0.100 A 
ATOM     18  C   UNL d   1     -44.425  11.413  23.001  0.00  0.00     0.023 A 
ATOM     19  C   UNL d   1     -43.987  10.729  23.146  0.00  0.00     0.002 A 
ATOM     20  C   UNL d   1     -44.065  12.067  22.653  0.00  0.00     0.002 C 
ATOM     21  C   UNL d   1     -43.195  10.706  22.943  0.00  0.00     0.000 C 
ATOM     22  C   UNL d   1     -44.346  10.075  23.495  0.00  0.00     0.000 A 
ATOM     23  C   UNL d   1     -45.145  10.103  23.698  0.00  0.00     0.002 A 
ATOM     24  C   UNL d   1     -45.584  10.786  23.553  0.00  0.00     0.025 A 
ENDBRANCH  16  17
ENDBRANCH  15  16
ENDBRANCH  14  15
ENDBRANCH  13  14
ENDBRANCH   3  13
TORSDOF 5
ENDMDL
MODEL 2
REMARK VINA RESULT:      -5.2      8.445      9.264
REMARK  5 active torsions:
REMARK  status: ('A' for Active; 'I' for Inactive)
REMARK       I    between atoms: C_3  and  N_1 
REMARK    1  A    between atoms: C_12  and  C_3 
REMARK    2  A    between atoms: C_7  and  O_10 
REMARK    3  A    between atoms: O_10  and  C_21 
REMARK    4  A    between atoms: C_22  and  C_12 
REMARK    5  A    between atoms: C_21  and  C_22 
ROOT
ATOM      1  N   UNL d   1     -40.048  15.917  18.149  0.00  0.00    -0.273 N 
ATOM      2  C   UNL d   1     -40.556  15.919  17.498  0.00  0.00     0.067 A 
ATOM      3  C   UNL d   1     -40.358  15.916  18.914  0.00  0.00     0.265 C 
ATOM      4  C   UNL d   1     -40.246  15.920  16.733  0.00  0.00     0.016 A 
ATOM      5  O   UNL d   1     -41.174  15.916  19.028  0.00  0.00    -0.267 OA
ATOM      6  C   UNL d   1     -39.232  15.917  18.035  0.00  0.00     0.083 A 
ATOM      7  C   UNL d   1     -41.372  15.919  17.612  0.00  0.00     0.018 A 
ATOM      8  C   UNL d   1     -38.923  15.918  17.270  0.00  0.00     0.019 A 
ATOM      9  C   UNL d   1     -39.430  15.920  16.619  0.00  0.00     0.003 A 
ATOM     10  C   UNL d   1     -40.754  15.922  16.083  0.00  0.00     0.001 A 
ATOM     11  C   UNL d   1     -41.880  15.921  16.962  0.00  0.00     0.002 A 
ATOM     12  C   UNL d   1     -41.570  15.922  16.197  0.00  0.00     0.000 A 
ENDROOT
BRANCH   3  13
ATOM     13  C   UNL d   1     -39.850  15.914  19.565  0.00  0.00     0.063 C 
BRANCH  13  14
ATOM     14  C   UNL d   1     -40.135  15.701  20.310  0.00  0.00     0.032 C 
BRANCH  14  15
ATOM     15  C   UNL d   1     -39.635  15.729  20.965  0.00  0.00     0.123 C 
BRANCH  15  16
ATOM     16  O   UNL d   1     -39.472  15.039  21.389  0.00  0.00    -0.305 OA
BRANCH  16  17
ATOM     17  C   UNL d   1     -39.135  15.088  22.140  0.00  0.00     0.100 A 
ATOM     18  C   UNL d   1     -38.924  14.398  22.543  0.00  0.00     0.023 A 
ATOM     19  C   UNL d   1     -38.586  14.446  23.293  0.00  0.00     0.002 A 
ATOM     20  C   UNL d   1     -39.051  13.662  22.194  0.00  0.00     0.002 C 
ATOM     21  C   UNL d   1     -38.379  13.761  23.689  0.00  0.00     0.000 C 
ATOM     22  C   UNL d   1     -38.459  15.182  23.642  0.00  0.00     0.000 A 
ATOM     23  C   UNL d   1     -38.669  15.870  23.240  0.00  0.00     0.002 A 
ATOM     24  C   UNL d   1     -39.007  15.823  22.489  0.00  0.00     0.025 A 
ENDBRANCH  16  17
ENDBRANCH  15  16
ENDBRANCH  14  15
ENDBRANCH  13  14
ENDBRANCH   3  13
TORSDOF 5
ENDMDL
MODEL 3
REMARK VINA RESULT:      -5.1      8.606      9.951
REMARK  5 active torsions:
REMARK  status: ('A' for Active; 'I' for Inactive)
REMARK       I    between atoms: C_3  and  N_1 
REMARK    1  A    between atoms: C_12  and  C_3 
REMARK    2  A    between atoms: C_7  and  O_10 
REMARK    3  A    between atoms: O_10  and  C_21 
REMARK    4  A    between atoms: C_22  and  C_12 
REMARK    5  A    between atoms: C_21  and  C_22 
ROOT
ATOM      1  N   UNL d   1     -39.195  14.167  17.831  0.00  0.00    -0.273 N 
ATOM      2  C   UNL d   1     -38.943  14.496  17.117  0.00  0.00     0.067 A 
ATOM      3  C   UNL d   1     -39.591  14.635  18.384  0.00  0.00     0.265 C 
ATOM      4  C   UNL d   1     -38.547  14.028  16.564  0.00  0.00     0.016 A 
ATOM      5  O   UNL d   1     -39.734  15.430  18.223  0.00  0.00    -0.267 OA
ATOM      6  C   UNL d   1     -39.052  13.371  17.992  0.00  0.00     0.083 A 
ATOM      7  C   UNL d   1     -39.087  15.291  16.957  0.00  0.00     0.018 A 
ATOM      8  C   UNL d   1     -38.656  12.904  17.439  0.00  0.00     0.019 A 
ATOM      9  C   UNL d   1     -38.404  13.233  16.725  0.00  0.00     0.003 A 
ATOM     10  C   UNL d   1     -38.296  14.357  15.851  0.00  0.00     0.001 A 
ATOM     11  C   UNL d   1     -38.835  15.621  16.243  0.00  0.00     0.002 A 
ATOM     12  C   UNL d   1     -38.439  15.153  15.691  0.00  0.00     0.000 A 
ENDROOT
BRANCH   3  13
ATOM     13  C   UNL d   1     -39.843  14.305  19.098  0.00  0.00     0.063 C 
BRANCH  13  14
ATOM     14  C   UNL d   1     -39.863  14.768  19.781  0.00  0.00     0.032 C 
BRANCH  14  15
ATOM     15  C   UNL d   1     -39.795  14.412  20.522  0.00  0.00     0.123 C 
BRANCH  15  16
ATOM     16  O   UNL d   1     -39.742  14.879  21.201  0.00  0.00    -0.305 OA
BRANCH  16  17
ATOM     17  C   UNL d   1     -39.378  14.581  21.878  0.00  0.00     0.100 A 
ATOM     18  C   UNL d   1     -39.090  15.100  22.453  0.00  0.00     0.023 A 
ATOM     19  C   UNL d   1     -38.726  14.802  23.130  0.00  0.00     0.002 A 
ATOM     20  C   UNL d   1     -39.167  15.913  22.350  0.00  0.00     0.002 C 
ATOM     21  C   UNL d   1     -38.442  15.319  23.697  0.00  0.00     0.000 C 
ATOM     22  C   UNL d   1     -38.649  13.988  23.234  0.00  0.00     0.000 A 
ATOM     23  C   UNL d   1     -38.937  13.471  22.660  0.00  0.00     0.002 A 
ATOM     24  C   UNL d   1     -39.302  13.767  21.982  0.00  0.00     0.025 A 
ENDBRANCH  16  17
ENDBRANCH  15  16
ENDBRANCH  14  15
ENDBRANCH  13  14
ENDBRANCH   3  13
TORSDOF 5
ENDMDL
MODEL 4
REMARK VINA RESULT:      -5.0      3.142      4.984
REMARK  5 active torsions:
REMARK  status: ('A' for Active; 'I' for Inactive)
REMARK       I    between atoms: C_3  and  N_1 
REMARK    1  A    between atoms: C_12  and  C_3 
REMARK    2  A    between atoms: C_7  and  O_10 
REMARK    3  A    between atoms: O_10  and  C_21 
REMARK    4  A    between atoms: C_22  and  C_12 
REMARK    5  A    between atoms: C_21  and  C_22 
ROOT
ATOM      1  N   UNL d   1     -45.219  13.004  22.350  0.00  0.00    -0.273 N 
ATOM      2  C   UNL d   1     -45.683  12.489  22.800  0.00  0.00     0.067 A 
ATOM      3  C   UNL d   1     -44.488  12.754  22.061  0.00  0.00     0.265 C 
ATOM      4  C   UNL d   1     -46.414  12.739  23.090  0.00  0.00     0.016 A 
ATOM      5  O   UNL d   1     -44.221  11.991  22.220  0.00  0.00    -0.267 OA
ATOM      6  C   UNL d   1     -45.487  13.767  22.191  0.00  0.00     0.083 A 
ATOM      7  C   UNL d   1     -45.415  11.726  22.959  0.00  0.00     0.018 A 
ATOM      8  C   UNL d   1     -46.219  14.016  22.481  0.00  0.00     0.019 A 
ATOM      9  C   UNL d   1     -46.682  13.501  22.930  0.00  0.00     0.003 A 
ATOM     10  C   UNL d   1     -46.877  12.224  23.539  0.00  0.00     0.001 A 
ATOM     11  C   UNL d   1     -45.878  11.211  23.409  0.00  0.00     0.002 A 
ATOM     12  C   UNL d   1     -46.609  11.461  23.698  0.00  0.00     0.000 A 
ENDROOT
BRANCH   3  13
ATOM     13  C   UNL d   1     -44.025  13.269  21.611  0.00  0.00     0.063 C 
BRANCH  13  14
ATOM     14  C   UNL d   1     -43.228  13.098  21.479  0.00  0.00     0.032 C 
BRANCH  14  15
ATOM     15  C   UNL d   1     -42.731  13.674  21.162  0.00  0.00     0.123 C 
BRANCH  15  16
ATOM     16  O   UNL d   1     -41.912  13.592  21.226  0.00  0.00    -0.305 OA
BRANCH  16  17
ATOM     17  C   UNL d   1     -41.420  14.238  21.080  0.00  0.00     0.100 A 
ATOM     18  C   UNL d   1     -40.615  14.192  21.258  0.00  0.00     0.023 A 
ATOM     19  C   UNL d   1     -40.124  14.838  21.112  0.00  0.00     0.002 A 
ATOM     20  C   UNL d   1     -40.304  13.502  21.583  0.00  0.00     0.002 C 
ATOM     21  C   UNL d   1     -39.327  14.789  21.291  0.00  0.00     0.000 C 
ATOM     22  C   UNL d   1     -40.435  15.529  20.788  0.00  0.00     0.000 A 
ATOM     23  C   UNL d   1     -41.239  15.574  20.610  0.00  0.00     0.002 A 
ATOM     24  C   UNL d   1     -41.732  14.928  20.755  0.00  0.00     0.025 A 
ENDBRANCH  16  17
ENDBRANCH  15  16
ENDBRANCH  14  15
ENDBRANCH  13  14
ENDBRANCH   3  13
TORSDOF 5
ENDMDL
MODEL 5
REMARK VINA RESULT:      -3.4      8.070     10.913
REMARK  5 active torsions:
REMARK  status: ('A' for Active; 'I' for Inactive)
REMARK       I    between atoms: C_3  and  N_1 
REMARK    1  A    between atoms: C_12  and  C_3 
REMARK    2  A    between atoms: C_7  and  O_10 
REMARK    3  A    between atoms: O_10  and  C_21 
REMARK    4  A    between atoms: C_22  and  C_12 
REMARK    5  A    between atoms: C_21  and  C_22 
ROOT
ATOM      1  N   UNL d   1     -37.950  14.000  17.039  0.00  0.00    -0.273 N 
ATOM      2  C   UNL d   1     -37.948  13.993  16.213  0.00  0.00     0.067 A 
ATOM      3  C   UNL d   1     -37.946  14.718  17.444  0.00  0.00     0.265 C 
ATOM      4  C   UNL d   1     -37.952  13.274  15.807  0.00  0.00     0.016 A 
ATOM      5  O   UNL d   1     -37.940  15.428  17.026  0.00  0.00    -0.267 OA
ATOM      6  C   UNL d   1     -37.956  13.290  17.457  0.00  0.00     0.083 A 
ATOM      7  C   UNL d   1     -37.942  14.703  15.795  0.00  0.00     0.018 A 
ATOM      8  C   UNL d   1     -37.960  12.572  17.050  0.00  0.00     0.019 A 
ATOM      9  C   UNL d   1     -37.958  12.564  16.225  0.00  0.00     0.003 A 
ATOM     10  C   UNL d   1     -37.950  13.268  14.982  0.00  0.00     0.001 A 
ATOM     11  C   UNL d   1     -37.940  14.696  14.969  0.00  0.00     0.002 A 
ATOM     12  C   UNL d   1     -37.944  13.977  14.564  0.00  0.00     0.000 A 
ENDROOT
BRANCH   3  13
ATOM     13  C   UNL d   1     -37.948  14.726  18.270  0.00  0.00     0.063 C 
BRANCH  13  14
ATOM     14  C   UNL d   1     -38.215  15.393  18.676  0.00  0.00     0.032 C 
BRANCH  14  15
ATOM     15  C   UNL d   1     -38.555  15.312  19.423  0.00  0.00     0.123 C 
BRANCH  15  16
ATOM     16  O   UNL d   1     -39.348  15.514  19.538  0.00  0.00    -0.305 OA
BRANCH  16  17
ATOM     17  C   UNL d   1     -39.743  15.259  20.216  0.00  0.00     0.100 A 
ATOM     18  C   UNL d   1     -40.535  15.460  20.331  0.00  0.00     0.023 A 
ATOM     19  C   UNL d   1     -40.930  15.205  21.009  0.00  0.00     0.002 A 
ATOM     20  C   UNL d   1     -40.931  15.915  19.770  0.00  0.00     0.002 C 
ATOM     21  C   UNL d   1     -41.716  15.406  21.119  0.00  0.00     0.000 C 
ATOM     22  C   UNL d   1     -40.535  14.750  21.571  0.00  0.00     0.000 A 
ATOM     23  C   UNL d   1     -39.744  14.549  21.455  0.00  0.00     0.002 A 
ATOM     24  C   UNL d   1     -39.347  14.804  20.778  0.00  0.00     0.025 A 
ENDBRANCH  16  17
ENDBRANCH  15  16
ENDBRANCH  14  15
ENDBRANCH  13  14
ENDBRANCH   3  13
TORSDOF 5
ENDMDL
