MODEL 1
REMARK VINA RESULT:       2.2      0.000      0.000
REMARK  3 active torsions:
REMARK  status: ('A' for Active; 'I' for Inactive)
REMARK       I    between atoms: C_3  and  N_1 
REMARK    1  A    between atoms: C_9  and  C_3 
REMARK    2  A    between atoms: C_15  and  C_4 
REMARK    3  A    between atoms: N_5  and  C_8 
ROOT
ATOM      1  N   UNL d   1      32.768  20.348 -22.879  0.00  0.00    -0.269 N 
ATOM      2  C   UNL d   1      32.939  21.677 -22.721  0.00  0.00     0.036 A 
ATOM      3  C   UNL d   1      32.602  19.662 -22.448  0.00  0.00     0.265 C 
ATOM      4  C   UNL d   1      32.807  21.047 -22.459  0.00  0.00     0.069 A 
ATOM      5  C   UNL d   1      33.099  21.977 -23.488  0.00  0.00     0.086 A 
ATOM      6  N   UNL d   1      33.153  21.669 -24.139  0.00  0.00    -0.207 NA
ATOM      7  C   UNL d   1      33.061  20.873 -24.301  0.00  0.00     0.297 A 
ATOM      8  C   UNL d   1      32.883  20.261 -23.722  0.00  0.00     0.146 A 
ATOM      9  C   UNL d   1      32.918  22.207 -22.076  0.00  0.00     0.033 A 
ATOM     10  O   UNL d   1      32.482  19.699 -21.624  0.00  0.00    -0.267 OA
ATOM     11  O   UNL d   1      33.146  20.635 -25.093  0.00  0.00    -0.264 OA
ATOM     12  C   UNL d   1      33.235  22.791 -23.599  0.00  0.00     0.022 A 
ATOM     13  C   UNL d   1      33.054  23.022 -22.182  0.00  0.00     0.140 A 
ATOM     14  C   UNL d   1      33.214  23.312 -22.952  0.00  0.00     0.031 A 
ATOM     15  F   UNL d   1      33.031  23.529 -21.541  0.00  0.00    -0.204 F 
ENDROOT
BRANCH   3  16
ATOM     16  C   UNL d   1      32.554  18.935 -22.830  0.00  0.00     0.058 A 
ATOM     17  C   UNL d   1      31.820  18.591 -22.985  0.00  0.00     0.028 A 
ATOM     18  C   UNL d   1      31.785  17.874 -23.362  0.00  0.00     0.127 A 
ATOM     19  C   UNL d   1      32.475  17.485 -23.593  0.00  0.00     0.022 A 
ATOM     20  C   UNL d   1      33.200  17.820 -23.443  0.00  0.00     0.002 A 
ATOM     21  C   UNL d   1      32.424  16.755 -23.977  0.00  0.00     0.002 C 
ATOM     22  C   UNL d   1      33.240  18.548 -23.060  0.00  0.00     0.005 A 
BRANCH  18  23
ATOM     23  N   UNL d   1      31.051  17.530 -23.517  0.00  0.00    -0.114 N 
ATOM     24  O   UNL d   1      30.637  17.748 -24.182  0.00  0.00    -0.532 OA
ATOM     25  O   UNL d   1      30.747  16.972 -22.999  0.00  0.00    -0.532 OA
ENDBRANCH  18  23
ENDBRANCH   3  16
BRANCH   4  26
ATOM     26  C   UNL d   1      32.677  21.002 -21.652  0.00  0.00     0.016 A 
ATOM     27  C   UNL d   1      33.241  20.640 -21.163  0.00  0.00     0.004 A 
ATOM     28  C   UNL d   1      33.101  20.600 -20.351  0.00  0.00     0.030 A 
ATOM     29  C   UNL d   1      32.427  20.906 -20.030  0.00  0.00     0.140 A 
ATOM     30  C   UNL d   1      31.869  21.265 -20.522  0.00  0.00     0.030 A 
ATOM     31  F   UNL d   1      32.293  20.863 -19.221  0.00  0.00    -0.204 F 
ATOM     32  C   UNL d   1      31.990  21.314 -21.328  0.00  0.00     0.004 A 
ENDBRANCH   4  26
TORSDOF 3
ENDMDL
MODEL 2
REMARK VINA RESULT:       4.4      3.501      4.827
REMARK  3 active torsions:
REMARK  status: ('A' for Active; 'I' for Inactive)
REMARK       I    between atoms: C_3  and  N_1 
REMARK    1  A    between atoms: C_9  and  C_3 
REMARK    2  A    between atoms: C_15  and  C_4 
REMARK    3  A    between atoms: N_5  and  C_8 
ROOT
ATOM      1  N   UNL d   1      30.112  17.349 -24.303  0.00  0.00    -0.269 N 
ATOM      2  C   UNL d   1      31.126  18.201 -24.558  0.00  0.00     0.036 A 
ATOM      3  C   UNL d   1      29.963  16.591 -24.007  0.00  0.00     0.265 C 
ATOM      4  C   UNL d   1      30.892  17.588 -24.328  0.00  0.00     0.069 A 
ATOM      5  C   UNL d   1      30.767  18.891 -24.873  0.00  0.00     0.086 A 
ATOM      6  N   UNL d   1      30.082  19.074 -25.013  0.00  0.00    -0.207 NA
ATOM      7  C   UNL d   1      29.426  18.605 -24.882  0.00  0.00     0.297 A 
ATOM      8  C   UNL d   1      29.436  17.808 -24.555  0.00  0.00     0.146 A 
ATOM      9  C   UNL d   1      31.956  18.181 -24.471  0.00  0.00     0.033 A 
ATOM     10  O   UNL d   1      30.591  16.107 -23.750  0.00  0.00    -0.267 OA
ATOM     11  O   UNL d   1      28.685  18.925 -25.083  0.00  0.00    -0.264 OA
ATOM     12  C   UNL d   1      31.236  19.542 -25.096  0.00  0.00     0.022 A 
ATOM     13  C   UNL d   1      32.429  18.829 -24.692  0.00  0.00     0.140 A 
ATOM     14  C   UNL d   1      32.062  19.514 -25.007  0.00  0.00     0.031 A 
ATOM     15  F   UNL d   1      33.241  18.795 -24.602  0.00  0.00    -0.204 F 
ENDROOT
BRANCH   3  16
ATOM     16  C   UNL d   1      29.192  16.308 -23.963  0.00  0.00     0.058 A 
ATOM     17  C   UNL d   1      28.750  16.399 -23.272  0.00  0.00     0.028 A 
ATOM     18  C   UNL d   1      27.991  16.116 -23.242  0.00  0.00     0.127 A 
ATOM     19  C   UNL d   1      27.655  15.737 -23.893  0.00  0.00     0.022 A 
ATOM     20  C   UNL d   1      28.086  15.645 -24.576  0.00  0.00     0.002 A 
ATOM     21  C   UNL d   1      26.881  15.454 -23.847  0.00  0.00     0.002 C 
ATOM     22  C   UNL d   1      28.858  15.931 -24.612  0.00  0.00     0.005 A 
BRANCH  18  23
ATOM     23  N   UNL d   1      27.550  16.207 -22.551  0.00  0.00    -0.114 N 
ATOM     24  O   UNL d   1      27.085  16.867 -22.455  0.00  0.00    -0.532 OA
ATOM     25  O   UNL d   1      27.584  15.631 -21.968  0.00  0.00    -0.532 OA
ENDBRANCH  18  23
ENDBRANCH   3  16
BRANCH   4  26
ATOM     26  C   UNL d   1      31.451  17.056 -24.058  0.00  0.00     0.016 A 
ATOM     27  C   UNL d   1      31.654  17.042 -23.254  0.00  0.00     0.004 A 
ATOM     28  C   UNL d   1      32.219  16.501 -22.991  0.00  0.00     0.030 A 
ATOM     29  C   UNL d   1      32.575  15.991 -23.505  0.00  0.00     0.140 A 
ATOM     30  C   UNL d   1      32.369  16.009 -24.305  0.00  0.00     0.030 A 
ATOM     31  F   UNL d   1      33.137  15.454 -23.238  0.00  0.00    -0.204 F 
ATOM     32  C   UNL d   1      31.812  16.537 -24.583  0.00  0.00     0.004 A 
ENDBRANCH   4  26
TORSDOF 3
ENDMDL
MODEL 3
REMARK VINA RESULT:       4.7      1.111      2.505
REMARK  3 active torsions:
REMARK  status: ('A' for Active; 'I' for Inactive)
REMARK       I    between atoms: C_3  and  N_1 
REMARK    1  A    between atoms: C_9  and  C_3 
REMARK    2  A    between atoms: C_15  and  C_4 
REMARK    3  A    between atoms: N_5  and  C_8 
ROOT
ATOM      1  N   UNL d   1      32.785  20.503 -22.341  0.00  0.00    -0.269 N 
ATOM      2  C   UNL d   1      32.922  21.444 -21.385  0.00  0.00     0.036 A 
ATOM      3  C   UNL d   1      32.621  20.419 -23.147  0.00  0.00     0.265 C 
ATOM      4  C   UNL d   1      32.796  21.263 -22.043  0.00  0.00     0.069 A 
ATOM      5  C   UNL d   1      33.100  21.026 -20.680  0.00  0.00     0.086 A 
ATOM      6  N   UNL d   1      33.180  20.325 -20.526  0.00  0.00    -0.207 NA
ATOM      7  C   UNL d   1      33.111  19.708 -21.058  0.00  0.00     0.297 A 
ATOM      8  C   UNL d   1      32.928  19.787 -21.896  0.00  0.00     0.146 A 
ATOM      9  C   UNL d   1      32.870  22.278 -21.359  0.00  0.00     0.033 A 
ATOM     10  O   UNL d   1      32.475  21.090 -23.620  0.00  0.00    -0.267 OA
ATOM     11  O   UNL d   1      33.226  18.939 -20.763  0.00  0.00    -0.264 OA
ATOM     12  C   UNL d   1      33.222  21.440 -19.967  0.00  0.00     0.022 A 
ATOM     13  C   UNL d   1      32.992  22.696 -20.648  0.00  0.00     0.140 A 
ATOM     14  C   UNL d   1      33.169  22.269 -19.949  0.00  0.00     0.031 A 
ATOM     15  F   UNL d   1      32.938  23.511 -20.637  0.00  0.00    -0.204 F 
ENDROOT
BRANCH   3  16
ATOM     16  C   UNL d   1      32.600  19.672 -23.489  0.00  0.00     0.058 A 
ATOM     17  C   UNL d   1      31.955  19.172 -23.365  0.00  0.00     0.028 A 
ATOM     18  C   UNL d   1      31.946  18.437 -23.709  0.00  0.00     0.127 A 
ATOM     19  C   UNL d   1      32.574  18.184 -24.180  0.00  0.00     0.022 A 
ATOM     20  C   UNL d   1      33.211  18.673 -24.305  0.00  0.00     0.002 A 
ATOM     21  C   UNL d   1      32.551  17.433 -24.523  0.00  0.00     0.002 C 
ATOM     22  C   UNL d   1      33.224  19.420 -23.959  0.00  0.00     0.005 A 
BRANCH  18  23
ATOM     23  N   UNL d   1      31.302  17.937 -23.585  0.00  0.00    -0.114 N 
ATOM     24  O   UNL d   1      31.416  17.213 -23.233  0.00  0.00    -0.532 OA
ATOM     25  O   UNL d   1      30.552  18.175 -23.817  0.00  0.00    -0.532 OA
ENDBRANCH  18  23
ENDBRANCH   3  16
BRANCH   4  26
ATOM     26  C   UNL d   1      32.642  21.869 -22.571  0.00  0.00     0.016 A 
ATOM     27  C   UNL d   1      31.883  22.199 -22.613  0.00  0.00     0.004 A 
ATOM     28  C   UNL d   1      31.738  22.810 -23.149  0.00  0.00     0.030 A 
ATOM     29  C   UNL d   1      32.324  23.088 -23.629  0.00  0.00     0.140 A 
ATOM     30  C   UNL d   1      33.080  22.755 -23.583  0.00  0.00     0.030 A 
ATOM     31  F   UNL d   1      32.176  23.696 -24.161  0.00  0.00    -0.204 F 
ATOM     32  C   UNL d   1      33.241  22.150 -23.059  0.00  0.00     0.004 A 
ENDBRANCH   4  26
TORSDOF 3
ENDMDL
