MODEL 1
REMARK VINA RESULT:      78.3      0.000      0.000
REMARK  3 active torsions:
REMARK  status: ('A' for Active; 'I' for Inactive)
REMARK    1  A    between atoms: N_5  and  C_1 
REMARK    2  A    between atoms: C_2  and  C_6 
REMARK       I    between atoms: C_11  and  N_5 
REMARK    3  A    between atoms: C_9  and  C_11 
ROOT
ATOM      1  C   UNL d   1     -55.531-100.830 -43.461  0.00  0.00     0.053 A 
ATOM      2  S   UNL d   1     -55.281-100.087 -43.728  0.00  0.00    -0.080 SA
ATOM      3  C   UNL d   1     -55.557 -99.992 -44.504  0.00  0.00     0.087 A 
ATOM      4  C   UNL d   1     -55.958-101.191 -44.067  0.00  0.00     0.009 A 
ATOM      5  C   UNL d   1     -55.975-100.674 -44.713  0.00  0.00     0.012 A 
ENDROOT
BRANCH   3   6
ATOM      6  C   UNL d   1     -55.433 -99.329 -44.983  0.00  0.00     0.287 C 
ATOM      7  N   UNL d   1     -56.022 -98.757 -45.046  0.00  0.00    -0.182 NA
ATOM      8  O   UNL d   1     -54.721 -99.243 -45.395  0.00  0.00    -0.265 OA
BRANCH   7   9
ATOM      9  C   UNL d   1     -56.737 -98.845 -44.632  0.00  0.00     0.197 A 
ATOM     10  N   UNL d   1     -57.468 -99.033 -44.965  0.00  0.00    -0.221 NA
ATOM     11  C   UNL d   1     -58.017 -99.062 -44.357  0.00  0.00     0.090 A 
ATOM     12  C   UNL d   1     -58.821 -99.222 -44.361  0.00  0.00     0.020 A 
ATOM     13  C   UNL d   1     -57.619 -98.891 -43.660  0.00  0.00     0.050 A 
ATOM     14  C   UNL d   1     -59.230 -99.210 -43.654  0.00  0.00     0.002 A 
ATOM     15  C   UNL d   1     -58.852 -99.042 -42.949  0.00  0.00     0.001 A 
ATOM     16  C   UNL d   1     -58.043 -98.880 -42.934  0.00  0.00     0.008 A 
ATOM     17  C   UNL d   1     -59.271 -99.031 -42.237  0.00  0.00     0.000 C 
ATOM     18  S   UNL d   1     -56.831 -98.757 -43.824  0.00  0.00    -0.047 SA
ENDBRANCH   7   9
ENDBRANCH   3   6
BRANCH   1  19
ATOM     19  C   UNL d   1     -55.379-101.153 -42.715  0.00  0.00     0.117 A 
ATOM     20  N   UNL d   1     -55.065-100.743 -42.071  0.00  0.00    -0.238 NA
ATOM     21  C   UNL d   1     -55.006-101.280 -41.441  0.00  0.00     0.088 A 
ATOM     22  C   UNL d   1     -54.736-101.192 -40.667  0.00  0.00     0.020 A 
ATOM     23  C   UNL d   1     -55.283-102.014 -41.702  0.00  0.00     0.049 A 
ATOM     24  C   UNL d   1     -54.744-101.835 -40.157  0.00  0.00     0.002 A 
ATOM     25  C   UNL d   1     -55.021-102.570 -40.418  0.00  0.00     0.001 A 
ATOM     26  C   UNL d   1     -55.290-102.659 -41.189  0.00  0.00     0.008 A 
ATOM     27  S   UNL d   1     -55.514-101.932 -42.494  0.00  0.00    -0.066 SA
ENDBRANCH   1  19
TORSDOF 3
ENDMDL
