MODEL 1
REMARK VINA RESULT:      32.7      0.000      0.000
REMARK  4 active torsions:
REMARK  status: ('A' for Active; 'I' for Inactive)
REMARK    1  A    between atoms: C_7  and  C_1 
REMARK    2  A    between atoms: C_8  and  C_4 
REMARK    3  A    between atoms: O_9  and  C_7 
REMARK    4  A    between atoms: C_16  and  O_9 
ROOT
ATOM      1  C   UNL d   1      46.079 -18.133  42.551  0.00  0.00     0.098 A 
ATOM      2  C   UNL d   1      46.088 -17.825  41.785  0.00  0.00     0.075 A 
ATOM      3  C   UNL d   1      46.456 -19.109  41.274  0.00  0.00     0.354 A 
ATOM      4  C   UNL d   1      46.258 -18.920  42.657  0.00  0.00     0.093 A 
ATOM      5  N   UNL d   1      46.277 -18.305  41.126  0.00  0.00    -0.256 N 
ATOM      6  N   UNL d   1      46.447 -19.417  42.040  0.00  0.00    -0.192 NA
ATOM      7  O   UNL d   1      46.646 -19.594  40.613  0.00  0.00    -0.244 OA
ATOM      8  C   UNL d   1      45.910 -17.021  41.637  0.00  0.00     0.019 C 
ATOM      9  C   UNL d   1      46.286 -17.998  40.360  0.00  0.00     0.104 C 
ENDROOT
BRANCH   1  10
ATOM     10  C   UNL d   1      45.891 -17.636  43.168  0.00  0.00     0.303 C 
ATOM     11  O   UNL d   1      45.138 -17.687  43.501  0.00  0.00    -0.259 OA
BRANCH  10  12
ATOM     12  O   UNL d   1      46.415 -17.091  43.471  0.00  0.00    -0.273 OA
BRANCH  12  13
ATOM     13  C   UNL d   1      46.175 -16.399  43.826  0.00  0.00     0.103 A 
ATOM     14  C   UNL d   1      45.684 -16.444  44.488  0.00  0.00     0.025 A 
ATOM     15  C   UNL d   1      45.360 -15.819  44.953  0.00  0.00     0.002 A 
ATOM     16  C   UNL d   1      45.471 -15.021  44.838  0.00  0.00     0.000 A 
ATOM     17  C   UNL d   1      45.896 -14.616  44.283  0.00  0.00     0.000 A 
ATOM     18  C   UNL d   1      46.355 -14.940  43.647  0.00  0.00     0.002 A 
ATOM     19  C   UNL d   1      46.462 -15.718  43.468  0.00  0.00     0.025 A 
ENDBRANCH  12  13
ENDBRANCH  10  12
ENDBRANCH   1  10
BRANCH   4  20
ATOM     20  C   UNL d   1      46.249 -19.228  43.423  0.00  0.00     0.023 A 
ATOM     21  C   UNL d   1      45.846 -19.939  43.601  0.00  0.00     0.032 A 
ATOM     22  I   UNL d   1      45.453 -20.326  42.972  0.00  0.00    -0.043 I 
ATOM     23  C   UNL d   1      45.836 -20.246  44.366  0.00  0.00     0.006 A 
ATOM     24  C   UNL d   1      46.228 -19.846  44.952  0.00  0.00     0.000 A 
ATOM     25  C   UNL d   1      46.630 -19.147  44.804  0.00  0.00     0.000 A 
ATOM     26  C   UNL d   1      46.640 -18.839  44.038  0.00  0.00     0.002 A 
ENDBRANCH   4  20
TORSDOF 4
ENDMDL
