MODEL 1
REMARK VINA RESULT:      31.3      0.000      0.000
REMARK  2 active torsions:
REMARK  status: ('A' for Active; 'I' for Inactive)
REMARK    1  A    between atoms: C_9  and  C_3 
REMARK    2  A    between atoms: C_12  and  N_4 
ROOT
ATOM      1  C   UNL d   1     -50.482  25.554  33.397  0.00  0.00     0.035 A 
ATOM      2  C   UNL d   1     -50.931  24.862  33.372  0.00  0.00     0.065 A 
ATOM      3  C   UNL d   1     -50.998  26.190  33.429  0.00  0.00     0.166 A 
ATOM      4  N   UNL d   1     -51.724  25.078  33.389  0.00  0.00    -0.233 N 
ATOM      5  N   UNL d   1     -51.764  25.898  33.424  0.00  0.00    -0.159 NA
ATOM      6  C   UNL d   1     -50.304  24.479  33.350  0.00  0.00     0.057 A 
ATOM      7  C   UNL d   1     -49.776  25.169  33.374  0.00  0.00    -0.020 A 
ATOM      8  C   UNL d   1     -49.041  25.381  33.376  0.00  0.00     0.027 A 
ATOM      9  C   UNL d   1     -50.170  23.693  33.315  0.00  0.00    -0.021 A 
ATOM     10  C   UNL d   1     -49.742  24.320  33.338  0.00  0.00    -0.008 A 
ATOM     11  C   UNL d   1     -50.829  23.949  33.333  0.00  0.00     0.011 C 
ATOM     12  C   UNL d   1     -48.847  26.103  33.404  0.00  0.00     0.005 C 
ATOM     13  C   UNL d   1     -48.315  25.196  33.361  0.00  0.00     0.005 C 
ENDROOT
BRANCH   4  14
ATOM     14  C   UNL d   1     -52.381  24.549  33.373  0.00  0.00     0.083 A 
ATOM     15  C   UNL d   1     -53.170  24.862  33.324  0.00  0.00     0.019 A 
ATOM     16  C   UNL d   1     -53.821  24.333  33.308  0.00  0.00     0.002 A 
ATOM     17  C   UNL d   1     -53.696  23.503  33.341  0.00  0.00     0.000 A 
ATOM     18  C   UNL d   1     -52.904  23.194  33.391  0.00  0.00     0.002 A 
ATOM     19  C   UNL d   1     -52.256  23.726  33.406  0.00  0.00     0.019 A 
ENDBRANCH   4  14
BRANCH   3  20
ATOM     20  C   UNL d   1     -50.776  27.000  33.461  0.00  0.00     0.231 C 
ATOM     21  O   UNL d   1     -49.967  27.231  33.372  0.00  0.00    -0.643 OA
ATOM     22  O   UNL d   1     -51.372  27.589  33.584  0.00  0.00    -0.643 OA
ENDBRANCH   3  20
TORSDOF 2
ENDMDL
