MODEL 1
REMARK VINA RESULT:     -12.0      0.000      0.000
REMARK  3 active torsions:
REMARK  status: ('A' for Active; 'I' for Inactive)
REMARK    1  A    between atoms: N_2  and  S_1 
REMARK    2  A    between atoms: C_5  and  S_1 
REMARK    3  A    between atoms: C_4  and  C_3 
REMARK       I    between atoms: N_8  and  C_4 
ROOT
ATOM      1  N   UNL d   1      53.739  31.946  53.900  0.00  0.00    -0.226 N 
ATOM      2  C   UNL d   1      53.236  32.116  53.278  0.00  0.00     0.131 A 
ATOM      3  C   UNL d   1      53.814  31.161  54.154  0.00  0.00     0.092 A 
ATOM      4  C   UNL d   1      52.810  31.517  52.909  0.00  0.00     0.023 A 
ATOM      5  C   UNL d   1      53.393  30.569  53.790  0.00  0.00     0.018 A 
ATOM      6  C   UNL d   1      52.886  30.747  53.161  0.00  0.00     0.003 A 
ATOM      7  C   UNL d   1      53.462  29.787  54.038  0.00  0.00     0.002 A 
ATOM      8  C   UNL d   1      52.454  30.160  52.784  0.00  0.00     0.000 A 
ATOM      9  C   UNL d   1      52.527  29.377  53.035  0.00  0.00     0.000 A 
ATOM     10  C   UNL d   1      53.033  29.189  53.666  0.00  0.00     0.000 A 
ENDROOT
BRANCH   2  11
ATOM     11  C   UNL d   1      53.161  32.901  53.023  0.00  0.00     0.282 C 
ATOM     12  N   UNL d   1      52.419  33.265  53.022  0.00  0.00    -0.271 N 
ATOM     13  C   UNL d   1      51.797  32.799  53.283  0.00  0.00     0.083 A 
ATOM     14  C   UNL d   1      52.407  34.050  52.757  0.00  0.00     0.083 A 
ATOM     15  C   UNL d   1      50.995  32.995  53.348  0.00  0.00     0.019 A 
ATOM     16  C   UNL d   1      50.627  33.702  53.168  0.00  0.00     0.002 A 
ATOM     17  C   UNL d   1      50.959  34.401  52.876  0.00  0.00     0.002 A 
ATOM     18  C   UNL d   1      51.756  34.554  52.693  0.00  0.00     0.019 A 
ATOM     19  O   UNL d   1      53.818  33.324  52.771  0.00  0.00    -0.265 OA
ENDBRANCH   2  11
BRANCH   1  20
ATOM     20  S   UNL d   1      54.168  32.544  54.272  0.00  0.00     0.277 S 
ATOM     21  O   UNL d   1      53.621  32.506  54.885  0.00  0.00    -0.199 OA
ATOM     22  O   UNL d   1      54.713  32.575  53.652  0.00  0.00    -0.199 OA
BRANCH  20  23
ATOM     23  C   UNL d   1      54.587  33.142  54.657  0.00  0.00     0.133 A 
ATOM     24  S   UNL d   1      54.395  33.472  55.384  0.00  0.00    -0.074 SA
ATOM     25  C   UNL d   1      54.955  34.048  55.563  0.00  0.00     0.036 A 
ATOM     26  C   UNL d   1      55.502  34.076  54.940  0.00  0.00     0.008 A 
ATOM     27  C   UNL d   1      55.270  33.513  54.380  0.00  0.00     0.020 A 
ENDBRANCH  20  23
ENDBRANCH   1  20
TORSDOF 3
ENDMDL
MODEL 2
REMARK VINA RESULT:     -11.2      1.236      3.796
REMARK  3 active torsions:
REMARK  status: ('A' for Active; 'I' for Inactive)
REMARK    1  A    between atoms: N_2  and  S_1 
REMARK    2  A    between atoms: C_5  and  S_1 
REMARK    3  A    between atoms: C_4  and  C_3 
REMARK       I    between atoms: N_8  and  C_4 
ROOT
ATOM      1  N   UNL d   1      52.928  33.547  53.729  0.00  0.00    -0.226 N 
ATOM      2  C   UNL d   1      53.376  32.887  53.546  0.00  0.00     0.131 A 
ATOM      3  C   UNL d   1      53.228  34.100  54.268  0.00  0.00     0.092 A 
ATOM      4  C   UNL d   1      54.113  32.774  53.892  0.00  0.00     0.023 A 
ATOM      5  C   UNL d   1      53.957  33.988  54.609  0.00  0.00     0.018 A 
ATOM      6  C   UNL d   1      54.405  33.319  54.421  0.00  0.00     0.003 A 
ATOM      7  C   UNL d   1      54.261  34.534  55.146  0.00  0.00     0.002 A 
ATOM      8  C   UNL d   1      55.142  33.192  54.758  0.00  0.00     0.000 A 
ATOM      9  C   UNL d   1      55.444  33.742  55.295  0.00  0.00     0.000 A 
ATOM     10  C   UNL d   1      55.001  34.417  55.490  0.00  0.00     0.000 A 
ENDROOT
BRANCH   2  11
ATOM     11  C   UNL d   1      53.076  32.333  53.008  0.00  0.00     0.282 C 
ATOM     12  N   UNL d   1      53.060  31.531  53.208  0.00  0.00    -0.271 N 
ATOM     13  C   UNL d   1      53.353  31.346  53.950  0.00  0.00     0.083 A 
ATOM     14  C   UNL d   1      52.749  31.026  52.629  0.00  0.00     0.083 A 
ATOM     15  C   UNL d   1      53.415  30.604  54.313  0.00  0.00     0.019 A 
ATOM     16  C   UNL d   1      53.197  29.873  54.018  0.00  0.00     0.002 A 
ATOM     17  C   UNL d   1      52.861  29.688  53.286  0.00  0.00     0.002 A 
ATOM     18  C   UNL d   1      52.661  30.206  52.666  0.00  0.00     0.019 A 
ATOM     19  O   UNL d   1      52.794  32.572  52.276  0.00  0.00    -0.265 OA
ENDBRANCH   2  11
BRANCH   1  20
ATOM     20  S   UNL d   1      52.189  33.664  53.385  0.00  0.00     0.277 S 
ATOM     21  O   UNL d   1      51.859  33.348  54.069  0.00  0.00    -0.199 OA
ATOM     22  O   UNL d   1      52.528  33.980  52.701  0.00  0.00    -0.199 OA
BRANCH  20  23
ATOM     23  C   UNL d   1      51.440  33.776  53.052  0.00  0.00     0.133 A 
ATOM     24  S   UNL d   1      51.278  34.195  52.365  0.00  0.00    -0.074 SA
ATOM     25  C   UNL d   1      50.466  34.169  52.232  0.00  0.00     0.036 A 
ATOM     26  C   UNL d   1      50.120  33.729  52.845  0.00  0.00     0.008 A 
ATOM     27  C   UNL d   1      50.728  33.487  53.351  0.00  0.00     0.020 A 
ENDBRANCH  20  23
ENDBRANCH   1  20
TORSDOF 3
ENDMDL
MODEL 3
REMARK VINA RESULT:     -10.9      1.170      2.856
REMARK  3 active torsions:
REMARK  status: ('A' for Active; 'I' for Inactive)
REMARK    1  A    between atoms: N_2  and  S_1 
REMARK    2  A    between atoms: C_5  and  S_1 
REMARK    3  A    between atoms: C_4  and  C_3 
REMARK       I    between atoms: N_8  and  C_4 
ROOT
ATOM      1  N   UNL d   1      52.530  32.064  53.139  0.00  0.00    -0.226 N 
ATOM      2  C   UNL d   1      53.321  32.119  53.341  0.00  0.00     0.131 A 
ATOM      3  C   UNL d   1      52.170  31.319  53.116  0.00  0.00     0.092 A 
ATOM      4  C   UNL d   1      53.753  31.442  53.520  0.00  0.00     0.023 A 
ATOM      5  C   UNL d   1      52.597  30.651  53.293  0.00  0.00     0.018 A 
ATOM      6  C   UNL d   1      53.396  30.711  53.497  0.00  0.00     0.003 A 
ATOM      7  C   UNL d   1      52.246  29.906  53.272  0.00  0.00     0.002 A 
ATOM      8  C   UNL d   1      53.841  30.046  53.678  0.00  0.00     0.000 A 
ATOM      9  C   UNL d   1      53.485  29.300  53.656  0.00  0.00     0.000 A 
ATOM     10  C   UNL d   1      52.683  29.231  53.452  0.00  0.00     0.000 A 
ENDROOT
BRANCH   2  11
ATOM     11  C   UNL d   1      53.681  32.864  53.364  0.00  0.00     0.282 C 
ATOM     12  N   UNL d   1      54.030  33.132  54.064  0.00  0.00    -0.271 N 
ATOM     13  C   UNL d   1      53.987  32.617  54.700  0.00  0.00     0.083 A 
ATOM     14  C   UNL d   1      54.374  33.885  54.026  0.00  0.00     0.083 A 
ATOM     15  C   UNL d   1      54.278  32.717  55.468  0.00  0.00     0.019 A 
ATOM     16  C   UNL d   1      54.680  33.356  55.782  0.00  0.00     0.002 A 
ATOM     17  C   UNL d   1      54.898  34.064  55.414  0.00  0.00     0.002 A 
ATOM     18  C   UNL d   1      54.760  34.298  54.627  0.00  0.00     0.019 A 
ATOM     19  O   UNL d   1      53.696  33.342  52.697  0.00  0.00    -0.265 OA
ENDBRANCH   2  11
BRANCH   1  20
ATOM     20  S   UNL d   1      52.094  32.740  52.959  0.00  0.00     0.277 S 
ATOM     21  O   UNL d   1      51.771  32.690  53.714  0.00  0.00    -0.199 OA
ATOM     22  O   UNL d   1      52.422  32.783  52.202  0.00  0.00    -0.199 OA
BRANCH  20  23
ATOM     23  C   UNL d   1      51.649  33.417  52.793  0.00  0.00     0.133 A 
ATOM     24  S   UNL d   1      51.091  33.758  53.288  0.00  0.00    -0.074 SA
ATOM     25  C   UNL d   1      50.780  34.420  52.911  0.00  0.00     0.036 A 
ATOM     26  C   UNL d   1      51.150  34.491  52.172  0.00  0.00     0.008 A 
ATOM     27  C   UNL d   1      51.688  33.867  52.103  0.00  0.00     0.020 A 
ENDBRANCH  20  23
ENDBRANCH   1  20
TORSDOF 3
ENDMDL
MODEL 4
REMARK VINA RESULT:     -10.4      1.080      3.643
REMARK  3 active torsions:
REMARK  status: ('A' for Active; 'I' for Inactive)
REMARK    1  A    between atoms: N_2  and  S_1 
REMARK    2  A    between atoms: C_5  and  S_1 
REMARK    3  A    between atoms: C_4  and  C_3 
REMARK       I    between atoms: N_8  and  C_4 
ROOT
ATOM      1  N   UNL d   1      52.315  32.403  53.144  0.00  0.00    -0.226 N 
ATOM      2  C   UNL d   1      52.823  33.043  53.181  0.00  0.00     0.131 A 
ATOM      3  C   UNL d   1      51.505  32.536  53.033  0.00  0.00     0.092 A 
ATOM      4  C   UNL d   1      52.533  33.809  53.109  0.00  0.00     0.023 A 
ATOM      5  C   UNL d   1      51.220  33.293  52.962  0.00  0.00     0.018 A 
ATOM      6  C   UNL d   1      51.737  33.937  53.000  0.00  0.00     0.003 A 
ATOM      7  C   UNL d   1      50.415  33.433  52.852  0.00  0.00     0.002 A 
ATOM      8  C   UNL d   1      51.463  34.708  52.931  0.00  0.00     0.000 A 
ATOM      9  C   UNL d   1      50.656  34.844  52.820  0.00  0.00     0.000 A 
ATOM     10  C   UNL d   1      50.129  34.203  52.780  0.00  0.00     0.000 A 
ENDROOT
BRANCH   2  11
ATOM     11  C   UNL d   1      53.633  32.910  53.292  0.00  0.00     0.282 C 
ATOM     12  N   UNL d   1      54.021  33.249  53.939  0.00  0.00    -0.271 N 
ATOM     13  C   UNL d   1      53.553  33.705  54.433  0.00  0.00     0.083 A 
ATOM     14  C   UNL d   1      54.830  33.080  53.997  0.00  0.00     0.083 A 
ATOM     15  C   UNL d   1      53.769  34.114  55.119  0.00  0.00     0.019 A 
ATOM     16  C   UNL d   1      54.505  34.164  55.472  0.00  0.00     0.002 A 
ATOM     17  C   UNL d   1      55.219  33.820  55.235  0.00  0.00     0.002 A 
ATOM     18  C   UNL d   1      55.362  33.335  54.574  0.00  0.00     0.019 A 
ATOM     19  O   UNL d   1      54.056  32.444  52.766  0.00  0.00    -0.265 OA
ENDBRANCH   2  11
BRANCH   1  20
ATOM     20  S   UNL d   1      52.601  31.633  53.215  0.00  0.00     0.277 S 
ATOM     21  O   UNL d   1      52.376  31.660  54.006  0.00  0.00    -0.199 OA
ATOM     22  O   UNL d   1      52.825  31.613  52.420  0.00  0.00    -0.199 OA
BRANCH  20  23
ATOM     23  C   UNL d   1      52.884  30.861  53.302  0.00  0.00     0.133 A 
ATOM     24  S   UNL d   1      53.020  30.328  52.693  0.00  0.00    -0.074 SA
ATOM     25  C   UNL d   1      53.299  29.626  53.019  0.00  0.00     0.036 A 
ATOM     26  C   UNL d   1      53.337  29.725  53.843  0.00  0.00     0.008 A 
ATOM     27  C   UNL d   1      53.079  30.492  54.013  0.00  0.00     0.020 A 
ENDBRANCH  20  23
ENDBRANCH   1  20
TORSDOF 3
ENDMDL
MODEL 5
REMARK VINA RESULT:     -10.2      0.831      3.073
REMARK  3 active torsions:
REMARK  status: ('A' for Active; 'I' for Inactive)
REMARK    1  A    between atoms: N_2  and  S_1 
REMARK    2  A    between atoms: C_5  and  S_1 
REMARK    3  A    between atoms: C_4  and  C_3 
REMARK       I    between atoms: N_8  and  C_4 
ROOT
ATOM      1  N   UNL d   1      52.843  33.569  53.706  0.00  0.00    -0.226 N 
ATOM      2  C   UNL d   1      52.765  32.972  53.153  0.00  0.00     0.131 A 
ATOM      3  C   UNL d   1      52.257  34.153  53.755  0.00  0.00     0.092 A 
ATOM      4  C   UNL d   1      52.114  32.950  52.651  0.00  0.00     0.023 A 
ATOM      5  C   UNL d   1      51.614  34.131  53.259  0.00  0.00     0.018 A 
ATOM      6  C   UNL d   1      51.540  33.525  52.702  0.00  0.00     0.003 A 
ATOM      7  C   UNL d   1      51.027  34.708  53.302  0.00  0.00     0.002 A 
ATOM      8  C   UNL d   1      50.895  33.489  52.194  0.00  0.00     0.000 A 
ATOM      9  C   UNL d   1      50.309  34.070  52.241  0.00  0.00     0.000 A 
ATOM     10  C   UNL d   1      50.375  34.682  52.798  0.00  0.00     0.000 A 
ENDROOT
BRANCH   2  11
ATOM     11  C   UNL d   1      53.351  32.388  53.104  0.00  0.00     0.282 C 
ATOM     12  N   UNL d   1      53.147  31.592  53.190  0.00  0.00    -0.271 N 
ATOM     13  C   UNL d   1      52.353  31.442  53.321  0.00  0.00     0.083 A 
ATOM     14  C   UNL d   1      53.776  31.055  53.131  0.00  0.00     0.083 A 
ATOM     15  C   UNL d   1      51.973  30.715  53.430  0.00  0.00     0.019 A 
ATOM     16  C   UNL d   1      52.299  29.965  53.432  0.00  0.00     0.002 A 
ATOM     17  C   UNL d   1      53.089  29.742  53.327  0.00  0.00     0.002 A 
ATOM     18  C   UNL d   1      53.748  30.232  53.193  0.00  0.00     0.019 A 
ATOM     19  O   UNL d   1      54.134  32.593  52.970  0.00  0.00    -0.265 OA
ENDBRANCH   2  11
BRANCH   1  20
ATOM     20  S   UNL d   1      53.495  33.595  54.210  0.00  0.00     0.277 S 
ATOM     21  O   UNL d   1      53.011  33.275  54.794  0.00  0.00    -0.199 OA
ATOM     22  O   UNL d   1      53.974  33.917  53.619  0.00  0.00    -0.199 OA
BRANCH  20  23
ATOM     23  C   UNL d   1      54.139  33.614  54.727  0.00  0.00     0.133 A 
ATOM     24  S   UNL d   1      54.857  33.988  54.586  0.00  0.00    -0.074 SA
ATOM     25  C   UNL d   1      55.342  33.872  55.241  0.00  0.00     0.036 A 
ATOM     26  C   UNL d   1      54.919  33.421  55.796  0.00  0.00     0.008 A 
ATOM     27  C   UNL d   1      54.175  33.264  55.473  0.00  0.00     0.020 A 
ENDBRANCH  20  23
ENDBRANCH   1  20
TORSDOF 3
ENDMDL
