MODEL 1
REMARK VINA RESULT:      67.4      0.000      0.000
REMARK  2 active torsions:
REMARK  status: ('A' for Active; 'I' for Inactive)
REMARK    1  A    between atoms: N_9  and  C_3 
REMARK    2  A    between atoms: C_11  and  C_4 
ROOT
ATOM      1  N   UNL d   1     -54.850-101.603 -40.384  0.00  0.00    -0.196 N 
ATOM      2  C   UNL d   1     -54.821-101.230 -41.123  0.00  0.00     0.167 A 
ATOM      3  C   UNL d   1     -54.834-101.144 -39.692  0.00  0.00     0.153 A 
ATOM      4  C   UNL d   1     -54.836-101.672 -41.810  0.00  0.00     0.057 A 
ATOM      5  N   UNL d   1     -54.909-102.880 -41.022  0.00  0.00    -0.161 NA
ATOM      6  N   UNL d   1     -54.778-100.408 -41.168  0.00  0.00    -0.227 NA
ATOM      7  C   UNL d   1     -54.791-100.331 -39.747  0.00  0.00     0.057 A 
ATOM      8  C   UNL d   1     -54.880-102.502 -41.760  0.00  0.00     0.124 A 
ATOM      9  C   UNL d   1     -54.763 -99.961 -40.488  0.00  0.00     0.086 A 
ATOM     10  C   UNL d   1     -54.719 -99.139 -40.533  0.00  0.00     0.021 C 
ENDROOT
BRANCH   4  11
ATOM     11  C   UNL d   1     -54.807-101.304 -42.548  0.00  0.00     0.004 A 
ATOM     12  C   UNL d   1     -54.742-100.481 -42.596  0.00  0.00     0.000 A 
ATOM     13  C   UNL d   1     -54.714-100.113 -43.334  0.00  0.00     0.000 A 
ATOM     14  C   UNL d   1     -54.752-100.580 -44.030  0.00  0.00     0.000 A 
ATOM     15  C   UNL d   1     -54.816-101.397 -43.963  0.00  0.00     0.000 A 
ATOM     16  C   UNL d   1     -54.723-100.212 -44.768  0.00  0.00     0.000 C 
ATOM     17  C   UNL d   1     -54.845-101.763 -43.229  0.00  0.00     0.000 A 
ENDBRANCH   4  11
BRANCH   3  18
ATOM     18  N   UNL d   1     -54.864-101.525 -38.928  0.00  0.00    -0.285 N 
ATOM     19  C   UNL d   1     -54.961-102.372 -38.883  0.00  0.00     0.108 A 
ATOM     20  C   UNL d   1     -54.990-102.746 -38.123  0.00  0.00     0.142 A 
ATOM     21  O   UNL d   1     -54.921-102.275 -37.395  0.00  0.00    -0.300 OA
ATOM     22  C   UNL d   1     -54.825-101.440 -37.466  0.00  0.00     0.142 A 
ATOM     23  C   UNL d   1     -54.796-101.062 -38.223  0.00  0.00     0.108 A 
ENDBRANCH   3  18
TORSDOF 2
ENDMDL
