MODEL 1
REMARK VINA RESULT:      71.6      0.000      0.000
REMARK  6 active torsions:
REMARK  status: ('A' for Active; 'I' for Inactive)
REMARK    1  A    between atoms: N_2  and  S_1 
REMARK    2  A    between atoms: C_5  and  S_1 
REMARK    3  A    between atoms: S_6  and  C_3 
REMARK    4  A    between atoms: C_18  and  S_6 
REMARK       I    between atoms: C_9  and  N_11 
REMARK    5  A    between atoms: N_11  and  C_19 
REMARK    6  A    between atoms: C_17  and  C_18 
ROOT
ATOM      1  N   UNL d   1      57.843  49.387  50.259  0.00  0.00    -0.208 N 
ATOM      2  C   UNL d   1      57.189  48.872  50.255  0.00  0.00     0.189 A 
ATOM      3  N   UNL d   1      56.859  48.867  51.014  0.00  0.00    -0.219 NA
ATOM      4  C   UNL d   1      57.916  49.701  51.027  0.00  0.00     0.114 A 
ATOM      5  C   UNL d   1      57.310  49.379  51.486  0.00  0.00     0.121 A 
ENDROOT
BRANCH   1   6
ATOM      6  S   UNL d   1      58.333  49.555  49.610  0.00  0.00     0.273 S 
ATOM      7  O   UNL d   1      58.600  49.706  48.840  0.00  0.00    -0.200 OA
ATOM      8  O   UNL d   1      57.662  49.522  49.141  0.00  0.00    -0.200 OA
BRANCH   6   9
ATOM      9  C   UNL d   1      59.021  49.591  50.068  0.00  0.00     0.104 A 
ATOM     10  C   UNL d   1      59.744  49.653  49.699  0.00  0.00     0.014 A 
ATOM     11  C   UNL d   1      60.442  49.691  50.147  0.00  0.00     0.020 A 
ATOM     12  C   UNL d   1      60.388  49.665  50.968  0.00  0.00     0.085 A 
ATOM     13  C   UNL d   1      59.653  49.602  51.335  0.00  0.00     0.020 A 
ATOM     14  C   UNL d   1      58.961  49.565  50.887  0.00  0.00     0.014 A 
BRANCH  12  15
ATOM     15  N   UNL d   1      61.076  49.701  51.424  0.00  0.00    -0.208 NA
ATOM     16  C   UNL d   1      61.088  49.356  52.171  0.00  0.00     0.279 C 
ATOM     17  O   UNL d   1      60.428  48.974  52.473  0.00  0.00    -0.265 OA
ATOM     18  C   UNL d   1      61.786  49.392  52.636  0.00  0.00     0.068 C 
ENDBRANCH  12  15
ENDBRANCH   6   9
ENDBRANCH   1   6
BRANCH   2  19
ATOM     19  S   UNL d   1      56.916  48.438  49.599  0.00  0.00    -0.049 SA
BRANCH  19  20
ATOM     20  C   UNL d   1      56.307  47.889  49.697  0.00  0.00     0.040 C 
BRANCH  20  21
ATOM     21  C   UNL d   1      56.454  47.087  49.575  0.00  0.00     0.026 A 
ATOM     22  C   UNL d   1      56.049  46.673  48.966  0.00  0.00     0.099 A 
ATOM     23  N   UNL d   1      56.185  45.874  48.832  0.00  0.00    -0.242 NA
ATOM     24  C   UNL d   1      56.731  45.482  49.310  0.00  0.00     0.099 A 
ATOM     25  C   UNL d   1      57.131  45.881  49.909  0.00  0.00     0.021 A 
ATOM     26  C   UNL d   1      56.992  46.684  50.040  0.00  0.00     0.004 A 
ENDBRANCH  20  21
ENDBRANCH  19  20
ENDBRANCH   2  19
TORSDOF 6
ENDMDL
MODEL 2
REMARK VINA RESULT:      73.5      1.981      2.822
REMARK  6 active torsions:
REMARK  status: ('A' for Active; 'I' for Inactive)
REMARK    1  A    between atoms: N_2  and  S_1 
REMARK    2  A    between atoms: C_5  and  S_1 
REMARK    3  A    between atoms: S_6  and  C_3 
REMARK    4  A    between atoms: C_18  and  S_6 
REMARK       I    between atoms: C_9  and  N_11 
REMARK    5  A    between atoms: N_11  and  C_19 
REMARK    6  A    between atoms: C_17  and  C_18 
ROOT
ATOM      1  N   UNL d   1      60.101  48.613  50.709  0.00  0.00    -0.208 N 
ATOM      2  C   UNL d   1      59.306  48.756  50.512  0.00  0.00     0.189 A 
ATOM      3  N   UNL d   1      58.887  48.047  50.599  0.00  0.00    -0.219 NA
ATOM      4  C   UNL d   1      60.173  47.810  50.919  0.00  0.00     0.114 A 
ATOM      5  C   UNL d   1      59.425  47.467  50.850  0.00  0.00     0.121 A 
ENDROOT
BRANCH   1   6
ATOM      6  S   UNL d   1      60.712  49.174  50.696  0.00  0.00     0.273 S 
ATOM      7  O   UNL d   1      61.304  49.693  50.434  0.00  0.00    -0.200 OA
ATOM      8  O   UNL d   1      60.717  49.099  49.880  0.00  0.00    -0.200 OA
BRANCH   6   9
ATOM      9  C   UNL d   1      60.723  49.264  51.519  0.00  0.00     0.104 A 
ATOM     10  C   UNL d   1      61.436  49.294  51.909  0.00  0.00     0.014 A 
ATOM     11  C   UNL d   1      61.460  49.384  52.734  0.00  0.00     0.020 A 
ATOM     12  C   UNL d   1      60.750  49.442  53.147  0.00  0.00     0.085 A 
ATOM     13  C   UNL d   1      60.031  49.410  52.746  0.00  0.00     0.020 A 
ATOM     14  C   UNL d   1      60.011  49.321  51.926  0.00  0.00     0.014 A 
BRANCH  12  15
ATOM     15  N   UNL d   1      60.761  49.532  53.969  0.00  0.00    -0.208 NA
ATOM     16  C   UNL d   1      60.053  49.617  54.378  0.00  0.00     0.279 C 
ATOM     17  O   UNL d   1      59.332  49.614  53.986  0.00  0.00    -0.265 OA
ATOM     18  C   UNL d   1      60.062  49.708  55.213  0.00  0.00     0.068 C 
ENDBRANCH  12  15
ENDBRANCH   6   9
ENDBRANCH   1   6
BRANCH   2  19
ATOM     19  S   UNL d   1      58.988  49.486  50.269  0.00  0.00    -0.049 SA
BRANCH  19  20
ATOM     20  C   UNL d   1      58.516  49.522  49.592  0.00  0.00     0.040 C 
BRANCH  20  21
ATOM     21  C   UNL d   1      57.695  49.537  49.665  0.00  0.00     0.026 A 
ATOM     22  C   UNL d   1      57.342  49.688  50.412  0.00  0.00     0.099 A 
ATOM     23  N   UNL d   1      56.525  49.706  50.501  0.00  0.00    -0.242 NA
ATOM     24  C   UNL d   1      56.054  49.571  49.838  0.00  0.00     0.099 A 
ATOM     25  C   UNL d   1      56.393  49.422  49.102  0.00  0.00     0.021 A 
ATOM     26  C   UNL d   1      57.214  49.406  49.017  0.00  0.00     0.004 A 
ENDBRANCH  20  21
ENDBRANCH  19  20
ENDBRANCH   2  19
TORSDOF 6
ENDMDL
MODEL 3
REMARK VINA RESULT:      74.1      2.808      4.167
REMARK  6 active torsions:
REMARK  status: ('A' for Active; 'I' for Inactive)
REMARK    1  A    between atoms: N_2  and  S_1 
REMARK    2  A    between atoms: C_5  and  S_1 
REMARK    3  A    between atoms: S_6  and  C_3 
REMARK    4  A    between atoms: C_18  and  S_6 
REMARK       I    between atoms: C_9  and  N_11 
REMARK    5  A    between atoms: N_11  and  C_19 
REMARK    6  A    between atoms: C_17  and  C_18 
ROOT
ATOM      1  N   UNL d   1      60.540  48.052  51.123  0.00  0.00    -0.208 N 
ATOM      2  C   UNL d   1      60.880  47.353  50.825  0.00  0.00     0.189 A 
ATOM      3  N   UNL d   1      60.494  46.709  51.174  0.00  0.00    -0.219 NA
ATOM      4  C   UNL d   1      59.941  47.836  51.660  0.00  0.00     0.114 A 
ATOM      5  C   UNL d   1      59.917  47.011  51.688  0.00  0.00     0.121 A 
ENDROOT
BRANCH   1   6
ATOM      6  S   UNL d   1      60.761  48.825  50.918  0.00  0.00     0.273 S 
ATOM      7  O   UNL d   1      61.207  49.514  50.800  0.00  0.00    -0.200 OA
ATOM      8  O   UNL d   1      61.516  48.639  51.178  0.00  0.00    -0.200 OA
BRANCH   6   9
ATOM      9  C   UNL d   1      60.006  49.032  50.652  0.00  0.00     0.104 A 
ATOM     10  C   UNL d   1      59.924  49.415  49.938  0.00  0.00     0.014 A 
ATOM     11  C   UNL d   1      59.171  49.627  49.660  0.00  0.00     0.020 A 
ATOM     12  C   UNL d   1      58.512  49.444  50.119  0.00  0.00     0.085 A 
ATOM     13  C   UNL d   1      58.603  49.056  50.840  0.00  0.00     0.020 A 
ATOM     14  C   UNL d   1      59.352  48.846  51.114  0.00  0.00     0.014 A 
BRANCH  12  15
ATOM     15  N   UNL d   1      57.758  49.650  49.852  0.00  0.00    -0.208 NA
ATOM     16  C   UNL d   1      57.098  49.447  50.300  0.00  0.00     0.279 C 
ATOM     17  O   UNL d   1      57.174  49.042  51.009  0.00  0.00    -0.265 OA
ATOM     18  C   UNL d   1      56.331  49.656  50.031  0.00  0.00     0.068 C 
ENDBRANCH  12  15
ENDBRANCH   6   9
ENDBRANCH   1   6
BRANCH   2  19
ATOM     19  S   UNL d   1      61.500  47.312  50.271  0.00  0.00    -0.049 SA
BRANCH  19  20
ATOM     20  C   UNL d   1      61.371  46.951  49.539  0.00  0.00     0.040 C 
BRANCH  20  21
ATOM     21  C   UNL d   1      61.837  46.311  49.310  0.00  0.00     0.026 A 
ATOM     22  C   UNL d   1      62.665  46.409  49.206  0.00  0.00     0.099 A 
ATOM     23  N   UNL d   1      63.143  45.780  48.978  0.00  0.00    -0.242 NA
ATOM     24  C   UNL d   1      62.791  45.044  48.853  0.00  0.00     0.099 A 
ATOM     25  C   UNL d   1      61.980  44.941  48.953  0.00  0.00     0.021 A 
ATOM     26  C   UNL d   1      61.505  45.575  49.182  0.00  0.00     0.004 A 
ENDBRANCH  20  21
ENDBRANCH  19  20
ENDBRANCH   2  19
TORSDOF 6
ENDMDL
