MODEL 1
REMARK VINA RESULT:      89.4      0.000      0.000
REMARK  4 active torsions:
REMARK  status: ('A' for Active; 'I' for Inactive)
REMARK    1  A    between atoms: C_14  and  N_1 
REMARK    2  A    between atoms: S_12  and  C_2 
REMARK       I    between atoms: N_7  and  C_10 
REMARK    3  A    between atoms: C_10  and  C_16 
REMARK    4  A    between atoms: C_16  and  S_12 
ROOT
ATOM      1  N   UNL d   1     -55.048-101.289 -42.816  0.00  0.00    -0.254 N 
ATOM      2  C   UNL d   1     -54.968-100.486 -42.644  0.00  0.00     0.183 A 
ATOM      3  N   UNL d   1     -54.856-100.243 -41.864  0.00  0.00    -0.201 NA
ATOM      4  C   UNL d   1     -55.015-101.853 -42.205  0.00  0.00     0.271 A 
ATOM      5  C   UNL d   1     -54.903-101.603 -41.425  0.00  0.00     0.115 A 
ATOM      6  C   UNL d   1     -54.823-100.795 -41.256  0.00  0.00     0.192 A 
ATOM      7  N   UNL d   1     -54.734-101.466 -40.109  0.00  0.00    -0.145 NA
ATOM      8  N   UNL d   1     -54.718-100.716 -40.436  0.00  0.00    -0.128 NA
ATOM      9  C   UNL d   1     -54.847-102.019 -40.705  0.00  0.00     0.130 A 
ATOM     10  O   UNL d   1     -55.096-102.665 -42.382  0.00  0.00    -0.266 OA
ENDROOT
BRANCH   2  11
ATOM     11  S   UNL d   1     -55.001 -99.935 -43.248  0.00  0.00    -0.044 SA
BRANCH  11  12
ATOM     12  C   UNL d   1     -55.374 -99.198 -43.123  0.00  0.00     0.099 C 
BRANCH  12  13
ATOM     13  C   UNL d   1     -56.190 -99.127 -43.219  0.00  0.00     0.271 C 
ATOM     14  N   UNL d   1     -56.510 -99.015 -43.970  0.00  0.00    -0.273 N 
ATOM     15  C   UNL d   1     -57.320 -98.945 -44.067  0.00  0.00     0.067 A 
ATOM     16  C   UNL d   1     -56.007 -98.976 -44.622  0.00  0.00     0.083 A 
ATOM     17  C   UNL d   1     -57.639 -98.833 -44.821  0.00  0.00     0.016 A 
ATOM     18  C   UNL d   1     -57.820 -98.985 -43.412  0.00  0.00     0.018 A 
ATOM     19  C   UNL d   1     -58.454 -98.763 -44.911  0.00  0.00     0.001 A 
ATOM     20  C   UNL d   1     -57.151 -98.793 -45.474  0.00  0.00     0.003 A 
ATOM     21  C   UNL d   1     -58.957 -98.803 -44.259  0.00  0.00     0.000 A 
ATOM     22  C   UNL d   1     -58.636 -98.914 -43.508  0.00  0.00     0.002 A 
ATOM     23  C   UNL d   1     -56.324 -98.864 -45.379  0.00  0.00     0.019 A 
ATOM     24  O   UNL d   1     -56.683 -99.168 -42.560  0.00  0.00    -0.266 OA
ENDBRANCH  12  13
ENDBRANCH  11  12
ENDBRANCH   2  11
BRANCH   1  25
ATOM     25  C   UNL d   1     -55.161-101.539 -43.601  0.00  0.00     0.069 A 
ATOM     26  C   UNL d   1     -55.727-102.116 -43.766  0.00  0.00     0.018 A 
ATOM     27  C   UNL d   1     -55.841-102.367 -44.547  0.00  0.00     0.002 A 
ATOM     28  C   UNL d   1     -55.387-102.038 -45.157  0.00  0.00     0.000 A 
ATOM     29  C   UNL d   1     -54.823-101.462 -44.982  0.00  0.00     0.002 A 
ATOM     30  C   UNL d   1     -54.712-101.214 -44.202  0.00  0.00     0.018 A 
ENDBRANCH   1  25
TORSDOF 4
ENDMDL
