MODEL 1
REMARK VINA RESULT:      -7.6      0.000      0.000
REMARK  5 active torsions:
REMARK  status: ('A' for Active; 'I' for Inactive)
REMARK    1  A    between atoms: N_2  and  S_1 
REMARK    2  A    between atoms: C_4  and  S_1 
REMARK    3  A    between atoms: C_3  and  C_8 
REMARK       I    between atoms: N_7  and  C_3 
REMARK    4  A    between atoms: C_16  and  N_7 
REMARK    5  A    between atoms: C_15  and  C_16 
ROOT
ATOM      1  C   UNL d   1     -47.988  13.942  22.735  0.00  0.00     0.104 A 
ATOM      2  C   UNL d   1     -46.463  13.368  22.496  0.00  0.00     0.058 A 
ATOM      3  C   UNL d   1     -47.875  13.185  22.429  0.00  0.00     0.013 A 
ATOM      4  C   UNL d   1     -47.320  14.415  22.921  0.00  0.00     0.013 A 
ATOM      5  C   UNL d   1     -47.125  12.888  22.306  0.00  0.00     0.005 A 
ATOM      6  C   UNL d   1     -46.555  14.113  22.796  0.00  0.00     0.005 A 
ENDROOT
BRANCH   2   7
ATOM      7  C   UNL d   1     -45.669  13.070  22.371  0.00  0.00     0.279 C 
ATOM      8  N   UNL d   1     -45.461  12.347  22.727  0.00  0.00    -0.206 NA
ATOM      9  O   UNL d   1     -45.148  13.488  21.920  0.00  0.00    -0.265 OA
BRANCH   8  10
ATOM     10  C   UNL d   1     -44.708  12.055  22.614  0.00  0.00     0.104 C 
BRANCH  10  11
ATOM     11  C   UNL d   1     -44.492  11.359  22.969  0.00  0.00     0.038 A 
ATOM     12  C   UNL d   1     -43.698  11.109  22.967  0.00  0.00     0.101 A 
ATOM     13  N   UNL d   1     -43.481  10.412  23.322  0.00  0.00    -0.242 NA
ATOM     14  C   UNL d   1     -44.052   9.941  23.691  0.00  0.00     0.099 A 
ATOM     15  C   UNL d   1     -44.836  10.177  23.698  0.00  0.00     0.021 A 
ATOM     16  C   UNL d   1     -45.053  10.898  23.330  0.00  0.00     0.005 A 
ENDBRANCH  10  11
ENDBRANCH   8  10
ENDBRANCH   2   7
BRANCH   1  17
ATOM     17  S   UNL d   1     -48.754  14.245  22.860  0.00  0.00     0.271 S 
ATOM     18  O   UNL d   1     -48.563  14.924  22.420  0.00  0.00    -0.200 OA
ATOM     19  O   UNL d   1     -48.951  13.547  23.313  0.00  0.00    -0.200 OA
BRANCH  17  20
ATOM     20  N   UNL d   1     -49.524  14.545  22.988  0.00  0.00    -0.229 N 
ATOM     21  C   UNL d   1     -50.172  14.062  22.835  0.00  0.00     0.092 A 
ATOM     22  C   UNL d   1     -50.922  14.356  22.960  0.00  0.00     0.020 A 
ATOM     23  C   UNL d   1     -51.011  15.144  23.242  0.00  0.00     0.003 A 
ATOM     24  C   UNL d   1     -50.363  15.610  23.389  0.00  0.00     0.020 A 
ATOM     25  C   UNL d   1     -49.617  15.307  23.261  0.00  0.00     0.092 A 
ENDBRANCH  17  20
ENDBRANCH   1  17
TORSDOF 5
ENDMDL
MODEL 2
REMARK VINA RESULT:      -6.8      1.168      1.815
REMARK  5 active torsions:
REMARK  status: ('A' for Active; 'I' for Inactive)
REMARK    1  A    between atoms: N_2  and  S_1 
REMARK    2  A    between atoms: C_4  and  S_1 
REMARK    3  A    between atoms: C_3  and  C_8 
REMARK       I    between atoms: N_7  and  C_3 
REMARK    4  A    between atoms: C_16  and  N_7 
REMARK    5  A    between atoms: C_15  and  C_16 
ROOT
ATOM      1  C   UNL d   1     -48.213  13.709  22.960  0.00  0.00     0.104 A 
ATOM      2  C   UNL d   1     -46.811  12.850  23.066  0.00  0.00     0.058 A 
ATOM      3  C   UNL d   1     -47.488  14.102  22.985  0.00  0.00     0.013 A 
ATOM      4  C   UNL d   1     -48.227  12.870  22.989  0.00  0.00     0.013 A 
ATOM      5  C   UNL d   1     -46.787  13.688  23.037  0.00  0.00     0.005 A 
ATOM      6  C   UNL d   1     -47.512  12.448  23.043  0.00  0.00     0.005 A 
ENDROOT
BRANCH   2   7
ATOM      7  C   UNL d   1     -46.082  12.402  23.121  0.00  0.00     0.279 C 
ATOM      8  N   UNL d   1     -45.481  12.562  22.569  0.00  0.00    -0.206 NA
ATOM      9  O   UNL d   1     -45.995  11.845  23.697  0.00  0.00    -0.265 OA
BRANCH   8  10
ATOM     10  C   UNL d   1     -44.784  12.141  22.614  0.00  0.00     0.104 C 
BRANCH  10  11
ATOM     11  C   UNL d   1     -44.151  12.367  22.159  0.00  0.00     0.038 A 
ATOM     12  C   UNL d   1     -43.410  11.999  22.249  0.00  0.00     0.101 A 
ATOM     13  N   UNL d   1     -42.777  12.224  21.795  0.00  0.00    -0.242 NA
ATOM     14  C   UNL d   1     -42.863  12.825  21.234  0.00  0.00     0.099 A 
ATOM     15  C   UNL d   1     -43.588  13.193  21.137  0.00  0.00     0.021 A 
ATOM     16  C   UNL d   1     -44.238  12.956  21.610  0.00  0.00     0.005 A 
ENDBRANCH  10  11
ENDBRANCH   8  10
ENDBRANCH   2   7
BRANCH   1  17
ATOM     17  S   UNL d   1     -48.929  14.131  22.907  0.00  0.00     0.271 S 
ATOM     18  O   UNL d   1     -49.278  13.617  23.460  0.00  0.00    -0.200 OA
ATOM     19  O   UNL d   1     -48.570  14.660  22.339  0.00  0.00    -0.200 OA
BRANCH  17  20
ATOM     20  N   UNL d   1     -49.646  14.558  22.851  0.00  0.00    -0.229 N 
ATOM     21  C   UNL d   1     -49.806  15.145  23.405  0.00  0.00     0.092 A 
ATOM     22  C   UNL d   1     -50.506  15.560  23.349  0.00  0.00     0.020 A 
ATOM     23  C   UNL d   1     -51.042  15.376  22.727  0.00  0.00     0.003 A 
ATOM     24  C   UNL d   1     -50.872  14.795  22.187  0.00  0.00     0.020 A 
ATOM     25  C   UNL d   1     -50.169  14.385  22.251  0.00  0.00     0.092 A 
ENDBRANCH  17  20
ENDBRANCH   1  17
TORSDOF 5
ENDMDL
MODEL 3
REMARK VINA RESULT:      -5.5      8.635      9.963
REMARK  5 active torsions:
REMARK  status: ('A' for Active; 'I' for Inactive)
REMARK    1  A    between atoms: N_2  and  S_1 
REMARK    2  A    between atoms: C_4  and  S_1 
REMARK    3  A    between atoms: C_3  and  C_8 
REMARK       I    between atoms: N_7  and  C_3 
REMARK    4  A    between atoms: C_16  and  N_7 
REMARK    5  A    between atoms: C_15  and  C_16 
ROOT
ATOM      1  C   UNL d   1     -39.184  14.591  20.696  0.00  0.00     0.104 A 
ATOM      2  C   UNL d   1     -39.603  15.089  19.182  0.00  0.00     0.058 A 
ATOM      3  C   UNL d   1     -39.330  15.389  20.549  0.00  0.00     0.013 A 
ATOM      4  C   UNL d   1     -39.252  14.038  20.068  0.00  0.00     0.013 A 
ATOM      5  C   UNL d   1     -39.539  15.649  19.805  0.00  0.00     0.005 A 
ATOM      6  C   UNL d   1     -39.464  14.303  19.307  0.00  0.00     0.005 A 
ENDROOT
BRANCH   2   7
ATOM      7  C   UNL d   1     -39.822  15.348  18.395  0.00  0.00     0.279 C 
ATOM      8  N   UNL d   1     -39.290  15.202  17.772  0.00  0.00    -0.206 NA
ATOM      9  O   UNL d   1     -40.526  15.723  18.275  0.00  0.00    -0.265 OA
BRANCH   8  10
ATOM     10  C   UNL d   1     -39.489  15.445  17.020  0.00  0.00     0.104 C 
BRANCH  10  11
ATOM     11  C   UNL d   1     -38.979  15.303  16.405  0.00  0.00     0.038 A 
ATOM     12  C   UNL d   1     -38.516  15.917  16.086  0.00  0.00     0.101 A 
ATOM     13  N   UNL d   1     -38.006  15.776  15.472  0.00  0.00    -0.242 NA
ATOM     14  C   UNL d   1     -37.940  15.014  15.156  0.00  0.00     0.099 A 
ATOM     15  C   UNL d   1     -38.390  14.403  15.463  0.00  0.00     0.021 A 
ATOM     16  C   UNL d   1     -38.916  14.556  16.097  0.00  0.00     0.005 A 
ENDBRANCH  10  11
ENDBRANCH   8  10
ENDBRANCH   2   7
BRANCH   1  17
ATOM     17  S   UNL d   1     -38.972  14.326  21.456  0.00  0.00     0.271 S 
ATOM     18  O   UNL d   1     -39.753  14.074  21.591  0.00  0.00    -0.200 OA
ATOM     19  O   UNL d   1     -38.169  14.584  21.318  0.00  0.00    -0.200 OA
BRANCH  17  20
ATOM     20  N   UNL d   1     -38.755  14.061  22.219  0.00  0.00    -0.229 N 
ATOM     21  C   UNL d   1     -39.027  14.473  22.877  0.00  0.00     0.092 A 
ATOM     22  C   UNL d   1     -38.814  14.213  23.621  0.00  0.00     0.020 A 
ATOM     23  C   UNL d   1     -38.324  13.533  23.692  0.00  0.00     0.003 A 
ATOM     24  C   UNL d   1     -38.063  13.136  23.034  0.00  0.00     0.020 A 
ATOM     25  C   UNL d   1     -38.280  13.403  22.295  0.00  0.00     0.092 A 
ENDBRANCH  17  20
ENDBRANCH   1  17
TORSDOF 5
ENDMDL
MODEL 4
REMARK VINA RESULT:      -5.4      1.587      5.646
REMARK  5 active torsions:
REMARK  status: ('A' for Active; 'I' for Inactive)
REMARK    1  A    between atoms: N_2  and  S_1 
REMARK    2  A    between atoms: C_4  and  S_1 
REMARK    3  A    between atoms: C_3  and  C_8 
REMARK       I    between atoms: N_7  and  C_3 
REMARK    4  A    between atoms: C_16  and  N_7 
REMARK    5  A    between atoms: C_15  and  C_16 
ROOT
ATOM      1  C   UNL d   1     -45.983  12.889  22.498  0.00  0.00     0.104 A 
ATOM      2  C   UNL d   1     -47.541  12.998  23.025  0.00  0.00     0.058 A 
ATOM      3  C   UNL d   1     -46.337  12.249  22.880  0.00  0.00     0.013 A 
ATOM      4  C   UNL d   1     -46.425  13.594  22.383  0.00  0.00     0.013 A 
ATOM      5  C   UNL d   1     -47.107  12.290  23.145  0.00  0.00     0.005 A 
ATOM      6  C   UNL d   1     -47.211  13.636  22.654  0.00  0.00     0.005 A 
ENDROOT
BRANCH   2   7
ATOM      7  C   UNL d   1     -48.351  13.055  23.299  0.00  0.00     0.279 C 
ATOM      8  N   UNL d   1     -48.761  13.767  23.169  0.00  0.00    -0.206 NA
ATOM      9  O   UNL d   1     -48.695  12.428  23.672  0.00  0.00    -0.265 OA
BRANCH   8  10
ATOM     10  C   UNL d   1     -49.532  13.830  23.426  0.00  0.00     0.104 C 
BRANCH  10  11
ATOM     11  C   UNL d   1     -49.940  14.520  23.299  0.00  0.00     0.038 A 
ATOM     12  C   UNL d   1     -50.576  14.544  22.762  0.00  0.00     0.101 A 
ATOM     13  N   UNL d   1     -50.985  15.233  22.635  0.00  0.00    -0.242 NA
ATOM     14  C   UNL d   1     -50.772  15.922  23.041  0.00  0.00     0.099 A 
ATOM     15  C   UNL d   1     -50.148  15.908  23.571  0.00  0.00     0.021 A 
ATOM     16  C   UNL d   1     -49.730  15.193  23.698  0.00  0.00     0.005 A 
ENDBRANCH  10  11
ENDBRANCH   8  10
ENDBRANCH   2   7
BRANCH   1  17
ATOM     17  S   UNL d   1     -45.197  12.847  22.227  0.00  0.00     0.271 S 
ATOM     18  O   UNL d   1     -45.375  13.384  21.617  0.00  0.00    -0.200 OA
ATOM     19  O   UNL d   1     -45.014  12.296  22.855  0.00  0.00    -0.200 OA
BRANCH  17  20
ATOM     20  N   UNL d   1     -44.407  12.803  21.958  0.00  0.00    -0.229 N 
ATOM     21  C   UNL d   1     -43.929  12.187  22.222  0.00  0.00     0.092 A 
ATOM     22  C   UNL d   1     -43.158  12.145  21.958  0.00  0.00     0.020 A 
ATOM     23  C   UNL d   1     -42.876  12.731  21.425  0.00  0.00     0.003 A 
ATOM     24  C   UNL d   1     -43.358  13.333  21.172  0.00  0.00     0.020 A 
ATOM     25  C   UNL d   1     -44.127  13.367  21.441  0.00  0.00     0.092 A 
ENDBRANCH  17  20
ENDBRANCH   1  17
TORSDOF 5
ENDMDL
MODEL 5
REMARK VINA RESULT:      -5.3      2.676      3.445
REMARK  5 active torsions:
REMARK  status: ('A' for Active; 'I' for Inactive)
REMARK    1  A    between atoms: N_2  and  S_1 
REMARK    2  A    between atoms: C_4  and  S_1 
REMARK    3  A    between atoms: C_3  and  C_8 
REMARK       I    between atoms: N_7  and  C_3 
REMARK    4  A    between atoms: C_16  and  N_7 
REMARK    5  A    between atoms: C_15  and  C_16 
ROOT
ATOM      1  C   UNL d   1     -45.852  13.124  22.429  0.00  0.00     0.104 A 
ATOM      2  C   UNL d   1     -44.298  12.752  22.029  0.00  0.00     0.058 A 
ATOM      3  C   UNL d   1     -45.480  12.475  22.777  0.00  0.00     0.013 A 
ATOM      4  C   UNL d   1     -45.432  13.590  21.872  0.00  0.00     0.013 A 
ATOM      5  C   UNL d   1     -44.711  12.280  22.587  0.00  0.00     0.005 A 
ATOM      6  C   UNL d   1     -44.647  13.391  21.678  0.00  0.00     0.005 A 
ENDROOT
BRANCH   2   7
ATOM      7  C   UNL d   1     -43.489  12.559  21.820  0.00  0.00     0.279 C 
ATOM      8  N   UNL d   1     -43.021  13.152  21.473  0.00  0.00    -0.206 NA
ATOM      9  O   UNL d   1     -43.203  11.818  21.961  0.00  0.00    -0.265 OA
BRANCH   8  10
ATOM     10  C   UNL d   1     -42.251  12.978  21.271  0.00  0.00     0.104 C 
BRANCH  10  11
ATOM     11  C   UNL d   1     -41.773  13.562  20.973  0.00  0.00     0.038 A 
ATOM     12  C   UNL d   1     -41.723  13.694  20.153  0.00  0.00     0.101 A 
ATOM     13  N   UNL d   1     -41.245  14.278  19.855  0.00  0.00    -0.242 NA
ATOM     14  C   UNL d   1     -40.801  14.751  20.368  0.00  0.00     0.099 A 
ATOM     15  C   UNL d   1     -40.843  14.629  21.176  0.00  0.00     0.021 A 
ATOM     16  C   UNL d   1     -41.339  14.024  21.478  0.00  0.00     0.005 A 
ENDBRANCH  10  11
ENDBRANCH   8  10
ENDBRANCH   2   7
BRANCH   1  17
ATOM     17  S   UNL d   1     -46.637  13.322  22.624  0.00  0.00     0.271 S 
ATOM     18  O   UNL d   1     -46.386  13.613  23.361  0.00  0.00    -0.200 OA
ATOM     19  O   UNL d   1     -46.897  13.023  21.866  0.00  0.00    -0.200 OA
BRANCH  17  20
ATOM     20  N   UNL d   1     -47.427  13.520  22.815  0.00  0.00    -0.229 N 
ATOM     21  C   UNL d   1     -47.956  12.919  23.003  0.00  0.00     0.092 A 
ATOM     22  C   UNL d   1     -48.725  13.114  23.190  0.00  0.00     0.020 A 
ATOM     23  C   UNL d   1     -48.955  13.923  23.185  0.00  0.00     0.003 A 
ATOM     24  C   UNL d   1     -48.424  14.506  22.997  0.00  0.00     0.020 A 
ATOM     25  C   UNL d   1     -47.656  14.302  22.812  0.00  0.00     0.092 A 
ENDBRANCH  17  20
ENDBRANCH   1  17
TORSDOF 5
ENDMDL
MODEL 6
REMARK VINA RESULT:      -4.9      8.143      9.998
REMARK  5 active torsions:
REMARK  status: ('A' for Active; 'I' for Inactive)
REMARK    1  A    between atoms: N_2  and  S_1 
REMARK    2  A    between atoms: C_4  and  S_1 
REMARK    3  A    between atoms: C_3  and  C_8 
REMARK       I    between atoms: N_7  and  C_3 
REMARK    4  A    between atoms: C_16  and  N_7 
REMARK    5  A    between atoms: C_15  and  C_16 
ROOT
ATOM      1  C   UNL d   1     -39.097  14.672  17.893  0.00  0.00     0.104 A 
ATOM      2  C   UNL d   1     -39.700  14.729  19.425  0.00  0.00     0.058 A 
ATOM      3  C   UNL d   1     -38.766  15.184  18.448  0.00  0.00     0.013 A 
ATOM      4  C   UNL d   1     -39.741  14.183  18.116  0.00  0.00     0.013 A 
ATOM      5  C   UNL d   1     -39.055  15.222  19.210  0.00  0.00     0.005 A 
ATOM      6  C   UNL d   1     -40.037  14.222  18.894  0.00  0.00     0.005 A 
ENDROOT
BRANCH   2   7
ATOM      7  C   UNL d   1     -40.014  14.759  20.222  0.00  0.00     0.279 C 
ATOM      8  N   UNL d   1     -39.527  14.504  20.846  0.00  0.00    -0.206 NA
ATOM      9  O   UNL d   1     -40.763  15.028  20.349  0.00  0.00    -0.265 OA
BRANCH   8  10
ATOM     10  C   UNL d   1     -39.817  14.528  21.607  0.00  0.00     0.104 C 
BRANCH  10  11
ATOM     11  C   UNL d   1     -39.332  14.330  22.226  0.00  0.00     0.038 A 
ATOM     12  C   UNL d   1     -38.924  14.917  22.653  0.00  0.00     0.101 A 
ATOM     13  N   UNL d   1     -38.440  14.718  23.272  0.00  0.00    -0.242 NA
ATOM     14  C   UNL d   1     -38.346  13.925  23.487  0.00  0.00     0.099 A 
ATOM     15  C   UNL d   1     -38.742  13.340  23.073  0.00  0.00     0.021 A 
ATOM     16  C   UNL d   1     -39.241  13.552  22.434  0.00  0.00     0.005 A 
ENDBRANCH  10  11
ENDBRANCH   8  10
ENDBRANCH   2   7
BRANCH   1  17
ATOM     17  S   UNL d   1     -38.802  14.634  17.115  0.00  0.00     0.271 S 
ATOM     18  O   UNL d   1     -38.022  14.643  17.406  0.00  0.00    -0.200 OA
ATOM     19  O   UNL d   1     -39.602  14.624  16.815  0.00  0.00    -0.200 OA
BRANCH  17  20
ATOM     20  N   UNL d   1     -38.508  14.595  16.333  0.00  0.00    -0.229 N 
ATOM     21  C   UNL d   1     -38.343  15.295  15.933  0.00  0.00     0.092 A 
ATOM     22  C   UNL d   1     -38.057  15.255  15.170  0.00  0.00     0.020 A 
ATOM     23  C   UNL d   1     -37.939  14.502  14.816  0.00  0.00     0.003 A 
ATOM     24  C   UNL d   1     -38.107  13.819  15.221  0.00  0.00     0.020 A 
ATOM     25  C   UNL d   1     -38.393  13.868  15.984  0.00  0.00     0.092 A 
ENDBRANCH  17  20
ENDBRANCH   1  17
TORSDOF 5
ENDMDL
MODEL 7
REMARK VINA RESULT:      -4.8      6.564      9.032
REMARK  5 active torsions:
REMARK  status: ('A' for Active; 'I' for Inactive)
REMARK    1  A    between atoms: N_2  and  S_1 
REMARK    2  A    between atoms: C_4  and  S_1 
REMARK    3  A    between atoms: C_3  and  C_8 
REMARK       I    between atoms: N_7  and  C_3 
REMARK    4  A    between atoms: C_16  and  N_7 
REMARK    5  A    between atoms: C_15  and  C_16 
ROOT
ATOM      1  C   UNL d   1     -39.697  14.304  18.333  0.00  0.00     0.104 A 
ATOM      2  C   UNL d   1     -40.550  14.397  19.739  0.00  0.00     0.058 A 
ATOM      3  C   UNL d   1     -40.499  14.496  18.317  0.00  0.00     0.013 A 
ATOM      4  C   UNL d   1     -39.323  14.158  19.069  0.00  0.00     0.013 A 
ATOM      5  C   UNL d   1     -40.933  14.545  19.006  0.00  0.00     0.005 A 
ATOM      6  C   UNL d   1     -39.765  14.209  19.773  0.00  0.00     0.005 A 
ENDROOT
BRANCH   2   7
ATOM      7  C   UNL d   1     -40.994  14.446  20.471  0.00  0.00     0.279 C 
ATOM      8  N   UNL d   1     -41.570  13.865  20.620  0.00  0.00    -0.206 NA
ATOM      9  O   UNL d   1     -40.847  15.044  20.992  0.00  0.00    -0.265 OA
BRANCH   8  10
ATOM     10  C   UNL d   1     -41.997  13.902  21.314  0.00  0.00     0.104 C 
BRANCH  10  11
ATOM     11  C   UNL d   1     -42.608  13.383  21.436  0.00  0.00     0.038 A 
ATOM     12  C   UNL d   1     -42.458  12.600  21.677  0.00  0.00     0.101 A 
ATOM     13  N   UNL d   1     -43.069  12.081  21.799  0.00  0.00    -0.242 NA
ATOM     14  C   UNL d   1     -43.851  12.326  21.685  0.00  0.00     0.099 A 
ATOM     15  C   UNL d   1     -44.008  13.094  21.449  0.00  0.00     0.021 A 
ATOM     16  C   UNL d   1     -43.372  13.626  21.324  0.00  0.00     0.005 A 
ENDBRANCH  10  11
ENDBRANCH   8  10
ENDBRANCH   2   7
BRANCH   1  17
ATOM     17  S   UNL d   1     -39.254  14.254  17.629  0.00  0.00     0.271 S 
ATOM     18  O   UNL d   1     -39.627  13.534  17.441  0.00  0.00    -0.200 OA
ATOM     19  O   UNL d   1     -38.871  14.994  17.821  0.00  0.00    -0.200 OA
BRANCH  17  20
ATOM     20  N   UNL d   1     -38.808  14.207  16.923  0.00  0.00    -0.229 N 
ATOM     21  C   UNL d   1     -38.730  14.878  16.454  0.00  0.00     0.092 A 
ATOM     22  C   UNL d   1     -38.295  14.830  15.766  0.00  0.00     0.020 A 
ATOM     23  C   UNL d   1     -37.940  14.097  15.557  0.00  0.00     0.003 A 
ATOM     24  C   UNL d   1     -38.024  13.443  16.029  0.00  0.00     0.020 A 
ATOM     25  C   UNL d   1     -38.461  13.500  16.715  0.00  0.00     0.092 A 
ENDBRANCH  17  20
ENDBRANCH   1  17
TORSDOF 5
ENDMDL
