MODEL 1
REMARK VINA RESULT:      22.8      0.000      0.000
REMARK  3 active torsions:
REMARK  status: ('A' for Active; 'I' for Inactive)
REMARK    1  A    between atoms: C_6  and  N_1 
REMARK    2  A    between atoms: C_5  and  C_6 
REMARK       I    between atoms: N_8  and  C_5 
REMARK    3  A    between atoms: C_10  and  N_8 
ROOT
ATOM      1  C   UNL d   1      13.718  12.188  -2.119  0.00  0.00     0.297 C 
ATOM      2  N   UNL d   1      13.058  12.534  -2.481  0.00  0.00    -0.207 NA
ATOM      3  O   UNL d   1      14.307  11.847  -2.580  0.00  0.00    -0.264 OA
ENDROOT
BRANCH   1   4
ATOM      4  C   UNL d   1      13.781  12.186  -1.298  0.00  0.00     0.145 C 
BRANCH   4   5
ATOM      5  N   UNL d   1      14.498  12.366  -0.939  0.00  0.00    -0.282 N 
ATOM      6  C   UNL d   1      15.118  11.840  -0.791  0.00  0.00     0.183 A 
ATOM      7  N   UNL d   1      15.726  12.259  -0.423  0.00  0.00    -0.224 NA
ATOM      8  C   UNL d   1      15.485  13.046  -0.342  0.00  0.00     0.099 A 
ATOM      9  C   UNL d   1      14.724  13.110  -0.663  0.00  0.00     0.083 A 
ATOM     10  C   UNL d   1      15.859  13.705  -0.021  0.00  0.00     0.021 A 
ATOM     11  C   UNL d   1      14.347  13.842  -0.656  0.00  0.00     0.019 A 
ATOM     12  C   UNL d   1      14.709  14.502  -0.339  0.00  0.00     0.002 A 
ATOM     13  C   UNL d   1      15.476  14.440  -0.016  0.00  0.00     0.002 A 
ENDBRANCH   4   5
ENDBRANCH   1   4
BRANCH   2  14
ATOM     14  C   UNL d   1      13.054  12.503  -3.309  0.00  0.00     0.085 A 
ATOM     15  C   UNL d   1      13.289  13.157  -3.742  0.00  0.00     0.019 A 
ATOM     16  C   UNL d   1      13.287  13.132  -4.566  0.00  0.00     0.002 A 
ATOM     17  C   UNL d   1      13.524  13.793  -5.002  0.00  0.00     0.000 C 
ATOM     18  C   UNL d   1      13.044  12.437  -4.956  0.00  0.00     0.000 A 
ATOM     19  C   UNL d   1      12.809  11.782  -4.519  0.00  0.00     0.002 A 
ATOM     20  C   UNL d   1      13.041  12.406  -5.784  0.00  0.00     0.000 C 
ATOM     21  C   UNL d   1      12.813  11.812  -3.691  0.00  0.00     0.019 A 
ENDBRANCH   2  14
TORSDOF 3
ENDMDL
