MODEL 1
REMARK VINA RESULT:      28.5      0.000      0.000
REMARK  4 active torsions:
REMARK  status: ('A' for Active; 'I' for Inactive)
REMARK    1  A    between atoms: N_2  and  S_1 
REMARK    2  A    between atoms: C_3  and  S_1 
REMARK    3  A    between atoms: C_6  and  N_2 
REMARK    4  A    between atoms: C_13  and  N_2 
ROOT
ATOM      1  S   UNL d   1     -56.463 -99.287 -44.335  0.00  0.00     0.271 S 
ATOM      2  O   UNL d   1     -56.598 -99.736 -43.747  0.00  0.00    -0.200 OA
ATOM      3  O   UNL d   1     -56.346 -98.792 -44.980  0.00  0.00    -0.200 OA
ENDROOT
BRANCH   1   4
ATOM      4  N   UNL d   1     -55.642 -99.413 -44.283  0.00  0.00    -0.231 N 
BRANCH   4   5
ATOM      5  C   UNL d   1     -55.333-100.173 -44.401  0.00  0.00     0.075 A 
ATOM      6  C   UNL d   1     -55.085-100.401 -45.162  0.00  0.00     0.018 A 
ATOM      7  C   UNL d   1     -54.775-101.162 -45.287  0.00  0.00     0.002 A 
ATOM      8  C   UNL d   1     -54.711-101.695 -44.651  0.00  0.00     0.000 A 
ATOM      9  C   UNL d   1     -54.960-101.462 -43.890  0.00  0.00     0.002 A 
ATOM     10  C   UNL d   1     -55.271-100.702 -43.765  0.00  0.00     0.018 A 
ENDBRANCH   4   5
BRANCH   4  11
ATOM     11  C   UNL d   1     -55.136 -98.778 -44.113  0.00  0.00     0.092 C 
ATOM     12  C   UNL d   1     -54.724 -98.756 -43.399  0.00  0.00     0.021 C 
ENDBRANCH   4  11
ENDBRANCH   1   4
BRANCH   1  13
ATOM     13  C   UNL d   1     -57.201 -99.154 -44.408  0.00  0.00     0.104 A 
ATOM     14  C   UNL d   1     -57.668 -99.239 -43.815  0.00  0.00     0.015 A 
ATOM     15  C   UNL d   1     -58.396 -99.106 -43.894  0.00  0.00     0.022 A 
ATOM     16  C   UNL d   1     -58.675 -98.889 -44.553  0.00  0.00     0.103 A 
ATOM     17  C   UNL d   1     -58.223 -98.802 -45.145  0.00  0.00     0.022 A 
ATOM     18  N   UNL d   1     -59.412 -98.757 -44.623  0.00  0.00    -0.148 N 
ATOM     19  C   UNL d   1     -57.485 -98.933 -45.076  0.00  0.00     0.015 A 
ENDBRANCH   1  13
TORSDOF 4
ENDMDL
