MODEL 1
REMARK VINA RESULT:      12.0      0.000      0.000
REMARK  3 active torsions:
REMARK  status: ('A' for Active; 'I' for Inactive)
REMARK    1  A    between atoms: N_3  and  S_1 
REMARK    2  A    between atoms: C_7  and  S_1 
REMARK    3  A    between atoms: C_10  and  N_3 
ROOT
ATOM      1  S   UNL d   1      45.862 -16.765  43.983  0.00  0.00     0.327 S 
ATOM      2  O   UNL d   1      46.145 -17.316  44.522  0.00  0.00    -0.186 OA
ATOM      3  O   UNL d   1      45.771 -16.972  43.192  0.00  0.00    -0.186 OA
ENDROOT
BRANCH   1   4
ATOM      4  N   UNL d   1      46.056 -17.524  43.740  0.00  0.00    -0.314 NA
BRANCH   4   5
ATOM      5  C   UNL d   1      46.255 -18.300  43.492  0.00  0.00     0.184 A 
ATOM      6  C   UNL d   1      46.399 -18.886  44.064  0.00  0.00     0.226 A 
ATOM      7  O   UNL d   1      46.346 -18.710  44.861  0.00  0.00    -0.284 OA
ATOM      8  C   UNL d   1      46.595 -19.651  43.816  0.00  0.00     0.045 A 
ATOM      9  C   UNL d   1      46.647 -19.824  43.009  0.00  0.00     0.004 A 
ATOM     10  C   UNL d   1      46.503 -19.237  42.452  0.00  0.00     0.003 A 
ATOM     11  C   UNL d   1      46.307 -18.474  42.697  0.00  0.00     0.036 A 
ENDBRANCH   4   5
ENDBRANCH   1   4
BRANCH   1  12
ATOM     12  C   UNL d   1      45.670 -16.008  44.234  0.00  0.00     0.118 A 
ATOM     13  C   UNL d   1      46.146 -15.374  44.021  0.00  0.00     0.035 A 
ATOM     14  C   UNL d   1      45.956 -14.608  44.272  0.00  0.00     0.105 A 
ATOM     15  N   UNL d   1      46.318 -13.877  44.151  0.00  0.00    -0.189 NA
ATOM     16  C   UNL d   1      45.282 -14.483  44.742  0.00  0.00     0.104 A 
ATOM     17  C   UNL d   1      45.870 -13.296  44.544  0.00  0.00     0.369 A 
ATOM     18  O   UNL d   1      46.035 -12.490  44.566  0.00  0.00    -0.242 OA
ATOM     19  N   UNL d   1      45.232 -13.676  44.906  0.00  0.00    -0.189 NA
ATOM     20  C   UNL d   1      44.804 -15.126  44.954  0.00  0.00     0.022 A 
ATOM     21  C   UNL d   1      45.002 -15.884  44.698  0.00  0.00     0.016 A 
ENDBRANCH   1  12
TORSDOF 3
ENDMDL
MODEL 2
REMARK VINA RESULT:      12.5      1.339      4.601
REMARK  3 active torsions:
REMARK  status: ('A' for Active; 'I' for Inactive)
REMARK    1  A    between atoms: N_3  and  S_1 
REMARK    2  A    between atoms: C_7  and  S_1 
REMARK    3  A    between atoms: C_10  and  N_3 
ROOT
ATOM      1  S   UNL d   1      46.012 -16.687  44.178  0.00  0.00     0.327 S 
ATOM      2  O   UNL d   1      46.011 -16.130  43.575  0.00  0.00    -0.186 OA
ATOM      3  O   UNL d   1      45.878 -16.454  44.954  0.00  0.00    -0.186 OA
ENDROOT
BRANCH   1   4
ATOM      4  N   UNL d   1      45.879 -15.895  44.342  0.00  0.00    -0.314 NA
BRANCH   4   5
ATOM      5  C   UNL d   1      45.742 -15.084  44.510  0.00  0.00     0.184 A 
ATOM      6  C   UNL d   1      44.997 -14.846  44.790  0.00  0.00     0.226 A 
ATOM      7  O   UNL d   1      44.400 -15.395  44.901  0.00  0.00    -0.284 OA
ATOM      8  C   UNL d   1      44.866 -14.045  44.954  0.00  0.00     0.045 A 
ATOM      9  C   UNL d   1      45.472 -13.494  44.840  0.00  0.00     0.004 A 
ATOM     10  C   UNL d   1      46.205 -13.742  44.563  0.00  0.00     0.003 A 
ATOM     11  C   UNL d   1      46.338 -14.538  44.399  0.00  0.00     0.036 A 
ENDBRANCH   4   5
ENDBRANCH   1   4
BRANCH   1  12
ATOM     12  C   UNL d   1      46.146 -17.478  44.004  0.00  0.00     0.118 A 
ATOM     13  C   UNL d   1      46.195 -17.722  43.222  0.00  0.00     0.035 A 
ATOM     14  C   UNL d   1      46.331 -18.519  43.042  0.00  0.00     0.105 A 
ATOM     15  N   UNL d   1      46.406 -18.922  42.326  0.00  0.00    -0.189 NA
ATOM     16  C   UNL d   1      46.417 -19.071  43.656  0.00  0.00     0.104 A 
ATOM     17  C   UNL d   1      46.539 -19.726  42.494  0.00  0.00     0.369 A 
ATOM     18  O   UNL d   1      46.645 -20.326  41.940  0.00  0.00    -0.242 OA
ATOM     19  N   UNL d   1      46.544 -19.812  43.316  0.00  0.00    -0.189 NA
ATOM     20  C   UNL d   1      46.366 -18.821  44.444  0.00  0.00     0.022 A 
ATOM     21  C   UNL d   1      46.231 -18.025  44.612  0.00  0.00     0.016 A 
ENDBRANCH   1  12
TORSDOF 3
ENDMDL
