MODEL 1
REMARK VINA RESULT:       8.0      0.000      0.000
REMARK  5 active torsions:
REMARK  status: ('A' for Active; 'I' for Inactive)
REMARK    1  A    between atoms: C_6  and  N_1 
REMARK    2  A    between atoms: C_11  and  C_6 
REMARK    3  A    between atoms: C_14  and  C_11 
REMARK    4  A    between atoms: C_12  and  O_13 
REMARK    5  A    between atoms: O_13  and  C_14 
ROOT
ATOM      1  C   UNL d   1      46.054 -17.106  44.438  0.00  0.00     0.238 C 
ATOM      2  O   UNL d   1      45.404 -17.468  44.795  0.00  0.00    -0.283 OA
ENDROOT
BRANCH   1   3
ATOM      3  C   UNL d   1      46.600 -17.557  44.010  0.00  0.00     0.126 C 
BRANCH   3   4
ATOM      4  N   UNL d   1      46.512 -18.382  43.968  0.00  0.00    -0.284 N 
ATOM      5  C   UNL d   1      46.385 -18.892  44.601  0.00  0.00     0.183 A 
ATOM      6  N   UNL d   1      46.330 -19.663  44.312  0.00  0.00    -0.224 NA
ATOM      7  C   UNL d   1      46.424 -19.627  43.494  0.00  0.00     0.099 A 
ATOM      8  C   UNL d   1      46.536 -18.840  43.278  0.00  0.00     0.083 A 
ATOM      9  C   UNL d   1      46.422 -20.212  42.919  0.00  0.00     0.021 A 
ATOM     10  C   UNL d   1      46.647 -18.636  42.485  0.00  0.00     0.019 A 
ATOM     11  C   UNL d   1      46.644 -19.226  41.908  0.00  0.00     0.002 A 
ATOM     12  C   UNL d   1      46.532 -20.019  42.122  0.00  0.00     0.002 A 
ENDBRANCH   3   4
ENDBRANCH   1   3
BRANCH   1  13
ATOM     13  C   UNL d   1      46.164 -16.280  44.509  0.00  0.00     0.166 C 
BRANCH  13  14
ATOM     14  O   UNL d   1      45.612 -15.819  44.948  0.00  0.00    -0.302 OA
BRANCH  14  15
ATOM     15  C   UNL d   1      45.485 -15.012  44.774  0.00  0.00     0.100 A 
ATOM     16  C   UNL d   1      46.062 -14.465  44.946  0.00  0.00     0.025 A 
ATOM     17  C   UNL d   1      45.934 -13.659  44.772  0.00  0.00     0.002 A 
ATOM     18  C   UNL d   1      46.399 -12.997  44.877  0.00  0.00     0.000 A 
ATOM     19  C   UNL d   1      45.227 -13.425  44.428  0.00  0.00     0.000 A 
ATOM     20  C   UNL d   1      45.979 -12.352  44.599  0.00  0.00     0.000 A 
ATOM     21  C   UNL d   1      45.257 -12.614  44.322  0.00  0.00     0.000 A 
ATOM     22  C   UNL d   1      44.643 -13.995  44.257  0.00  0.00     0.002 A 
ATOM     23  C   UNL d   1      44.777 -14.777  44.430  0.00  0.00     0.025 A 
ENDBRANCH  14  15
ENDBRANCH  13  14
ENDBRANCH   1  13
TORSDOF 5
ENDMDL
