MODEL 1
REMARK VINA RESULT:       4.3      0.000      0.000
REMARK  3 active torsions:
REMARK  status: ('A' for Active; 'I' for Inactive)
REMARK    1  A    between atoms: C_2  and  C_1 
REMARK       I    between atoms: N_6  and  C_2 
REMARK    2  A    between atoms: C_7  and  N_6 
REMARK    3  A    between atoms: C_18  and  N_6 
ROOT
ATOM      1  C   UNL d   1     -41.650-123.161 -50.307  0.00  0.00     0.270 C 
ATOM      2  N   UNL d   1     -42.602-122.808 -49.586  0.00  0.00    -0.274 N 
ATOM      3  O   UNL d   1     -41.126-123.612 -49.911  0.00  0.00    -0.266 OA
ENDROOT
BRANCH   2   4
ATOM      4  C   UNL d   1     -43.145-122.361 -49.935  0.00  0.00     0.079 A 
ATOM      5  C   UNL d   1     -43.851-122.596 -50.175  0.00  0.00     0.116 A 
ATOM      6  S   UNL d   1     -44.214-121.982 -50.491  0.00  0.00     0.213 S 
ATOM      7  O   UNL d   1     -44.576-121.368 -50.807  0.00  0.00    -0.217 OA
ATOM      8  O   UNL d   1     -44.719-122.567 -50.552  0.00  0.00    -0.217 OA
ATOM      9  C   UNL d   1     -43.729-121.372 -50.445  0.00  0.00     0.100 A 
ATOM     10  C   UNL d   1     -43.073-121.604 -50.104  0.00  0.00     0.030 A 
ENDBRANCH   2   4
BRANCH   2  11
ATOM     11  C   UNL d   1     -42.657-123.030 -48.798  0.00  0.00     0.067 A 
ATOM     12  C   UNL d   1     -43.207-123.588 -48.579  0.00  0.00     0.018 A 
ATOM     13  C   UNL d   1     -43.265-123.816 -47.776  0.00  0.00     0.002 A 
ATOM     14  C   UNL d   1     -42.770-123.479 -47.215  0.00  0.00     0.000 A 
ATOM     15  C   UNL d   1     -42.215-122.915 -47.440  0.00  0.00     0.002 A 
ATOM     16  C   UNL d   1     -42.152-122.685 -48.227  0.00  0.00     0.018 A 
ENDBRANCH   2  11
BRANCH   1  17
ATOM     17  C   UNL d   1     -41.574-122.951 -51.100  0.00  0.00     0.120 A 
ATOM     18  C   UNL d   1     -41.313-122.178 -51.302  0.00  0.00     0.305 A 
ATOM     19  O   UNL d   1     -41.237-121.966 -52.097  0.00  0.00    -0.273 OA
ATOM     20  O   UNL d   1     -41.134-121.637 -50.705  0.00  0.00    -0.259 OA
ATOM     21  C   UNL d   1     -41.418-122.514 -52.689  0.00  0.00     0.103 A 
ATOM     22  C   UNL d   1     -41.676-123.275 -52.490  0.00  0.00     0.023 A 
ATOM     23  C   UNL d   1     -41.339-122.293 -53.484  0.00  0.00     0.025 A 
ATOM     24  C   UNL d   1     -41.752-123.490 -51.700  0.00  0.00     0.012 A 
ATOM     25  C   UNL d   1     -41.854-123.816 -53.086  0.00  0.00     0.002 A 
ATOM     26  C   UNL d   1     -41.777-123.601 -53.881  0.00  0.00     0.000 A 
ATOM     27  C   UNL d   1     -41.520-122.839 -54.079  0.00  0.00     0.002 A 
ENDBRANCH   1  17
TORSDOF 3
ENDMDL
