MODEL 1
REMARK VINA RESULT:      63.4      0.000      0.000
REMARK  1 active torsions:
REMARK  status: ('A' for Active; 'I' for Inactive)
REMARK    1  A    between atoms: C_13  and  N_5 
ROOT
ATOM      1  C   UNL d   1      58.175  49.633  51.891  0.00  0.00     0.170 A 
ATOM      2  C   UNL d   1      58.435  49.629  51.137  0.00  0.00     0.093 A 
ATOM      3  C   UNL d   1      59.216  49.591  50.976  0.00  0.00     0.172 A 
ATOM      4  N   UNL d   1      59.738  49.557  51.578  0.00  0.00    -0.190 N 
ATOM      5  N   UNL d   1      57.385  49.671  52.050  0.00  0.00    -0.212 N 
ATOM      6  N   UNL d   1      58.702  49.598  52.495  0.00  0.00    -0.205 NA
ATOM      7  N   UNL d   1      59.473  49.588  50.216  0.00  0.00    -0.206 NA
ATOM      8  N   UNL d   1      56.867  49.705  51.435  0.00  0.00    -0.162 NA
ATOM      9  N   UNL d   1      60.519  49.519  51.421  0.00  0.00    -0.143 NA
ATOM     10  C   UNL d   1      59.479  49.561  52.333  0.00  0.00     0.203 A 
ATOM     11  C   UNL d   1      57.129  49.702  50.685  0.00  0.00     0.127 A 
ATOM     12  C   UNL d   1      60.773  49.516  50.670  0.00  0.00     0.184 A 
ATOM     13  C   UNL d   1      61.547  49.481  50.287  0.00  0.00     0.044 C 
ENDROOT
BRANCH   5  14
ATOM     14  C   UNL d   1      57.123  49.675  52.825  0.00  0.00     0.085 A 
ATOM     15  C   UNL d   1      57.659  49.689  53.433  0.00  0.00     0.019 A 
ATOM     16  C   UNL d   1      57.393  49.693  54.221  0.00  0.00     0.002 A 
ATOM     17  C   UNL d   1      57.953  49.708  54.877  0.00  0.00     0.000 C 
ATOM     18  C   UNL d   1      56.577  49.682  54.385  0.00  0.00     0.000 A 
ATOM     19  C   UNL d   1      56.041  49.667  53.751  0.00  0.00     0.002 A 
ATOM     20  C   UNL d   1      56.291  49.685  55.191  0.00  0.00     0.000 C 
ATOM     21  C   UNL d   1      56.311  49.664  52.978  0.00  0.00     0.019 A 
ENDBRANCH   5  14
TORSDOF 1
ENDMDL
