MODEL 1
REMARK VINA RESULT:      42.7      0.000      0.000
REMARK  7 active torsions:
REMARK  status: ('A' for Active; 'I' for Inactive)
REMARK    1  A    between atoms: C_10  and  C_3 
REMARK    2  A    between atoms: N_11  and  C_4 
REMARK    3  A    between atoms: C_21  and  N_11 
REMARK    4  A    between atoms: O_20  and  C_23 
REMARK    5  A    between atoms: C_24  and  O_20 
REMARK    6  A    between atoms: C_23  and  C_21 
REMARK    7  A    between atoms: C_22  and  C_24 
ROOT
ATOM      1  C   UNL d   1     -51.063  25.841  33.531  0.00  0.00     0.167 A 
ATOM      2  N   UNL d   1     -50.574  26.535  33.589  0.00  0.00    -0.195 N 
ATOM      3  C   UNL d   1     -51.871  25.909  33.566  0.00  0.00     0.057 A 
ATOM      4  C   UNL d   1     -49.772  26.449  33.552  0.00  0.00     0.167 A 
ATOM      5  N   UNL d   1     -51.745  27.334  33.714  0.00  0.00    -0.161 NA
ATOM      6  N   UNL d   1     -50.718  25.107  33.440  0.00  0.00    -0.227 NA
ATOM      7  C   UNL d   1     -49.414  25.712  33.461  0.00  0.00     0.058 A 
ATOM      8  C   UNL d   1     -52.219  26.661  33.658  0.00  0.00     0.124 A 
ATOM      9  C   UNL d   1     -49.896  25.029  33.404  0.00  0.00     0.086 A 
ATOM     10  C   UNL d   1     -49.532  24.255  33.309  0.00  0.00     0.021 C 
ENDROOT
BRANCH   3  11
ATOM     11  C   UNL d   1     -52.345  25.236  33.510  0.00  0.00     0.005 A 
ATOM     12  C   UNL d   1     -53.144  25.314  33.368  0.00  0.00     0.001 A 
ATOM     13  C   UNL d   1     -53.611  24.652  33.312  0.00  0.00     0.011 A 
ATOM     14  C   UNL d   1     -53.286  23.902  33.398  0.00  0.00     0.058 A 
ATOM     15  C   UNL d   1     -52.487  23.825  33.541  0.00  0.00     0.011 A 
ATOM     16 CL   UNL d   1     -53.783  23.196  33.340  0.00  0.00    -0.082 Cl
ATOM     17  C   UNL d   1     -52.012  24.497  33.597  0.00  0.00     0.001 A 
ENDBRANCH   3  11
BRANCH   4  18
ATOM     18  N   UNL d   1     -49.275  27.148  33.610  0.00  0.00    -0.223 NA
BRANCH  18  19
ATOM     19  C   UNL d   1     -49.143  27.982  33.736  0.00  0.00     0.127 C 
BRANCH  19  20
ATOM     20  C   UNL d   1     -48.833  28.238  34.501  0.00  0.00     0.143 C 
BRANCH  20  21
ATOM     21  O   UNL d   1     -48.507  29.026  34.596  0.00  0.00    -0.298 OA
BRANCH  21  22
ATOM     22  C   UNL d   1     -48.059  29.235  35.303  0.00  0.00     0.168 C 
BRANCH  22  23
ATOM     23  C   UNL d   1     -47.202  29.217  35.290  0.00  0.00     0.261 C 
ATOM     24  O   UNL d   1     -46.789  28.754  34.690  0.00  0.00    -0.281 OA
ENDBRANCH  22  23
ENDBRANCH  21  22
ENDBRANCH  20  21
ENDBRANCH  19  20
ENDBRANCH  18  19
ENDBRANCH   4  18
TORSDOF 7
ENDMDL
MODEL 2
REMARK VINA RESULT:      45.1      0.912      1.754
REMARK  7 active torsions:
REMARK  status: ('A' for Active; 'I' for Inactive)
REMARK    1  A    between atoms: C_10  and  C_3 
REMARK    2  A    between atoms: N_11  and  C_4 
REMARK    3  A    between atoms: C_21  and  N_11 
REMARK    4  A    between atoms: O_20  and  C_23 
REMARK    5  A    between atoms: C_24  and  O_20 
REMARK    6  A    between atoms: C_23  and  C_21 
REMARK    7  A    between atoms: C_22  and  C_24 
ROOT
ATOM      1  C   UNL d   1     -50.313  25.988  33.436  0.00  0.00     0.167 A 
ATOM      2  N   UNL d   1     -49.630  26.494  33.458  0.00  0.00    -0.195 N 
ATOM      3  C   UNL d   1     -50.224  25.182  33.463  0.00  0.00     0.057 A 
ATOM      4  C   UNL d   1     -49.738  27.294  33.430  0.00  0.00     0.167 A 
ATOM      5  N   UNL d   1     -48.796  25.343  33.534  0.00  0.00    -0.161 NA
ATOM      6  N   UNL d   1     -51.060  26.314  33.388  0.00  0.00    -0.227 NA
ATOM      7  C   UNL d   1     -50.487  27.633  33.381  0.00  0.00     0.058 A 
ATOM      8  C   UNL d   1     -49.459  24.852  33.513  0.00  0.00     0.124 A 
ATOM      9  C   UNL d   1     -51.160  27.135  33.360  0.00  0.00     0.086 A 
ATOM     10  C   UNL d   1     -51.947  27.480  33.309  0.00  0.00     0.021 C 
ENDROOT
BRANCH   3  11
ATOM     11  C   UNL d   1     -50.887  24.691  33.442  0.00  0.00     0.005 A 
ATOM     12  C   UNL d   1     -51.631  25.012  33.521  0.00  0.00     0.001 A 
ATOM     13  C   UNL d   1     -52.284  24.529  33.501  0.00  0.00     0.011 A 
ATOM     14  C   UNL d   1     -52.201  23.718  33.401  0.00  0.00     0.058 A 
ATOM     15  C   UNL d   1     -51.456  23.397  33.322  0.00  0.00     0.011 A 
ATOM     16 CL   UNL d   1     -52.896  23.203  33.378  0.00  0.00    -0.082 Cl
ATOM     17  C   UNL d   1     -50.793  23.888  33.343  0.00  0.00     0.001 A 
ENDBRANCH   3  11
BRANCH   4  18
ATOM     18  N   UNL d   1     -49.049  27.808  33.452  0.00  0.00    -0.223 NA
BRANCH  18  19
ATOM     19  C   UNL d   1     -48.668  28.572  33.461  0.00  0.00     0.127 C 
BRANCH  19  20
ATOM     20  C   UNL d   1     -48.603  28.990  34.215  0.00  0.00     0.143 C 
BRANCH  20  21
ATOM     21  O   UNL d   1     -47.937  28.845  34.736  0.00  0.00    -0.298 OA
BRANCH  21  22
ATOM     22  C   UNL d   1     -47.614  29.479  35.225  0.00  0.00     0.168 C 
BRANCH  22  23
ATOM     23  C   UNL d   1     -46.925  29.916  34.960  0.00  0.00     0.261 C 
ATOM     24  O   UNL d   1     -46.156  29.528  34.922  0.00  0.00    -0.281 OA
ENDBRANCH  22  23
ENDBRANCH  21  22
ENDBRANCH  20  21
ENDBRANCH  19  20
ENDBRANCH  18  19
ENDBRANCH   4  18
TORSDOF 7
ENDMDL
