MODEL 1
REMARK VINA RESULT:      -5.1      0.000      0.000
REMARK  1 active torsions:
REMARK  status: ('A' for Active; 'I' for Inactive)
REMARK       I    between atoms: C_4  and  N_1 
REMARK    1  A    between atoms: C_7  and  C_4 
ROOT
ATOM      1  N   UNL d   1      57.135  -0.365  31.450  0.00  0.00    -0.175 N 
ATOM      2  N   UNL d   1      57.125   0.463  31.398  0.00  0.00    -0.057 NA
ATOM      3  N   UNL d   1      57.544   0.682  30.733  0.00  0.00    -0.129 NA
ATOM      4  C   UNL d   1      56.774  -0.822  32.044  0.00  0.00     0.282 C 
ATOM      5  C   UNL d   1      57.564  -0.657  30.809  0.00  0.00     0.107 A 
ATOM      6  C   UNL d   1      57.818  -0.011  30.363  0.00  0.00     0.122 A 
ATOM      7  O   UNL d   1      56.833  -1.640  32.018  0.00  0.00    -0.265 OA
ATOM      8  C   UNL d   1      57.757  -1.420  30.571  0.00  0.00     0.021 A 
ATOM      9  C   UNL d   1      58.271  -0.132  29.672  0.00  0.00     0.022 A 
ATOM     10  C   UNL d   1      58.204  -1.540  29.888  0.00  0.00     0.002 A 
ATOM     11  C   UNL d   1      58.463  -0.898  29.436  0.00  0.00     0.002 A 
ENDROOT
BRANCH   4  12
ATOM     12  C   UNL d   1      56.363  -0.448  32.651  0.00  0.00     0.058 A 
ATOM     13  C   UNL d   1      55.538  -0.459  32.661  0.00  0.00     0.005 A 
ATOM     14  C   UNL d   1      55.127  -0.085  33.268  0.00  0.00     0.000 A 
ATOM     15  C   UNL d   1      55.531   0.303  33.870  0.00  0.00     0.000 A 
ATOM     16  C   UNL d   1      56.355   0.317  33.863  0.00  0.00     0.000 A 
ATOM     17  C   UNL d   1      55.105   0.681  34.482  0.00  0.00     0.000 C 
ATOM     18  C   UNL d   1      56.771  -0.057  33.256  0.00  0.00     0.005 A 
ENDBRANCH   4  12
TORSDOF 1
ENDMDL
MODEL 2
REMARK VINA RESULT:      -5.0      1.254      1.679
REMARK  1 active torsions:
REMARK  status: ('A' for Active; 'I' for Inactive)
REMARK       I    between atoms: C_4  and  N_1 
REMARK    1  A    between atoms: C_7  and  C_4 
ROOT
ATOM      1  N   UNL d   1      57.955   0.089  30.874  0.00  0.00    -0.175 N 
ATOM      2  N   UNL d   1      57.387  -0.303  30.412  0.00  0.00    -0.057 NA
ATOM      3  N   UNL d   1      57.689  -0.395  29.660  0.00  0.00    -0.129 NA
ATOM      4  C   UNL d   1      57.876   0.294  31.676  0.00  0.00     0.282 C 
ATOM      5  C   UNL d   1      58.613   0.238  30.399  0.00  0.00     0.107 A 
ATOM      6  C   UNL d   1      58.450  -0.060  29.647  0.00  0.00     0.122 A 
ATOM      7  O   UNL d   1      58.490   0.682  32.057  0.00  0.00    -0.265 OA
ATOM      8  C   UNL d   1      59.334   0.604  30.548  0.00  0.00     0.021 A 
ATOM      9  C   UNL d   1      59.018   0.010  29.039  0.00  0.00     0.022 A 
ATOM     10  C   UNL d   1      59.895   0.673  29.947  0.00  0.00     0.002 A 
ATOM     11  C   UNL d   1      59.741   0.377  29.191  0.00  0.00     0.002 A 
ENDROOT
BRANCH   4  12
ATOM     12  C   UNL d   1      57.182   0.106  32.077  0.00  0.00     0.058 A 
ATOM     13  C   UNL d   1      56.603   0.682  32.196  0.00  0.00     0.005 A 
ATOM     14  C   UNL d   1      55.909   0.494  32.598  0.00  0.00     0.000 A 
ATOM     15  C   UNL d   1      55.785  -0.267  32.883  0.00  0.00     0.000 A 
ATOM     16  C   UNL d   1      56.361  -0.845  32.765  0.00  0.00     0.000 A 
ATOM     17  C   UNL d   1      55.077  -0.449  33.290  0.00  0.00     0.000 C 
ATOM     18  C   UNL d   1      57.057  -0.660  32.364  0.00  0.00     0.005 A 
ENDBRANCH   4  12
TORSDOF 1
ENDMDL
MODEL 3
REMARK VINA RESULT:      -5.0      0.889      3.785
REMARK  1 active torsions:
REMARK  status: ('A' for Active; 'I' for Inactive)
REMARK       I    between atoms: C_4  and  N_1 
REMARK    1  A    between atoms: C_7  and  C_4 
ROOT
ATOM      1  N   UNL d   1      57.319  -0.249  31.554  0.00  0.00    -0.175 N 
ATOM      2  N   UNL d   1      57.623   0.488  31.785  0.00  0.00    -0.057 NA
ATOM      3  N   UNL d   1      57.299   0.681  32.508  0.00  0.00    -0.129 NA
ATOM      4  C   UNL d   1      57.502  -0.655  30.851  0.00  0.00     0.282 C 
ATOM      5  C   UNL d   1      56.804  -0.510  32.142  0.00  0.00     0.107 A 
ATOM      6  C   UNL d   1      56.790   0.064  32.735  0.00  0.00     0.122 A 
ATOM      7  O   UNL d   1      57.155  -1.382  30.701  0.00  0.00    -0.265 OA
ATOM      8  C   UNL d   1      56.347  -1.190  32.220  0.00  0.00     0.021 A 
ATOM      9  C   UNL d   1      56.313  -0.045  33.411  0.00  0.00     0.022 A 
ATOM     10  C   UNL d   1      55.876  -1.298  32.888  0.00  0.00     0.002 A 
ATOM     11  C   UNL d   1      55.856  -0.728  33.486  0.00  0.00     0.002 A 
ENDROOT
BRANCH   4  12
ATOM     12  C   UNL d   1      58.030  -0.320  30.314  0.00  0.00     0.058 A 
ATOM     13  C   UNL d   1      58.803  -0.602  30.264  0.00  0.00     0.005 A 
ATOM     14  C   UNL d   1      59.331  -0.268  29.727  0.00  0.00     0.000 A 
ATOM     15  C   UNL d   1      59.094   0.349  29.237  0.00  0.00     0.000 A 
ATOM     16  C   UNL d   1      58.321   0.632  29.285  0.00  0.00     0.000 A 
ATOM     17  C   UNL d   1      59.637   0.682  28.695  0.00  0.00     0.000 C 
ATOM     18  C   UNL d   1      57.791   0.300  29.821  0.00  0.00     0.005 A 
ENDBRANCH   4  12
TORSDOF 1
ENDMDL
MODEL 4
REMARK VINA RESULT:      -4.2      1.011      3.829
REMARK  1 active torsions:
REMARK  status: ('A' for Active; 'I' for Inactive)
REMARK       I    between atoms: C_4  and  N_1 
REMARK    1  A    between atoms: C_7  and  C_4 
ROOT
ATOM      1  N   UNL d   1      56.828   0.252  32.589  0.00  0.00    -0.175 N 
ATOM      2  N   UNL d   1      57.579   0.483  32.859  0.00  0.00    -0.057 NA
ATOM      3  N   UNL d   1      57.517   0.673  33.651  0.00  0.00    -0.129 NA
ATOM      4  C   UNL d   1      56.640   0.013  31.815  0.00  0.00     0.282 C 
ATOM      5  C   UNL d   1      56.302   0.301  33.221  0.00  0.00     0.107 A 
ATOM      6  C   UNL d   1      56.726   0.561  33.880  0.00  0.00     0.122 A 
ATOM      7  O   UNL d   1      55.869  -0.200  31.633  0.00  0.00    -0.265 OA
ATOM      8  C   UNL d   1      55.497   0.145  33.288  0.00  0.00     0.021 A 
ATOM      9  C   UNL d   1      56.338   0.666  34.612  0.00  0.00     0.022 A 
ATOM     10  C   UNL d   1      55.114   0.248  34.012  0.00  0.00     0.002 A 
ATOM     11  C   UNL d   1      55.531   0.508  34.676  0.00  0.00     0.002 A 
ENDROOT
BRANCH   4  12
ATOM     12  C   UNL d   1      57.230  -0.007  31.241  0.00  0.00     0.058 A 
ATOM     13  C   UNL d   1      57.615  -0.716  31.068  0.00  0.00     0.005 A 
ATOM     14  C   UNL d   1      58.205  -0.736  30.493  0.00  0.00     0.000 A 
ATOM     15  C   UNL d   1      58.417  -0.053  30.087  0.00  0.00     0.000 A 
ATOM     16  C   UNL d   1      58.034   0.657  30.259  0.00  0.00     0.000 A 
ATOM     17  C   UNL d   1      59.017  -0.083  29.506  0.00  0.00     0.000 C 
ATOM     18  C   UNL d   1      57.443   0.680  30.833  0.00  0.00     0.005 A 
ENDBRANCH   4  12
TORSDOF 1
ENDMDL
