MODEL 1
REMARK VINA RESULT:      -5.7      0.000      0.000
REMARK  5 active torsions:
REMARK  status: ('A' for Active; 'I' for Inactive)
REMARK    1  A    between atoms: C_5  and  N_1 
REMARK    2  A    between atoms: C_2  and  N_3 
REMARK    3  A    between atoms: C_7  and  C_2 
REMARK    4  A    between atoms: N_4  and  C_8 
REMARK    5  A    between atoms: N_16  and  C_11 
ROOT
ATOM      1  N   UNL d   1     -39.902  14.882  19.883  0.00  0.00    -0.293 N 
ATOM      2  N   UNL d   1     -39.305  14.598  18.378  0.00  0.00    -0.301 N 
ATOM      3  C   UNL d   1     -40.238  14.285  19.411  0.00  0.00     0.100 A 
ATOM      4  C   UNL d   1     -39.280  15.328  19.609  0.00  0.00     0.100 A 
ATOM      5  C   UNL d   1     -38.974  15.190  18.849  0.00  0.00     0.100 A 
ATOM      6  C   UNL d   1     -39.942  14.146  18.667  0.00  0.00     0.100 A 
ENDROOT
BRANCH   1   7
ATOM      7  C   UNL d   1     -40.207  15.019  20.640  0.00  0.00     0.120 C 
ATOM      8  S   UNL d   1     -40.939  15.392  20.734  0.00  0.00    -0.059 SA
BRANCH   7   9
ATOM      9  C   UNL d   1     -39.779  14.781  21.301  0.00  0.00     0.027 A 
ATOM     10  C   UNL d   1     -39.359  15.332  21.743  0.00  0.00     0.004 A 
ATOM     11  C   UNL d   1     -38.929  15.095  22.406  0.00  0.00     0.018 A 
ATOM     12  C   UNL d   1     -38.925  14.292  22.622  0.00  0.00     0.064 A 
ATOM     13  C   UNL d   1     -39.348  13.744  22.176  0.00  0.00     0.018 A 
ATOM     14  C   UNL d   1     -39.774  13.984  21.517  0.00  0.00     0.004 A 
BRANCH  12  15
ATOM     15  N   UNL d   1     -38.495  14.056  23.286  0.00  0.00    -0.301 N 
ATOM     16  C   UNL d   1     -38.611  13.298  23.599  0.00  0.00     0.100 C 
ATOM     17  C   UNL d   1     -37.952  14.573  23.634  0.00  0.00     0.100 C 
ENDBRANCH  12  15
ENDBRANCH   7   9
ENDBRANCH   1   7
BRANCH   2  18
ATOM     18  C   UNL d   1     -39.003  14.458  17.622  0.00  0.00     0.064 A 
ATOM     19  C   UNL d   1     -38.552  13.791  17.485  0.00  0.00     0.019 A 
ATOM     20  C   UNL d   1     -38.250  13.650  16.729  0.00  0.00     0.025 A 
ATOM     21  C   UNL d   1     -38.406  14.183  16.119  0.00  0.00     0.127 A 
ATOM     22  C   UNL d   1     -38.862  14.858  16.259  0.00  0.00     0.025 A 
ATOM     23  C   UNL d   1     -39.159  14.992  17.010  0.00  0.00     0.019 A 
BRANCH  21  24
ATOM     24  N   UNL d   1     -38.105  14.044  15.366  0.00  0.00    -0.114 N 
ATOM     25  O   UNL d   1     -37.953  14.678  14.855  0.00  0.00    -0.532 OA
ATOM     26  O   UNL d   1     -37.953  13.274  15.113  0.00  0.00    -0.532 OA
ENDBRANCH  21  24
ENDBRANCH   2  18
TORSDOF 5
ENDMDL
MODEL 2
REMARK VINA RESULT:      -5.6      8.280      9.759
REMARK  5 active torsions:
REMARK  status: ('A' for Active; 'I' for Inactive)
REMARK    1  A    between atoms: C_5  and  N_1 
REMARK    2  A    between atoms: C_2  and  N_3 
REMARK    3  A    between atoms: C_7  and  C_2 
REMARK    4  A    between atoms: N_4  and  C_8 
REMARK    5  A    between atoms: N_16  and  C_11 
ROOT
ATOM      1  N   UNL d   1     -46.987  13.650  22.740  0.00  0.00    -0.293 N 
ATOM      2  N   UNL d   1     -45.956  12.397  23.001  0.00  0.00    -0.301 N 
ATOM      3  C   UNL d   1     -47.054  13.199  23.435  0.00  0.00     0.100 A 
ATOM      4  C   UNL d   1     -46.417  13.478  22.186  0.00  0.00     0.100 A 
ATOM      5  C   UNL d   1     -45.893  12.847  22.312  0.00  0.00     0.100 A 
ATOM      6  C   UNL d   1     -46.543  12.579  23.563  0.00  0.00     0.100 A 
ENDROOT
BRANCH   1   7
ATOM      7  C   UNL d   1     -47.510  14.279  22.614  0.00  0.00     0.120 C 
ATOM      8  S   UNL d   1     -47.244  15.060  22.668  0.00  0.00    -0.059 SA
BRANCH   7   9
ATOM      9  C   UNL d   1     -48.299  14.124  22.436  0.00  0.00     0.027 A 
ATOM     10  C   UNL d   1     -48.514  13.892  21.679  0.00  0.00     0.004 A 
ATOM     11  C   UNL d   1     -49.304  13.736  21.499  0.00  0.00     0.018 A 
ATOM     12  C   UNL d   1     -49.880  13.817  22.093  0.00  0.00     0.064 A 
ATOM     13  C   UNL d   1     -49.658  14.051  22.852  0.00  0.00     0.018 A 
ATOM     14  C   UNL d   1     -48.871  14.204  23.026  0.00  0.00     0.004 A 
BRANCH  12  15
ATOM     15  N   UNL d   1     -50.670  13.661  21.913  0.00  0.00    -0.301 N 
ATOM     16  C   UNL d   1     -51.064  14.138  21.363  0.00  0.00     0.100 C 
ATOM     17  C   UNL d   1     -51.064  13.033  22.279  0.00  0.00     0.100 C 
ENDBRANCH  12  15
ENDBRANCH   7   9
ENDBRANCH   1   7
BRANCH   2  18
ATOM     18  C   UNL d   1     -45.437  11.768  23.130  0.00  0.00     0.064 A 
ATOM     19  C   UNL d   1     -45.700  11.101  23.522  0.00  0.00     0.019 A 
ATOM     20  C   UNL d   1     -45.180  10.472  23.651  0.00  0.00     0.025 A 
ATOM     21  C   UNL d   1     -44.401  10.521  23.384  0.00  0.00     0.127 A 
ATOM     22  C   UNL d   1     -44.136  11.196  22.988  0.00  0.00     0.025 A 
ATOM     23  C   UNL d   1     -44.656  11.817  22.863  0.00  0.00     0.019 A 
BRANCH  21  24
ATOM     24  N   UNL d   1     -43.883   9.894  23.513  0.00  0.00    -0.114 N 
ATOM     25  O   UNL d   1     -44.154   9.113  23.456  0.00  0.00    -0.532 OA
ATOM     26  O   UNL d   1     -43.093  10.037  23.698  0.00  0.00    -0.532 OA
ENDBRANCH  21  24
ENDBRANCH   2  18
TORSDOF 5
ENDMDL
MODEL 3
REMARK VINA RESULT:      -4.9      8.547      9.787
REMARK  5 active torsions:
REMARK  status: ('A' for Active; 'I' for Inactive)
REMARK    1  A    between atoms: C_5  and  N_1 
REMARK    2  A    between atoms: C_2  and  N_3 
REMARK    3  A    between atoms: C_7  and  C_2 
REMARK    4  A    between atoms: N_4  and  C_8 
REMARK    5  A    between atoms: N_16  and  C_11 
ROOT
ATOM      1  N   UNL d   1     -48.166  12.511  23.058  0.00  0.00    -0.293 N 
ATOM      2  N   UNL d   1     -46.576  12.555  22.646  0.00  0.00    -0.301 N 
ATOM      3  C   UNL d   1     -47.587  12.348  23.632  0.00  0.00     0.100 A 
ATOM      4  C   UNL d   1     -47.956  12.692  22.294  0.00  0.00     0.100 A 
ATOM      5  C   UNL d   1     -47.154  12.716  22.079  0.00  0.00     0.100 A 
ATOM      6  C   UNL d   1     -46.800  12.370  23.426  0.00  0.00     0.100 A 
ENDROOT
BRANCH   1   7
ATOM      7  C   UNL d   1     -48.965  12.487  23.273  0.00  0.00     0.120 C 
ATOM      8  S   UNL d   1     -49.300  11.788  23.560  0.00  0.00    -0.059 SA
BRANCH   7   9
ATOM      9  C   UNL d   1     -49.427  13.164  23.199  0.00  0.00     0.027 A 
ATOM     10  C   UNL d   1     -49.305  13.806  23.698  0.00  0.00     0.004 A 
ATOM     11  C   UNL d   1     -49.767  14.485  23.625  0.00  0.00     0.018 A 
ATOM     12  C   UNL d   1     -50.359  14.514  23.041  0.00  0.00     0.064 A 
ATOM     13  C   UNL d   1     -50.477  13.867  22.544  0.00  0.00     0.018 A 
ATOM     14  C   UNL d   1     -50.015  13.194  22.620  0.00  0.00     0.004 A 
BRANCH  12  15
ATOM     15  N   UNL d   1     -50.821  15.194  22.969  0.00  0.00    -0.301 N 
ATOM     16  C   UNL d   1     -51.064  15.443  22.218  0.00  0.00     0.100 C 
ATOM     17  C   UNL d   1     -51.037  15.622  23.642  0.00  0.00     0.100 C 
ENDBRANCH  12  15
ENDBRANCH   7   9
ENDBRANCH   1   7
BRANCH   2  18
ATOM     18  C   UNL d   1     -45.777  12.578  22.436  0.00  0.00     0.064 A 
ATOM     19  C   UNL d   1     -45.483  13.227  22.037  0.00  0.00     0.019 A 
ATOM     20  C   UNL d   1     -44.684  13.250  21.827  0.00  0.00     0.025 A 
ATOM     21  C   UNL d   1     -44.190  12.619  22.021  0.00  0.00     0.127 A 
ATOM     22  C   UNL d   1     -44.489  11.962  22.425  0.00  0.00     0.025 A 
ATOM     23  C   UNL d   1     -45.281  11.945  22.631  0.00  0.00     0.019 A 
BRANCH  21  24
ATOM     24  N   UNL d   1     -43.395  12.641  21.812  0.00  0.00    -0.114 N 
ATOM     25  O   UNL d   1     -42.858  12.116  22.162  0.00  0.00    -0.532 OA
ATOM     26  O   UNL d   1     -43.125  13.185  21.255  0.00  0.00    -0.532 OA
ENDBRANCH  21  24
ENDBRANCH   2  18
TORSDOF 5
ENDMDL
MODEL 4
REMARK VINA RESULT:      -3.9      2.949      5.504
REMARK  5 active torsions:
REMARK  status: ('A' for Active; 'I' for Inactive)
REMARK    1  A    between atoms: C_5  and  N_1 
REMARK    2  A    between atoms: C_2  and  N_3 
REMARK    3  A    between atoms: C_7  and  C_2 
REMARK    4  A    between atoms: N_4  and  C_8 
REMARK    5  A    between atoms: N_16  and  C_11 
ROOT
ATOM      1  N   UNL d   1     -38.830  14.383  18.410  0.00  0.00    -0.293 N 
ATOM      2  N   UNL d   1     -38.752  14.051  20.018  0.00  0.00    -0.301 N 
ATOM      3  C   UNL d   1     -38.928  13.601  18.676  0.00  0.00     0.100 A 
ATOM      4  C   UNL d   1     -38.696  14.987  18.938  0.00  0.00     0.100 A 
ATOM      5  C   UNL d   1     -38.656  14.826  19.752  0.00  0.00     0.100 A 
ATOM      6  C   UNL d   1     -38.889  13.438  19.472  0.00  0.00     0.100 A 
ENDROOT
BRANCH   1   7
ATOM      7  C   UNL d   1     -38.871  14.543  17.599  0.00  0.00     0.120 C 
ATOM      8  S   UNL d   1     -38.218  14.403  17.113  0.00  0.00    -0.059 SA
BRANCH   7   9
ATOM      9  C   UNL d   1     -39.567  14.843  17.278  0.00  0.00     0.027 A 
ATOM     10  C   UNL d   1     -39.594  15.613  16.995  0.00  0.00     0.004 A 
ATOM     11  C   UNL d   1     -40.291  15.915  16.672  0.00  0.00     0.018 A 
ATOM     12  C   UNL d   1     -40.966  15.430  16.637  0.00  0.00     0.064 A 
ATOM     13  C   UNL d   1     -40.932  14.658  16.923  0.00  0.00     0.018 A 
ATOM     14  C   UNL d   1     -40.238  14.362  17.243  0.00  0.00     0.004 A 
BRANCH  12  15
ATOM     15  N   UNL d   1     -41.663  15.732  16.315  0.00  0.00    -0.301 N 
ATOM     16  C   UNL d   1     -42.295  15.922  16.815  0.00  0.00     0.100 C 
ATOM     17  C   UNL d   1     -41.728  15.844  15.498  0.00  0.00     0.100 C 
ENDBRANCH  12  15
ENDBRANCH   7   9
ENDBRANCH   1   7
BRANCH   2  18
ATOM     18  C   UNL d   1     -38.712  13.887  20.827  0.00  0.00     0.064 A 
ATOM     19  C   UNL d   1     -39.392  13.684  21.232  0.00  0.00     0.019 A 
ATOM     20  C   UNL d   1     -39.352  13.519  22.040  0.00  0.00     0.025 A 
ATOM     21  C   UNL d   1     -38.628  13.561  22.433  0.00  0.00     0.127 A 
ATOM     22  C   UNL d   1     -37.941  13.767  22.023  0.00  0.00     0.025 A 
ATOM     23  C   UNL d   1     -37.987  13.929  21.221  0.00  0.00     0.019 A 
BRANCH  21  24
ATOM     24  N   UNL d   1     -38.588  13.398  23.239  0.00  0.00    -0.114 N 
ATOM     25  O   UNL d   1     -37.974  13.712  23.697  0.00  0.00    -0.532 OA
ATOM     26  O   UNL d   1     -39.157  12.921  23.596  0.00  0.00    -0.532 OA
ENDBRANCH  21  24
ENDBRANCH   2  18
TORSDOF 5
ENDMDL
MODEL 5
REMARK VINA RESULT:      -3.3      1.814      2.353
REMARK  5 active torsions:
REMARK  status: ('A' for Active; 'I' for Inactive)
REMARK    1  A    between atoms: C_5  and  N_1 
REMARK    2  A    between atoms: C_2  and  N_3 
REMARK    3  A    between atoms: C_7  and  C_2 
REMARK    4  A    between atoms: N_4  and  C_8 
REMARK    5  A    between atoms: N_16  and  C_11 
ROOT
ATOM      1  N   UNL d   1     -38.635  14.803  18.944  0.00  0.00    -0.293 N 
ATOM      2  N   UNL d   1     -38.420  14.499  17.343  0.00  0.00    -0.301 N 
ATOM      3  C   UNL d   1     -38.233  15.355  18.469  0.00  0.00     0.100 A 
ATOM      4  C   UNL d   1     -38.924  14.113  18.625  0.00  0.00     0.100 A 
ATOM      5  C   UNL d   1     -38.819  13.953  17.817  0.00  0.00     0.100 A 
ATOM      6  C   UNL d   1     -38.127  15.203  17.677  0.00  0.00     0.100 A 
ENDROOT
BRANCH   1   7
ATOM      7  C   UNL d   1     -38.739  14.962  19.749  0.00  0.00     0.120 C 
ATOM      8  S   UNL d   1     -38.085  15.082  20.239  0.00  0.00    -0.059 SA
BRANCH   7   9
ATOM      9  C   UNL d   1     -39.500  15.001  20.061  0.00  0.00     0.027 A 
ATOM     10  C   UNL d   1     -39.944  15.688  19.985  0.00  0.00     0.004 A 
ATOM     11  C   UNL d   1     -40.706  15.729  20.297  0.00  0.00     0.018 A 
ATOM     12  C   UNL d   1     -41.021  15.067  20.690  0.00  0.00     0.064 A 
ATOM     13  C   UNL d   1     -40.570  14.381  20.763  0.00  0.00     0.018 A 
ATOM     14  C   UNL d   1     -39.813  14.345  20.451  0.00  0.00     0.004 A 
BRANCH  12  15
ATOM     15  N   UNL d   1     -41.784  15.108  21.002  0.00  0.00    -0.301 N 
ATOM     16  C   UNL d   1     -42.194  15.826  20.981  0.00  0.00     0.100 C 
ATOM     17  C   UNL d   1     -42.134  14.436  21.333  0.00  0.00     0.100 C 
ENDBRANCH  12  15
ENDBRANCH   7   9
ENDBRANCH   1   7
BRANCH   2  18
ATOM     18  C   UNL d   1     -38.314  14.344  16.538  0.00  0.00     0.064 A 
ATOM     19  C   UNL d   1     -38.136  13.585  16.293  0.00  0.00     0.019 A 
ATOM     20  C   UNL d   1     -38.030  13.430  15.489  0.00  0.00     0.025 A 
ATOM     21  C   UNL d   1     -38.103  14.040  14.940  0.00  0.00     0.127 A 
ATOM     22  C   UNL d   1     -38.283  14.808  15.188  0.00  0.00     0.025 A 
ATOM     23  C   UNL d   1     -38.388  14.956  15.987  0.00  0.00     0.019 A 
BRANCH  21  24
ATOM     24  N   UNL d   1     -37.997  13.886  14.138  0.00  0.00    -0.114 N 
ATOM     25  O   UNL d   1     -37.947  13.104  13.869  0.00  0.00    -0.532 OA
ATOM     26  O   UNL d   1     -37.940  14.505  13.598  0.00  0.00    -0.532 OA
ENDBRANCH  21  24
ENDBRANCH   2  18
TORSDOF 5
ENDMDL
MODEL 6
REMARK VINA RESULT:      -3.1      8.378      9.754
REMARK  5 active torsions:
REMARK  status: ('A' for Active; 'I' for Inactive)
REMARK    1  A    between atoms: C_5  and  N_1 
REMARK    2  A    between atoms: C_2  and  N_3 
REMARK    3  A    between atoms: C_7  and  C_2 
REMARK    4  A    between atoms: N_4  and  C_8 
REMARK    5  A    between atoms: N_16  and  C_11 
ROOT
ATOM      1  N   UNL d   1     -46.733  12.496  23.105  0.00  0.00    -0.293 N 
ATOM      2  N   UNL d   1     -48.034  13.494  23.000  0.00  0.00    -0.301 N 
ATOM      3  C   UNL d   1     -46.747  13.204  23.541  0.00  0.00     0.100 A 
ATOM      4  C   UNL d   1     -47.357  12.290  22.626  0.00  0.00     0.100 A 
ATOM      5  C   UNL d   1     -48.018  12.791  22.569  0.00  0.00     0.100 A 
ATOM      6  C   UNL d   1     -47.391  13.697  23.488  0.00  0.00     0.100 A 
ENDROOT
BRANCH   1   7
ATOM      7  C   UNL d   1     -46.074  11.998  23.163  0.00  0.00     0.120 C 
ATOM      8  S   UNL d   1     -46.104  11.319  23.634  0.00  0.00    -0.059 SA
BRANCH   7   9
ATOM      9  C   UNL d   1     -45.388  12.181  22.748  0.00  0.00     0.027 A 
ATOM     10  C   UNL d   1     -45.391  12.781  22.186  0.00  0.00     0.004 A 
ATOM     11  C   UNL d   1     -44.704  12.966  21.770  0.00  0.00     0.018 A 
ATOM     12  C   UNL d   1     -44.007  12.539  21.924  0.00  0.00     0.064 A 
ATOM     13  C   UNL d   1     -44.010  11.938  22.488  0.00  0.00     0.018 A 
ATOM     14  C   UNL d   1     -44.696  11.758  22.900  0.00  0.00     0.004 A 
BRANCH  12  15
ATOM     15  N   UNL d   1     -43.319  12.724  21.507  0.00  0.00    -0.301 N 
ATOM     16  C   UNL d   1     -43.376  13.137  20.792  0.00  0.00     0.100 C 
ATOM     17  C   UNL d   1     -42.581  12.499  21.802  0.00  0.00     0.100 C 
ENDBRANCH  12  15
ENDBRANCH   7   9
ENDBRANCH   1   7
BRANCH   2  18
ATOM     18  C   UNL d   1     -48.690  13.994  22.946  0.00  0.00     0.064 A 
ATOM     19  C   UNL d   1     -48.599  14.747  22.642  0.00  0.00     0.019 A 
ATOM     20  C   UNL d   1     -49.255  15.247  22.588  0.00  0.00     0.025 A 
ATOM     21  C   UNL d   1     -49.994  14.983  22.839  0.00  0.00     0.127 A 
ATOM     22  C   UNL d   1     -50.085  14.222  23.146  0.00  0.00     0.025 A 
ATOM     23  C   UNL d   1     -49.432  13.730  23.198  0.00  0.00     0.019 A 
BRANCH  21  24
ATOM     24  N   UNL d   1     -50.647  15.481  22.785  0.00  0.00    -0.114 N 
ATOM     25  O   UNL d   1     -51.064  15.544  22.072  0.00  0.00    -0.532 OA
ATOM     26  O   UNL d   1     -50.892  15.922  23.437  0.00  0.00    -0.532 OA
ENDBRANCH  21  24
ENDBRANCH   2  18
TORSDOF 5
ENDMDL
MODEL 7
REMARK VINA RESULT:      -2.8      1.727      2.428
REMARK  5 active torsions:
REMARK  status: ('A' for Active; 'I' for Inactive)
REMARK    1  A    between atoms: C_5  and  N_1 
REMARK    2  A    between atoms: C_2  and  N_3 
REMARK    3  A    between atoms: C_7  and  C_2 
REMARK    4  A    between atoms: N_4  and  C_8 
REMARK    5  A    between atoms: N_16  and  C_11 
ROOT
ATOM      1  N   UNL d   1     -40.137  15.312  19.865  0.00  0.00    -0.293 N 
ATOM      2  N   UNL d   1     -39.466  15.283  18.365  0.00  0.00    -0.301 N 
ATOM      3  C   UNL d   1     -40.443  15.801  19.266  0.00  0.00     0.100 A 
ATOM      4  C   UNL d   1     -39.508  14.819  19.718  0.00  0.00     0.100 A 
ATOM      5  C   UNL d   1     -39.164  14.799  18.962  0.00  0.00     0.100 A 
ATOM      6  C   UNL d   1     -40.110  15.785  18.524  0.00  0.00     0.100 A 
ENDROOT
BRANCH   1   7
ATOM      7  C   UNL d   1     -40.480  15.333  20.618  0.00  0.00     0.120 C 
ATOM      8  S   UNL d   1     -40.247  15.905  21.168  0.00  0.00    -0.059 SA
BRANCH   7   9
ATOM      9  C   UNL d   1     -41.055  14.779  20.818  0.00  0.00     0.027 A 
ATOM     10  C   UNL d   1     -40.839  14.021  21.048  0.00  0.00     0.004 A 
ATOM     11  C   UNL d   1     -41.414  13.465  21.249  0.00  0.00     0.018 A 
ATOM     12  C   UNL d   1     -42.217  13.681  21.216  0.00  0.00     0.064 A 
ATOM     13  C   UNL d   1     -42.428  14.444  20.985  0.00  0.00     0.018 A 
ATOM     14  C   UNL d   1     -41.852  14.992  20.786  0.00  0.00     0.004 A 
BRANCH  12  15
ATOM     15  N   UNL d   1     -42.792  13.125  21.418  0.00  0.00    -0.301 N 
ATOM     16  C   UNL d   1     -42.564  12.350  21.599  0.00  0.00     0.100 C 
ATOM     17  C   UNL d   1     -43.590  13.341  21.438  0.00  0.00     0.100 C 
ENDBRANCH  12  15
ENDBRANCH   7   9
ENDBRANCH   1   7
BRANCH   2  18
ATOM     18  C   UNL d   1     -39.127  15.266  17.612  0.00  0.00     0.064 A 
ATOM     19  C   UNL d   1     -39.482  14.831  17.019  0.00  0.00     0.019 A 
ATOM     20  C   UNL d   1     -39.143  14.814  16.265  0.00  0.00     0.025 A 
ATOM     21  C   UNL d   1     -38.450  15.235  16.118  0.00  0.00     0.127 A 
ATOM     22  C   UNL d   1     -38.090  15.674  16.718  0.00  0.00     0.025 A 
ATOM     23  C   UNL d   1     -38.431  15.687  17.463  0.00  0.00     0.019 A 
BRANCH  21  24
ATOM     24  N   UNL d   1     -38.112  15.218  15.367  0.00  0.00    -0.114 N 
ATOM     25  O   UNL d   1     -37.940  14.493  15.005  0.00  0.00    -0.532 OA
ATOM     26  O   UNL d   1     -37.941  15.920  14.971  0.00  0.00    -0.532 OA
ENDBRANCH  21  24
ENDBRANCH   2  18
TORSDOF 5
ENDMDL
