MODEL 1
REMARK VINA RESULT:      63.3      0.000      0.000
REMARK  3 active torsions:
REMARK  status: ('A' for Active; 'I' for Inactive)
REMARK    1  A    between atoms: C_5  and  N_1 
REMARK    2  A    between atoms: C_13  and  C_6 
REMARK    3  A    between atoms: O_24  and  C_19 
ROOT
ATOM      1  N   UNL d   1      13.789  13.503  -3.074  0.00  0.00    -0.256 N 
ATOM      2  C   UNL d   1      14.476  14.181  -2.140  0.00  0.00     0.083 A 
ATOM      3  C   UNL d   1      14.165  14.723  -2.675  0.00  0.00     0.161 A 
ATOM      4  C   UNL d   1      13.739  14.309  -3.255  0.00  0.00     0.289 A 
ATOM      5  C   UNL d   1      14.246  13.424  -2.384  0.00  0.00     0.075 A 
ATOM      6  C   UNL d   1      14.929  14.437  -1.501  0.00  0.00     0.201 A 
ATOM      7  O   UNL d   1      14.309  15.536  -2.568  0.00  0.00    -0.302 OA
ATOM      8  C   UNL d   1      15.069  15.243  -1.398  0.00  0.00     0.063 A 
ATOM      9  C   UNL d   1      14.759  15.789  -1.931  0.00  0.00     0.103 A 
ATOM     10  O   UNL d   1      13.340  14.636  -3.891  0.00  0.00    -0.264 OA
ATOM     11  O   UNL d   1      15.240  13.895  -0.966  0.00  0.00    -0.286 OA
ATOM     12  C   UNL d   1      15.523  15.502  -0.756  0.00  0.00     0.017 A 
ATOM     13  C   UNL d   1      14.906  16.602  -1.820  0.00  0.00     0.026 A 
ATOM     14  C   UNL d   1      15.666  16.303  -0.649  0.00  0.00     0.058 A 
ATOM     15  C   UNL d   1      15.357  16.854  -1.182  0.00  0.00     0.013 A 
ATOM     16 CL   UNL d   1      16.115  16.559  -0.014  0.00  0.00    -0.082 Cl
ENDROOT
BRANCH   5  17
ATOM     17  C   UNL d   1      14.555  12.879  -1.851  0.00  0.00     0.039 A 
ATOM     18  C   UNL d   1      14.074  12.538  -1.271  0.00  0.00     0.096 A 
ATOM     19  C   UNL d   1      14.387  11.993  -0.741  0.00  0.00     0.024 A 
ATOM     20  C   UNL d   1      15.190  11.781  -0.785  0.00  0.00     0.002 A 
ATOM     21  C   UNL d   1      15.672  12.121  -1.365  0.00  0.00     0.000 A 
ATOM     22  C   UNL d   1      15.352  12.671  -1.898  0.00  0.00     0.003 A 
BRANCH  18  23
ATOM     23  O   UNL d   1      13.279  12.751  -1.232  0.00  0.00    -0.328 OA
ATOM     24  C   UNL d   1      12.771  12.343  -0.729  0.00  0.00     0.181 C 
ENDBRANCH  18  23
ENDBRANCH   5  17
BRANCH   1  25
ATOM     25  C   UNL d   1      13.448  12.888  -3.500  0.00  0.00     0.179 A 
ATOM     26  N   UNL d   1      13.016  12.266  -3.190  0.00  0.00    -0.108 NA
ATOM     27  O   UNL d   1      12.780  11.779  -3.811  0.00  0.00    -0.210 OA
ATOM     28  C   UNL d   1      13.070  12.104  -4.509  0.00  0.00     0.128 A 
ATOM     29  C   UNL d   1      13.484  12.790  -4.322  0.00  0.00     0.067 A 
ATOM     30  C   UNL d   1      12.965  11.798  -5.269  0.00  0.00     0.029 C 
ENDBRANCH   1  25
TORSDOF 3
ENDMDL
