MODEL 1
REMARK VINA RESULT:      42.5      0.000      0.000
REMARK  2 active torsions:
REMARK  status: ('A' for Active; 'I' for Inactive)
REMARK    1  A    between atoms: C_9  and  N_1 
REMARK    2  A    between atoms: C_8  and  N_2 
ROOT
ATOM      1  N   UNL d   1     -58.328 -98.793 -44.291  0.00  0.00    -0.208 N 
ATOM      2  N   UNL d   1     -57.553 -98.818 -44.001  0.00  0.00    -0.208 N 
ATOM      3  C   UNL d   1     -57.578 -98.823 -43.177  0.00  0.00     0.284 A 
ATOM      4  C   UNL d   1     -58.838 -98.781 -43.640  0.00  0.00     0.284 A 
ATOM      5  C   UNL d   1     -58.375 -98.800 -42.953  0.00  0.00     0.125 A 
ATOM      6  O   UNL d   1     -56.934 -98.846 -42.671  0.00  0.00    -0.265 OA
ATOM      7  O   UNL d   1     -59.668 -98.755 -43.670  0.00  0.00    -0.265 OA
ENDROOT
BRANCH   1   8
ATOM      8  C   UNL d   1     -58.551 -98.781 -45.082  0.00  0.00     0.085 A 
ATOM      9  C   UNL d   1     -57.971 -98.768 -45.678  0.00  0.00     0.019 A 
ATOM     10  C   UNL d   1     -58.193 -98.756 -46.472  0.00  0.00     0.002 A 
ATOM     11  C   UNL d   1     -59.002 -98.757 -46.677  0.00  0.00     0.000 A 
ATOM     12  C   UNL d   1     -59.579 -98.770 -46.079  0.00  0.00     0.002 A 
ATOM     13  C   UNL d   1     -59.348 -98.782 -45.283  0.00  0.00     0.019 A 
ENDBRANCH   1   8
BRANCH   2  14
ATOM     14  C   UNL d   1     -56.871 -98.836 -44.464  0.00  0.00     0.085 A 
ATOM     15  C   UNL d   1     -56.925 -98.933 -45.282  0.00  0.00     0.019 A 
ATOM     16  C   UNL d   1     -56.246 -98.951 -45.742  0.00  0.00     0.002 A 
ATOM     17  C   UNL d   1     -55.498 -98.871 -45.382  0.00  0.00     0.000 A 
ATOM     18  C   UNL d   1     -55.445 -98.774 -44.565  0.00  0.00     0.002 A 
ATOM     19  C   UNL d   1     -56.130 -98.757 -44.110  0.00  0.00     0.019 A 
ENDBRANCH   2  14
TORSDOF 2
ENDMDL
MODEL 2
REMARK VINA RESULT:      44.2      2.560      3.803
REMARK  2 active torsions:
REMARK  status: ('A' for Active; 'I' for Inactive)
REMARK    1  A    between atoms: C_9  and  N_1 
REMARK    2  A    between atoms: C_8  and  N_2 
ROOT
ATOM      1  N   UNL d   1     -55.019-100.922 -43.466  0.00  0.00    -0.208 N 
ATOM      2  N   UNL d   1     -55.111-100.100 -43.482  0.00  0.00    -0.208 N 
ATOM      3  C   UNL d   1     -54.997 -99.805 -42.720  0.00  0.00     0.284 A 
ATOM      4  C   UNL d   1     -54.847-101.139 -42.687  0.00  0.00     0.284 A 
ATOM      5  C   UNL d   1     -54.833-100.449 -42.227  0.00  0.00     0.125 A 
ATOM      6  O   UNL d   1     -55.038 -99.019 -42.493  0.00  0.00    -0.265 OA
ATOM      7  O   UNL d   1     -54.711-101.912 -42.413  0.00  0.00    -0.265 OA
ENDROOT
BRANCH   1   8
ATOM      8  C   UNL d   1     -55.087-101.432 -44.107  0.00  0.00     0.085 A 
ATOM      9  C   UNL d   1     -55.531-102.131 -44.037  0.00  0.00     0.019 A 
ATOM     10  C   UNL d   1     -55.601-102.645 -44.678  0.00  0.00     0.002 A 
ATOM     11  C   UNL d   1     -55.223-102.461 -45.400  0.00  0.00     0.000 A 
ATOM     12  C   UNL d   1     -54.779-101.762 -45.466  0.00  0.00     0.002 A 
ATOM     13  C   UNL d   1     -54.714-101.250 -44.817  0.00  0.00     0.019 A 
ENDBRANCH   1   8
BRANCH   2  14
ATOM     14  C   UNL d   1     -55.287 -99.653 -44.152  0.00  0.00     0.085 A 
ATOM     15  C   UNL d   1     -56.037 -99.323 -44.248  0.00  0.00     0.019 A 
ATOM     16  C   UNL d   1     -56.212 -98.878 -44.914  0.00  0.00     0.002 A 
ATOM     17  C   UNL d   1     -55.629 -98.759 -45.498  0.00  0.00     0.000 A 
ATOM     18  C   UNL d   1     -54.879 -99.089 -45.403  0.00  0.00     0.002 A 
ATOM     19  C   UNL d   1     -54.712 -99.534 -44.731  0.00  0.00     0.019 A 
ENDBRANCH   2  14
TORSDOF 2
ENDMDL
