MODEL 1
REMARK VINA RESULT:      -5.8      0.000      0.000
REMARK  4 active torsions:
REMARK  status: ('A' for Active; 'I' for Inactive)
REMARK    1  A    between atoms: C_7  and  C_2 
REMARK    2  A    between atoms: O_8  and  C_7 
REMARK    3  A    between atoms: C_9  and  O_8 
REMARK    4  A    between atoms: O_11  and  C_10 
ROOT
ATOM      1  C   UNL d   1     -41.802-123.008 -51.577  0.00  0.00     0.161 C 
ENDROOT
BRANCH   1   2
ATOM      2  C   UNL d   1     -41.709-123.076 -50.763  0.00  0.00     0.188 A 
ATOM      3  N   UNL d   1     -42.430-122.937 -50.356  0.00  0.00    -0.224 NA
ATOM      4  C   UNL d   1     -42.279-123.018 -49.543  0.00  0.00     0.101 A 
ATOM      5  C   UNL d   1     -41.479-123.204 -49.443  0.00  0.00     0.101 A 
ATOM      6  C   UNL d   1     -42.777-122.943 -48.893  0.00  0.00     0.021 A 
ATOM      7  C   UNL d   1     -41.183-123.315 -48.677  0.00  0.00     0.021 A 
ATOM      8  N   UNL d   1     -41.127-123.240 -50.192  0.00  0.00    -0.224 NA
ATOM      9  C   UNL d   1     -41.680-123.241 -48.027  0.00  0.00     0.002 A 
ATOM     10  C   UNL d   1     -42.479-123.054 -48.136  0.00  0.00     0.002 A 
ENDBRANCH   1   2
BRANCH   1  11
ATOM     11  O   UNL d   1     -41.150-122.943 -52.061  0.00  0.00    -0.302 OA
BRANCH  11  12
ATOM     12  C   UNL d   1     -41.230-123.010 -52.880  0.00  0.00     0.102 A 
ATOM     13  C   UNL d   1     -41.403-122.342 -53.325  0.00  0.00     0.049 A 
ATOM     14  C   UNL d   1     -41.483-122.410 -54.145  0.00  0.00     0.096 A 
ATOM     15  C   UNL d   1     -41.389-123.146 -54.508  0.00  0.00     0.024 A 
ATOM     16  C   UNL d   1     -41.215-123.816 -54.051  0.00  0.00     0.004 A 
ATOM     17  C   UNL d   1     -41.137-123.735 -53.236  0.00  0.00     0.025 A 
BRANCH  14  18
ATOM     18  O   UNL d   1     -41.656-121.744 -54.599  0.00  0.00    -0.328 OA
ATOM     19  C   UNL d   1     -42.155-121.815 -55.255  0.00  0.00     0.181 C 
ENDBRANCH  14  18
ENDBRANCH  11  12
ENDBRANCH   1  11
TORSDOF 4
ENDMDL
MODEL 2
REMARK VINA RESULT:      -5.6      1.432      4.852
REMARK  4 active torsions:
REMARK  status: ('A' for Active; 'I' for Inactive)
REMARK    1  A    between atoms: C_7  and  C_2 
REMARK    2  A    between atoms: O_8  and  C_7 
REMARK    3  A    between atoms: C_9  and  O_8 
REMARK    4  A    between atoms: O_11  and  C_10 
ROOT
ATOM      1  C   UNL d   1     -41.447-122.768 -51.913  0.00  0.00     0.161 C 
ENDROOT
BRANCH   1   2
ATOM      2  C   UNL d   1     -41.630-122.522 -52.675  0.00  0.00     0.188 A 
ATOM      3  N   UNL d   1     -41.362-123.071 -53.250  0.00  0.00    -0.224 NA
ATOM      4  C   UNL d   1     -41.572-122.774 -53.998  0.00  0.00     0.101 A 
ATOM      5  C   UNL d   1     -41.964-122.053 -53.892  0.00  0.00     0.101 A 
ATOM      6  C   UNL d   1     -41.451-123.079 -54.751  0.00  0.00     0.021 A 
ATOM      7  C   UNL d   1     -42.233-121.638 -54.558  0.00  0.00     0.021 A 
ATOM      8  N   UNL d   1     -42.000-121.896 -53.079  0.00  0.00    -0.224 NA
ATOM      9  C   UNL d   1     -42.112-121.942 -55.311  0.00  0.00     0.002 A 
ATOM     10  C   UNL d   1     -41.720-122.665 -55.408  0.00  0.00     0.002 A 
ENDBRANCH   1   2
BRANCH   1  11
ATOM     11  O   UNL d   1     -41.878-122.494 -51.278  0.00  0.00    -0.302 OA
BRANCH  11  12
ATOM     12  C   UNL d   1     -41.804-122.852 -50.537  0.00  0.00     0.102 A 
ATOM     13  C   UNL d   1     -42.335-122.660 -49.941  0.00  0.00     0.049 A 
ATOM     14  C   UNL d   1     -42.261-123.019 -49.200  0.00  0.00     0.096 A 
ATOM     15  C   UNL d   1     -41.655-123.564 -49.067  0.00  0.00     0.024 A 
ATOM     16  C   UNL d   1     -41.123-123.752 -49.674  0.00  0.00     0.004 A 
ATOM     17  C   UNL d   1     -41.208-123.388 -50.407  0.00  0.00     0.025 A 
BRANCH  14  18
ATOM     18  O   UNL d   1     -42.789-122.832 -48.596  0.00  0.00    -0.328 OA
ATOM     19  C   UNL d   1     -42.630-123.077 -47.822  0.00  0.00     0.181 C 
ENDBRANCH  14  18
ENDBRANCH  11  12
ENDBRANCH   1  11
TORSDOF 4
ENDMDL
