MODEL 1
REMARK VINA RESULT:      41.0      0.000      0.000
REMARK  2 active torsions:
REMARK  status: ('A' for Active; 'I' for Inactive)
REMARK    1  A    between atoms: C_7  and  N_2 
REMARK    2  A    between atoms: C_9  and  C_5 
ROOT
ATOM      1  C   UNL d   1     -56.139-102.722 -39.033  0.00  0.00     0.208 A 
ATOM      2  N   UNL d   1     -55.420-102.725 -39.443  0.00  0.00    -0.266 N 
ATOM      3  N   UNL d   1     -56.139-102.745 -38.213  0.00  0.00    -0.199 NA
ATOM      4  N   UNL d   1     -54.712-102.773 -38.200  0.00  0.00    -0.206 NA
ATOM      5  C   UNL d   1     -55.431-102.771 -37.790  0.00  0.00     0.167 A 
ATOM      6  C   UNL d   1     -54.716-102.750 -39.024  0.00  0.00     0.186 A 
ATOM      7  S   UNL d   1     -56.859-102.697 -39.435  0.00  0.00    -0.038 SA
ENDROOT
BRANCH   2   8
ATOM      8  C   UNL d   1     -55.418-102.702 -40.256  0.00  0.00     0.068 A 
ATOM      9  C   UNL d   1     -56.087-102.879 -40.665  0.00  0.00     0.018 A 
ATOM     10  C   UNL d   1     -56.103-102.861 -41.511  0.00  0.00     0.002 A 
ATOM     11  C   UNL d   1     -55.418-102.657 -41.911  0.00  0.00     0.000 A 
ATOM     12  C   UNL d   1     -54.731-102.475 -41.493  0.00  0.00     0.002 A 
ATOM     13  C   UNL d   1     -55.416-102.633 -42.747  0.00  0.00     0.000 C 
ATOM     14  C   UNL d   1     -54.733-102.498 -40.656  0.00  0.00     0.018 A 
ENDBRANCH   2   8
BRANCH   5  15
ATOM     15  C   UNL d   1     -55.440-102.793 -36.987  0.00  0.00     0.036 A 
ATOM     16  C   UNL d   1     -54.732-102.756 -36.559  0.00  0.00     0.003 A 
ATOM     17  C   UNL d   1     -54.732-102.778 -35.740  0.00  0.00     0.000 A 
ATOM     18  C   UNL d   1     -55.461-102.840 -35.325  0.00  0.00     0.000 A 
ATOM     19  C   UNL d   1     -56.168-102.878 -35.742  0.00  0.00     0.000 A 
ATOM     20  C   UNL d   1     -56.169-102.855 -36.572  0.00  0.00     0.003 A 
ENDBRANCH   5  15
TORSDOF 2
ENDMDL
