MODEL 1
REMARK VINA RESULT:      56.2      0.000      0.000
REMARK  2 active torsions:
REMARK  status: ('A' for Active; 'I' for Inactive)
REMARK    1  A    between atoms: C_10  and  N_3 
REMARK    2  A    between atoms: C_11  and  C_4 
ROOT
ATOM      1  C   UNL d   1     -54.954-101.838 -43.134  0.00  0.00     0.154 A 
ATOM      2  C   UNL d   1     -55.122-101.321 -43.747  0.00  0.00     0.094 A 
ATOM      3  N   UNL d   1     -55.035-101.427 -42.421  0.00  0.00    -0.290 N 
ATOM      4  C   UNL d   1     -55.309-100.585 -43.419  0.00  0.00     0.025 A 
ATOM      5  C   UNL d   1     -55.254-100.654 -42.604  0.00  0.00     0.082 A 
ATOM      6  N   UNL d   1     -54.748-102.621 -43.294  0.00  0.00    -0.206 NA
ATOM      7  C   UNL d   1     -55.087-101.578 -44.530  0.00  0.00     0.284 A 
ATOM      8  N   UNL d   1     -54.880-102.361 -44.691  0.00  0.00    -0.186 NA
ATOM      9  C   UNL d   1     -54.712-102.878 -44.078  0.00  0.00     0.203 A 
ATOM     10  O   UNL d   1     -55.255-101.061 -45.143  0.00  0.00    -0.265 OA
ENDROOT
BRANCH   3  11
ATOM     11  C   UNL d   1     -54.929-101.694 -41.659  0.00  0.00     0.065 A 
ATOM     12  C   UNL d   1     -54.827-101.157 -41.043  0.00  0.00     0.018 A 
ATOM     13  C   UNL d   1     -54.719-101.427 -40.270  0.00  0.00     0.002 A 
ATOM     14  C   UNL d   1     -54.712-102.246 -40.110  0.00  0.00     0.000 A 
ATOM     15  C   UNL d   1     -54.815-102.778 -40.734  0.00  0.00     0.002 A 
ATOM     16  C   UNL d   1     -54.922-102.504 -41.504  0.00  0.00     0.018 A 
ENDBRANCH   3  11
BRANCH   4  17
ATOM     17  C   UNL d   1     -55.498 -99.975 -43.942  0.00  0.00     0.002 A 
ATOM     18  C   UNL d   1     -56.288 -99.822 -44.131  0.00  0.00     0.000 A 
ATOM     19  C   UNL d   1     -56.478 -99.212 -44.654  0.00  0.00     0.000 A 
ATOM     20  C   UNL d   1     -55.878 -98.757 -44.987  0.00  0.00     0.000 A 
ATOM     21  C   UNL d   1     -55.088 -98.911 -44.797  0.00  0.00     0.000 A 
ATOM     22  C   UNL d   1     -54.899 -99.517 -44.277  0.00  0.00     0.000 A 
ENDBRANCH   4  17
TORSDOF 2
ENDMDL
MODEL 2
REMARK VINA RESULT:      56.5      3.221      5.148
REMARK  2 active torsions:
REMARK  status: ('A' for Active; 'I' for Inactive)
REMARK    1  A    between atoms: C_10  and  N_3 
REMARK    2  A    between atoms: C_11  and  C_4 
ROOT
ATOM      1  C   UNL d   1     -58.322 -98.817 -44.237  0.00  0.00     0.154 A 
ATOM      2  C   UNL d   1     -57.626 -98.806 -43.805  0.00  0.00     0.094 A 
ATOM      3  N   UNL d   1     -58.125 -98.818 -45.041  0.00  0.00    -0.290 N 
ATOM      4  C   UNL d   1     -56.993 -98.800 -44.336  0.00  0.00     0.025 A 
ATOM      5  C   UNL d   1     -57.303 -98.807 -45.095  0.00  0.00     0.082 A 
ATOM      6  N   UNL d   1     -59.052 -98.825 -43.853  0.00  0.00    -0.206 NA
ATOM      7  C   UNL d   1     -57.649 -98.803 -42.980  0.00  0.00     0.284 A 
ATOM      8  N   UNL d   1     -58.379 -98.811 -42.595  0.00  0.00    -0.186 NA
ATOM      9  C   UNL d   1     -59.075 -98.822 -43.028  0.00  0.00     0.203 A 
ATOM     10  O   UNL d   1     -56.953 -98.792 -42.547  0.00  0.00    -0.265 OA
ENDROOT
BRANCH   3  11
ATOM     11  C   UNL d   1     -58.617 -98.827 -45.690  0.00  0.00     0.065 A 
ATOM     12  C   UNL d   1     -58.301 -98.761 -46.449  0.00  0.00     0.018 A 
ATOM     13  C   UNL d   1     -58.799 -98.770 -47.107  0.00  0.00     0.002 A 
ATOM     14  C   UNL d   1     -59.625 -98.846 -47.007  0.00  0.00     0.000 A 
ATOM     15  C   UNL d   1     -59.932 -98.912 -46.243  0.00  0.00     0.002 A 
ATOM     16  C   UNL d   1     -59.431 -98.902 -45.589  0.00  0.00     0.018 A 
ENDBRANCH   3  11
BRANCH   4  17
ATOM     17  C   UNL d   1     -56.232 -98.789 -44.017  0.00  0.00     0.002 A 
ATOM     18  C   UNL d   1     -56.126 -98.784 -43.197  0.00  0.00     0.000 A 
ATOM     19  C   UNL d   1     -55.365 -98.772 -42.878  0.00  0.00     0.000 A 
ATOM     20  C   UNL d   1     -54.711 -98.766 -43.378  0.00  0.00     0.000 A 
ATOM     21  C   UNL d   1     -54.818 -98.771 -44.198  0.00  0.00     0.000 A 
ATOM     22  C   UNL d   1     -55.574 -98.782 -44.515  0.00  0.00     0.000 A 
ENDBRANCH   4  17
TORSDOF 2
ENDMDL
MODEL 3
REMARK VINA RESULT:      56.7      3.003      4.498
REMARK  2 active torsions:
REMARK  status: ('A' for Active; 'I' for Inactive)
REMARK    1  A    between atoms: C_10  and  N_3 
REMARK    2  A    between atoms: C_11  and  C_4 
ROOT
ATOM      1  C   UNL d   1     -57.733 -99.098 -44.364  0.00  0.00     0.154 A 
ATOM      2  C   UNL d   1     -58.368 -99.024 -44.876  0.00  0.00     0.094 A 
ATOM      3  N   UNL d   1     -57.051 -99.220 -44.816  0.00  0.00    -0.290 N 
ATOM      4  C   UNL d   1     -58.085 -99.098 -45.649  0.00  0.00     0.025 A 
ATOM      5  C   UNL d   1     -57.275 -99.219 -45.608  0.00  0.00     0.082 A 
ATOM      6  N   UNL d   1     -57.847 -99.047 -43.548  0.00  0.00    -0.206 NA
ATOM      7  C   UNL d   1     -59.128 -98.897 -44.582  0.00  0.00     0.284 A 
ATOM      8  N   UNL d   1     -59.243 -98.846 -43.765  0.00  0.00    -0.186 NA
ATOM      9  C   UNL d   1     -58.608 -98.920 -43.253  0.00  0.00     0.203 A 
ATOM     10  O   UNL d   1     -59.763 -98.822 -45.094  0.00  0.00    -0.265 OA
ENDROOT
BRANCH   3  11
ATOM     11  C   UNL d   1     -56.283 -99.326 -44.567  0.00  0.00     0.065 A 
ATOM     12  C   UNL d   1     -55.920 -98.756 -44.094  0.00  0.00     0.018 A 
ATOM     13  C   UNL d   1     -55.141 -98.862 -43.841  0.00  0.00     0.002 A 
ATOM     14  C   UNL d   1     -54.718 -99.547 -44.063  0.00  0.00     0.000 A 
ATOM     15  C   UNL d   1     -55.090-100.112 -44.537  0.00  0.00     0.002 A 
ATOM     16  C   UNL d   1     -55.867-100.002 -44.787  0.00  0.00     0.018 A 
ENDBRANCH   3  11
BRANCH   4  17
ATOM     17  C   UNL d   1     -58.636 -99.040 -46.261  0.00  0.00     0.002 A 
ATOM     18  C   UNL d   1     -58.412 -99.207 -47.039  0.00  0.00     0.000 A 
ATOM     19  C   UNL d   1     -58.963 -99.150 -47.650  0.00  0.00     0.000 A 
ATOM     20  C   UNL d   1     -59.737 -98.925 -47.484  0.00  0.00     0.000 A 
ATOM     21  C   UNL d   1     -59.961 -98.758 -46.705  0.00  0.00     0.000 A 
ATOM     22  C   UNL d   1     -59.413 -98.815 -46.097  0.00  0.00     0.000 A 
ENDBRANCH   4  17
TORSDOF 2
ENDMDL
