MODEL 1
REMARK VINA RESULT:      -8.0      0.000      0.000
REMARK  2 active torsions:
REMARK  status: ('A' for Active; 'I' for Inactive)
REMARK    1  A    between atoms: C_8  and  N_2 
REMARK    2  A    between atoms: N_7  and  C_4 
ROOT
ATOM      1  C   UNL d   1      52.371  34.695  53.449  0.00  0.00     0.358 A 
ATOM      2  N   UNL d   1      52.577  33.925  53.671  0.00  0.00    -0.226 N 
ATOM      3  N   UNL d   1      51.671  34.832  53.048  0.00  0.00    -0.174 NA
ATOM      4  C   UNL d   1      51.170  34.205  52.863  0.00  0.00     0.158 A 
ATOM      5  C   UNL d   1      52.082  33.293  53.491  0.00  0.00     0.271 A 
ATOM      6  C   UNL d   1      51.376  33.435  53.085  0.00  0.00     0.099 A 
ATOM      7  O   UNL d   1      52.875  35.327  53.635  0.00  0.00    -0.244 OA
ATOM      8  O   UNL d   1      52.288  32.524  53.713  0.00  0.00    -0.266 OA
ENDROOT
BRANCH   2   9
ATOM      9  C   UNL d   1      53.282  33.787  54.076  0.00  0.00     0.071 A 
ATOM     10  C   UNL d   1      53.332  33.949  54.884  0.00  0.00     0.019 A 
ATOM     11  C   UNL d   1      54.031  33.813  55.292  0.00  0.00     0.013 A 
ATOM     12  C   UNL d   1      54.687  33.512  54.889  0.00  0.00     0.058 A 
ATOM     13  C   UNL d   1      54.632  33.353  54.086  0.00  0.00     0.013 A 
ATOM     14 CL   UNL d   1      55.384  33.377  55.294  0.00  0.00    -0.082 Cl
ATOM     15  C   UNL d   1      53.932  33.489  53.677  0.00  0.00     0.019 A 
ENDBRANCH   2   9
BRANCH   4  16
ATOM     16  N   UNL d   1      50.466  34.340  52.460  0.00  0.00    -0.285 N 
ATOM     17  C   UNL d   1      49.823  34.663  52.867  0.00  0.00     0.108 A 
ATOM     18  C   UNL d   1      49.115  34.800  52.465  0.00  0.00     0.142 A 
ATOM     19  O   UNL d   1      49.048  34.613  51.654  0.00  0.00    -0.300 OA
ATOM     20  C   UNL d   1      49.699  34.292  51.265  0.00  0.00     0.142 A 
ATOM     21  C   UNL d   1      50.407  34.156  51.667  0.00  0.00     0.108 A 
ENDBRANCH   4  16
TORSDOF 2
ENDMDL
MODEL 2
REMARK VINA RESULT:      -7.9      1.972      4.454
REMARK  2 active torsions:
REMARK  status: ('A' for Active; 'I' for Inactive)
REMARK    1  A    between atoms: C_8  and  N_2 
REMARK    2  A    between atoms: N_7  and  C_4 
ROOT
ATOM      1  C   UNL d   1      51.535  33.286  53.376  0.00  0.00     0.358 A 
ATOM      2  N   UNL d   1      51.457  34.021  53.005  0.00  0.00    -0.226 N 
ATOM      3  N   UNL d   1      52.237  33.088  53.748  0.00  0.00    -0.174 NA
ATOM      4  C   UNL d   1      52.866  33.617  53.754  0.00  0.00     0.158 A 
ATOM      5  C   UNL d   1      52.081  34.556  53.006  0.00  0.00     0.271 A 
ATOM      6  C   UNL d   1      52.788  34.352  53.382  0.00  0.00     0.099 A 
ATOM      7  O   UNL d   1      50.901  32.751  53.371  0.00  0.00    -0.244 OA
ATOM      8  O   UNL d   1      52.004  35.291  52.634  0.00  0.00    -0.266 OA
ENDROOT
BRANCH   2   9
ATOM      9  C   UNL d   1      50.750  34.221  52.630  0.00  0.00     0.071 A 
ATOM     10  C   UNL d   1      50.145  34.585  53.058  0.00  0.00     0.019 A 
ATOM     11  C   UNL d   1      49.440  34.787  52.691  0.00  0.00     0.013 A 
ATOM     12  C   UNL d   1      49.337  34.624  51.887  0.00  0.00     0.058 A 
ATOM     13  C   UNL d   1      49.942  34.263  51.466  0.00  0.00     0.013 A 
ATOM     14 CL   UNL d   1      48.635  34.825  51.520  0.00  0.00    -0.082 Cl
ATOM     15  C   UNL d   1      50.648  34.060  51.833  0.00  0.00     0.019 A 
ENDBRANCH   2   9
BRANCH   4  16
ATOM     16  N   UNL d   1      53.573  33.420  54.127  0.00  0.00    -0.285 N 
ATOM     17  C   UNL d   1      54.153  33.010  53.703  0.00  0.00     0.108 A 
ATOM     18  C   UNL d   1      54.862  32.811  54.074  0.00  0.00     0.142 A 
ATOM     19  O   UNL d   1      54.994  33.022  54.871  0.00  0.00    -0.300 OA
ATOM     20  C   UNL d   1      54.405  33.430  55.277  0.00  0.00     0.142 A 
ATOM     21  C   UNL d   1      53.696  33.629  54.906  0.00  0.00     0.108 A 
ENDBRANCH   4  16
TORSDOF 2
ENDMDL
MODEL 3
REMARK VINA RESULT:      -7.8      2.355      3.683
REMARK  2 active torsions:
REMARK  status: ('A' for Active; 'I' for Inactive)
REMARK    1  A    between atoms: C_8  and  N_2 
REMARK    2  A    between atoms: N_7  and  C_4 
ROOT
ATOM      1  C   UNL d   1      52.389  32.772  53.714  0.00  0.00     0.358 A 
ATOM      2  N   UNL d   1      53.105  33.137  53.910  0.00  0.00    -0.226 N 
ATOM      3  N   UNL d   1      52.367  31.967  53.568  0.00  0.00    -0.174 NA
ATOM      4  C   UNL d   1      53.055  31.518  53.614  0.00  0.00     0.158 A 
ATOM      5  C   UNL d   1      53.798  32.696  53.959  0.00  0.00     0.271 A 
ATOM      6  C   UNL d   1      53.771  31.883  53.810  0.00  0.00     0.099 A 
ATOM      7  O   UNL d   1      51.695  33.223  53.667  0.00  0.00    -0.244 OA
ATOM      8  O   UNL d   1      54.513  33.061  54.154  0.00  0.00    -0.266 OA
ENDROOT
BRANCH   2   9
ATOM      9  C   UNL d   1      53.128  33.948  54.058  0.00  0.00     0.071 A 
ATOM     10  C   UNL d   1      53.168  34.224  54.835  0.00  0.00     0.019 A 
ATOM     11  C   UNL d   1      53.192  35.029  54.988  0.00  0.00     0.013 A 
ATOM     12  C   UNL d   1      53.174  35.566  54.359  0.00  0.00     0.058 A 
ATOM     13  C   UNL d   1      53.133  35.286  53.589  0.00  0.00     0.013 A 
ATOM     14 CL   UNL d   1      53.197  36.368  54.511  0.00  0.00    -0.082 Cl
ATOM     15  C   UNL d   1      53.110  34.479  53.435  0.00  0.00     0.019 A 
ENDBRANCH   2   9
BRANCH   4  16
ATOM     16  N   UNL d   1      53.036  30.709  53.467  0.00  0.00    -0.285 N 
ATOM     17  C   UNL d   1      53.220  30.183  54.078  0.00  0.00     0.108 A 
ATOM     18  C   UNL d   1      53.201  29.371  53.934  0.00  0.00     0.142 A 
ATOM     19  O   UNL d   1      52.998  29.081  53.177  0.00  0.00    -0.300 OA
ATOM     20  C   UNL d   1      52.818  29.620  52.582  0.00  0.00     0.142 A 
ATOM     21  C   UNL d   1      52.836  30.432  52.726  0.00  0.00     0.108 A 
ENDBRANCH   4  16
TORSDOF 2
ENDMDL
