MODEL 1
REMARK VINA RESULT:      23.9      0.000      0.000
REMARK  1 active torsions:
REMARK  status: ('A' for Active; 'I' for Inactive)
REMARK       I    between atoms: N_2  and  C_1 
REMARK       I    between atoms: N_3  and  C_1 
REMARK    1  A    between atoms: C_4  and  N_2 
ROOT
ATOM      1  C   UNL d   1      45.424 -13.707  44.414  0.00  0.00     0.086 A 
ATOM      2  C   UNL d   1      45.018 -13.284  43.829  0.00  0.00     0.018 A 
ATOM      3  C   UNL d   1      45.178 -12.486  43.705  0.00  0.00     0.002 A 
ATOM      4  C   UNL d   1      45.992 -13.332  44.877  0.00  0.00     0.019 A 
ATOM      5  C   UNL d   1      46.153 -12.534  44.755  0.00  0.00     0.002 A 
ATOM      6  C   UNL d   1      44.445 -13.666  43.362  0.00  0.00     0.002 A 
ATOM      7  C   UNL d   1      45.746 -12.112  44.169  0.00  0.00     0.000 A 
ATOM      8  C   UNL d   1      44.765 -12.081  43.119  0.00  0.00     0.000 A 
ATOM      9  C   UNL d   1      44.041 -13.246  42.780  0.00  0.00     0.000 A 
ATOM     10  C   UNL d   1      44.198 -12.456  42.657  0.00  0.00     0.000 A 
ENDROOT
BRANCH   1  11
ATOM     11  N   UNL d   1      45.270 -14.511  44.546  0.00  0.00    -0.192 NA
ATOM     12  C   UNL d   1      45.870 -15.078  44.477  0.00  0.00     0.354 C 
ATOM     13  N   UNL d   1      45.693 -15.866  44.612  0.00  0.00    -0.252 N 
ATOM     14  O   UNL d   1      46.647 -14.837  44.271  0.00  0.00    -0.244 OA
ATOM     15  C   UNL d   1      46.306 -16.445  44.542  0.00  0.00     0.111 A 
ATOM     16  C   UNL d   1      44.921 -16.082  44.815  0.00  0.00     0.111 A 
ATOM     17  C   UNL d   1      46.113 -17.245  44.683  0.00  0.00     0.142 A 
ATOM     18  O   UNL d   1      45.316 -17.468  44.891  0.00  0.00    -0.300 OA
ATOM     19  C   UNL d   1      44.735 -16.893  44.955  0.00  0.00     0.142 A 
ENDBRANCH   1  11
TORSDOF 1
ENDMDL
MODEL 2
REMARK VINA RESULT:      24.9      7.008      8.003
REMARK  1 active torsions:
REMARK  status: ('A' for Active; 'I' for Inactive)
REMARK       I    between atoms: N_2  and  C_1 
REMARK       I    between atoms: N_3  and  C_1 
REMARK    1  A    between atoms: C_4  and  N_2 
ROOT
ATOM      1  C   UNL d   1      44.980 -15.166  36.678  0.00  0.00     0.086 A 
ATOM      2  C   UNL d   1      45.407 -14.580  37.079  0.00  0.00     0.018 A 
ATOM      3  C   UNL d   1      46.227 -14.630  37.138  0.00  0.00     0.002 A 
ATOM      4  C   UNL d   1      45.373 -15.803  36.334  0.00  0.00     0.019 A 
ATOM      5  C   UNL d   1      46.192 -15.853  36.393  0.00  0.00     0.002 A 
ATOM      6  C   UNL d   1      45.007 -13.938  37.424  0.00  0.00     0.002 A 
ATOM      7  C   UNL d   1      46.619 -15.268  36.795  0.00  0.00     0.000 A 
ATOM      8  C   UNL d   1      46.636 -14.038  37.541  0.00  0.00     0.000 A 
ATOM      9  C   UNL d   1      45.431 -13.355  37.823  0.00  0.00     0.000 A 
ATOM     10  C   UNL d   1      46.242 -13.403  37.883  0.00  0.00     0.000 A 
ENDROOT
BRANCH   1  11
ATOM     11  N   UNL d   1      44.154 -15.125  36.612  0.00  0.00    -0.192 NA
ATOM     12  C   UNL d   1      43.697 -15.811  36.535  0.00  0.00     0.354 C 
ATOM     13  N   UNL d   1      42.884 -15.745  36.472  0.00  0.00    -0.252 N 
ATOM     14  O   UNL d   1      44.074 -16.562  36.523  0.00  0.00    -0.244 OA
ATOM     15  C   UNL d   1      42.417 -16.447  36.393  0.00  0.00     0.111 A 
ATOM     16  C   UNL d   1      42.533 -14.997  36.487  0.00  0.00     0.111 A 
ATOM     17  C   UNL d   1      41.588 -16.367  36.330  0.00  0.00     0.142 A 
ATOM     18  O   UNL d   1      41.227 -15.593  36.345  0.00  0.00    -0.300 OA
ATOM     19  C   UNL d   1      41.694 -14.925  36.422  0.00  0.00     0.142 A 
ENDBRANCH   1  11
TORSDOF 1
ENDMDL
