MODEL 1
REMARK VINA RESULT:      -5.9      0.000      0.000
REMARK  6 active torsions:
REMARK  status: ('A' for Active; 'I' for Inactive)
REMARK    1  A    between atoms: N_3  and  C_1 
REMARK       I    between atoms: C_4  and  N_3 
REMARK       I    between atoms: N_10  and  C_4 
REMARK    2  A    between atoms: C_7  and  C_5 
REMARK    3  A    between atoms: C_9  and  C_7 
REMARK       I    between atoms: N_12  and  C_9 
REMARK    4  A    between atoms: C_13  and  N_10 
REMARK    5  A    between atoms: C_18  and  N_12 
REMARK    6  A    between atoms: C_17  and  C_18 
ROOT
ATOM      1  C   UNL d   1     -45.619  13.275  22.684  0.00  0.00     0.199 A 
ATOM      2  N   UNL d   1     -45.112  13.519  22.081  0.00  0.00    -0.220 NA
ATOM      3  C   UNL d   1     -44.674  12.868  21.843  0.00  0.00     0.095 A 
ATOM      4  S   UNL d   1     -45.500  12.487  22.820  0.00  0.00    -0.046 SA
ATOM      5  C   UNL d   1     -44.915  12.224  22.303  0.00  0.00     0.058 A 
ENDROOT
BRANCH   1   6
ATOM      6  N   UNL d   1     -46.168  13.758  23.091  0.00  0.00    -0.166 NA
ATOM      7  C   UNL d   1     -46.945  13.840  22.802  0.00  0.00     0.370 C 
ATOM      8  N   UNL d   1     -47.494  14.314  23.196  0.00  0.00    -0.191 NA
ATOM      9  O   UNL d   1     -47.175  13.443  22.110  0.00  0.00    -0.242 OA
BRANCH   8  10
ATOM     10  C   UNL d   1     -48.258  14.399  22.917  0.00  0.00     0.087 A 
ATOM     11  C   UNL d   1     -48.852  13.881  23.153  0.00  0.00     0.031 A 
ATOM     12  C   UNL d   1     -49.611  13.961  22.879  0.00  0.00     0.059 A 
ATOM     13 CL   UNL d   1     -50.204  13.437  23.120  0.00  0.00    -0.082 Cl
ATOM     14  C   UNL d   1     -49.792  14.580  22.348  0.00  0.00     0.011 A 
ATOM     15  C   UNL d   1     -49.197  15.097  22.113  0.00  0.00     0.002 A 
ATOM     16  C   UNL d   1     -48.429  15.007  22.397  0.00  0.00     0.019 A 
ENDBRANCH   8  10
ENDBRANCH   1   6
BRANCH   3  17
ATOM     17  C   UNL d   1     -44.095  12.858  21.249  0.00  0.00     0.082 C 
BRANCH  17  18
ATOM     18  C   UNL d   1     -43.281  12.878  21.445  0.00  0.00     0.281 C 
ATOM     19  N   UNL d   1     -42.799  13.492  21.182  0.00  0.00    -0.206 NA
ATOM     20  O   UNL d   1     -42.972  12.269  21.907  0.00  0.00    -0.265 OA
BRANCH  19  21
ATOM     21  C   UNL d   1     -42.003  13.504  21.378  0.00  0.00     0.104 C 
BRANCH  21  22
ATOM     22  C   UNL d   1     -41.515  14.095  21.072  0.00  0.00     0.038 A 
ATOM     23  C   UNL d   1     -41.746  14.888  21.106  0.00  0.00     0.101 A 
ATOM     24  N   UNL d   1     -41.248  15.471  20.795  0.00  0.00    -0.242 NA
ATOM     25  C   UNL d   1     -40.520  15.263  20.452  0.00  0.00     0.099 A 
ATOM     26  C   UNL d   1     -40.304  14.477  20.425  0.00  0.00     0.021 A 
ATOM     27  C   UNL d   1     -40.802  13.892  20.736  0.00  0.00     0.005 A 
ENDBRANCH  21  22
ENDBRANCH  19  21
ENDBRANCH  17  18
ENDBRANCH   3  17
TORSDOF 6
ENDMDL
MODEL 2
REMARK VINA RESULT:      -5.2      3.402      7.372
REMARK  6 active torsions:
REMARK  status: ('A' for Active; 'I' for Inactive)
REMARK    1  A    between atoms: N_3  and  C_1 
REMARK       I    between atoms: C_4  and  N_3 
REMARK       I    between atoms: N_10  and  C_4 
REMARK    2  A    between atoms: C_7  and  C_5 
REMARK    3  A    between atoms: C_9  and  C_7 
REMARK       I    between atoms: N_12  and  C_9 
REMARK    4  A    between atoms: C_13  and  N_10 
REMARK    5  A    between atoms: C_18  and  N_12 
REMARK    6  A    between atoms: C_17  and  C_18 
ROOT
ATOM      1  C   UNL d   1     -40.916  14.365  20.552  0.00  0.00     0.199 A 
ATOM      2  N   UNL d   1     -41.125  13.629  20.861  0.00  0.00    -0.220 NA
ATOM      3  C   UNL d   1     -41.876  13.698  21.184  0.00  0.00     0.095 A 
ATOM      4  S   UNL d   1     -41.524  14.881  20.679  0.00  0.00    -0.046 SA
ATOM      5  C   UNL d   1     -42.126  14.477  21.070  0.00  0.00     0.058 A 
ENDROOT
BRANCH   1   6
ATOM      6  N   UNL d   1     -40.196  14.552  20.170  0.00  0.00    -0.166 NA
ATOM      7  C   UNL d   1     -40.082  14.343  19.372  0.00  0.00     0.370 C 
ATOM      8  N   UNL d   1     -39.375  14.522  18.985  0.00  0.00    -0.191 NA
ATOM      9  O   UNL d   1     -40.683  13.950  18.955  0.00  0.00    -0.242 OA
BRANCH   8  10
ATOM     10  C   UNL d   1     -39.257  14.319  18.201  0.00  0.00     0.087 A 
ATOM     11  C   UNL d   1     -38.841  13.640  17.999  0.00  0.00     0.031 A 
ATOM     12  C   UNL d   1     -38.722  13.435  17.224  0.00  0.00     0.059 A 
ATOM     13 CL   UNL d   1     -38.302  12.750  17.027  0.00  0.00    -0.082 Cl
ATOM     14  C   UNL d   1     -39.028  13.924  16.620  0.00  0.00     0.011 A 
ATOM     15  C   UNL d   1     -39.445  14.603  16.823  0.00  0.00     0.002 A 
ATOM     16  C   UNL d   1     -39.560  14.803  17.614  0.00  0.00     0.019 A 
ENDBRANCH   8  10
ENDBRANCH   1   6
BRANCH   3  17
ATOM     17  C   UNL d   1     -42.306  13.093  21.556  0.00  0.00     0.082 C 
BRANCH  17  18
ATOM     18  C   UNL d   1     -43.093  12.924  21.325  0.00  0.00     0.281 C 
ATOM     19  N   UNL d   1     -43.721  13.053  21.843  0.00  0.00    -0.206 NA
ATOM     20  O   UNL d   1     -43.226  12.626  20.569  0.00  0.00    -0.265 OA
BRANCH  19  21
ATOM     21  C   UNL d   1     -44.488  12.885  21.609  0.00  0.00     0.104 C 
BRANCH  21  22
ATOM     22  C   UNL d   1     -45.105  12.951  22.154  0.00  0.00     0.038 A 
ATOM     23  C   UNL d   1     -45.236  12.357  22.713  0.00  0.00     0.101 A 
ATOM     24  N   UNL d   1     -45.858  12.435  23.253  0.00  0.00    -0.242 NA
ATOM     25  C   UNL d   1     -46.349  13.106  23.235  0.00  0.00     0.099 A 
ATOM     26  C   UNL d   1     -46.209  13.686  22.677  0.00  0.00     0.021 A 
ATOM     27  C   UNL d   1     -45.586  13.607  22.137  0.00  0.00     0.005 A 
ENDBRANCH  21  22
ENDBRANCH  19  21
ENDBRANCH  17  18
ENDBRANCH   3  17
TORSDOF 6
ENDMDL
MODEL 3
REMARK VINA RESULT:      -5.0      2.539      6.688
REMARK  6 active torsions:
REMARK  status: ('A' for Active; 'I' for Inactive)
REMARK    1  A    between atoms: N_3  and  C_1 
REMARK       I    between atoms: C_4  and  N_3 
REMARK       I    between atoms: N_10  and  C_4 
REMARK    2  A    between atoms: C_7  and  C_5 
REMARK    3  A    between atoms: C_9  and  C_7 
REMARK       I    between atoms: N_12  and  C_9 
REMARK    4  A    between atoms: C_13  and  N_10 
REMARK    5  A    between atoms: C_18  and  N_12 
REMARK    6  A    between atoms: C_17  and  C_18 
ROOT
ATOM      1  C   UNL d   1     -43.750  12.707  21.547  0.00  0.00     0.199 A 
ATOM      2  N   UNL d   1     -44.419  13.180  21.447  0.00  0.00    -0.220 NA
ATOM      3  C   UNL d   1     -44.967  12.962  22.017  0.00  0.00     0.095 A 
ATOM      4  S   UNL d   1     -43.879  12.205  22.167  0.00  0.00    -0.046 SA
ATOM      5  C   UNL d   1     -44.632  12.355  22.466  0.00  0.00     0.058 A 
ENDROOT
BRANCH   1   6
ATOM      6  N   UNL d   1     -43.053  12.739  21.087  0.00  0.00    -0.166 NA
ATOM      7  C   UNL d   1     -42.508  13.358  21.199  0.00  0.00     0.370 C 
ATOM      8  N   UNL d   1     -41.815  13.399  20.750  0.00  0.00    -0.191 NA
ATOM      9  O   UNL d   1     -42.656  13.945  21.767  0.00  0.00    -0.242 OA
BRANCH   8  10
ATOM     10  C   UNL d   1     -41.276  14.005  20.855  0.00  0.00     0.087 A 
ATOM     11  C   UNL d   1     -40.574  13.877  21.263  0.00  0.00     0.031 A 
ATOM     12  C   UNL d   1     -40.037  14.475  21.370  0.00  0.00     0.059 A 
ATOM     13 CL   UNL d   1     -39.332  14.340  21.781  0.00  0.00    -0.082 Cl
ATOM     14  C   UNL d   1     -40.200  15.233  21.061  0.00  0.00     0.011 A 
ATOM     15  C   UNL d   1     -40.903  15.359  20.653  0.00  0.00     0.002 A 
ATOM     16  C   UNL d   1     -41.443  14.746  20.549  0.00  0.00     0.019 A 
ENDBRANCH   8  10
ENDBRANCH   1   6
BRANCH   3  17
ATOM     17  C   UNL d   1     -45.721  13.292  22.122  0.00  0.00     0.082 C 
BRANCH  17  18
ATOM     18  C   UNL d   1     -46.152  13.158  22.828  0.00  0.00     0.281 C 
ATOM     19  N   UNL d   1     -46.882  12.778  22.810  0.00  0.00    -0.206 NA
ATOM     20  O   UNL d   1     -45.829  13.415  23.541  0.00  0.00    -0.265 OA
BRANCH  19  21
ATOM     21  C   UNL d   1     -47.297  12.651  23.506  0.00  0.00     0.104 C 
BRANCH  21  22
ATOM     22  C   UNL d   1     -48.027  12.264  23.482  0.00  0.00     0.038 A 
ATOM     23  C   UNL d   1     -48.086  11.469  23.698  0.00  0.00     0.101 A 
ATOM     24  N   UNL d   1     -48.822  11.093  23.670  0.00  0.00    -0.242 NA
ATOM     25  C   UNL d   1     -49.499  11.510  23.428  0.00  0.00     0.099 A 
ATOM     26  C   UNL d   1     -49.426  12.296  23.217  0.00  0.00     0.021 A 
ATOM     27  C   UNL d   1     -48.689  12.672  23.245  0.00  0.00     0.005 A 
ENDBRANCH  21  22
ENDBRANCH  19  21
ENDBRANCH  17  18
ENDBRANCH   3  17
TORSDOF 6
ENDMDL
MODEL 4
REMARK VINA RESULT:      -4.7      2.849      6.879
REMARK  6 active torsions:
REMARK  status: ('A' for Active; 'I' for Inactive)
REMARK    1  A    between atoms: N_3  and  C_1 
REMARK       I    between atoms: C_4  and  N_3 
REMARK       I    between atoms: N_10  and  C_4 
REMARK    2  A    between atoms: C_7  and  C_5 
REMARK    3  A    between atoms: C_9  and  C_7 
REMARK       I    between atoms: N_12  and  C_9 
REMARK    4  A    between atoms: C_13  and  N_10 
REMARK    5  A    between atoms: C_18  and  N_12 
REMARK    6  A    between atoms: C_17  and  C_18 
ROOT
ATOM      1  C   UNL d   1     -41.805  13.805  20.909  0.00  0.00     0.199 A 
ATOM      2  N   UNL d   1     -42.595  13.714  20.687  0.00  0.00    -0.220 NA
ATOM      3  C   UNL d   1     -42.904  13.085  21.113  0.00  0.00     0.095 A 
ATOM      4  S   UNL d   1     -41.626  13.243  21.462  0.00  0.00    -0.046 SA
ATOM      5  C   UNL d   1     -42.301  12.791  21.596  0.00  0.00     0.058 A 
ENDROOT
BRANCH   1   6
ATOM      6  N   UNL d   1     -41.275  14.380  20.614  0.00  0.00    -0.166 NA
ATOM      7  C   UNL d   1     -40.964  14.303  19.845  0.00  0.00     0.370 C 
ATOM      8  N   UNL d   1     -40.439  14.866  19.544  0.00  0.00    -0.191 NA
ATOM      9  O   UNL d   1     -41.180  13.657  19.371  0.00  0.00    -0.242 OA
BRANCH   8  10
ATOM     10  C   UNL d   1     -40.130  14.796  18.789  0.00  0.00     0.087 A 
ATOM     11  C   UNL d   1     -40.485  15.175  18.152  0.00  0.00     0.031 A 
ATOM     12  C   UNL d   1     -40.183  15.109  17.403  0.00  0.00     0.059 A 
ATOM     13 CL   UNL d   1     -40.545  15.493  16.766  0.00  0.00    -0.082 Cl
ATOM     14  C   UNL d   1     -39.499  14.648  17.277  0.00  0.00     0.011 A 
ATOM     15  C   UNL d   1     -39.144  14.269  17.915  0.00  0.00     0.002 A 
ATOM     16  C   UNL d   1     -39.459  14.342  18.673  0.00  0.00     0.019 A 
ENDBRANCH   8  10
ENDBRANCH   1   6
BRANCH   3  17
ATOM     17  C   UNL d   1     -43.681  12.797  21.067  0.00  0.00     0.082 C 
BRANCH  17  18
ATOM     18  C   UNL d   1     -44.147  12.710  21.758  0.00  0.00     0.281 C 
ATOM     19  N   UNL d   1     -44.851  13.128  21.846  0.00  0.00    -0.206 NA
ATOM     20  O   UNL d   1     -43.885  12.198  22.347  0.00  0.00    -0.265 OA
BRANCH  19  21
ATOM     21  C   UNL d   1     -45.301  13.037  22.525  0.00  0.00     0.104 C 
BRANCH  21  22
ATOM     22  C   UNL d   1     -46.054  13.374  22.565  0.00  0.00     0.038 A 
ATOM     23  C   UNL d   1     -46.719  12.940  22.335  0.00  0.00     0.101 A 
ATOM     24  N   UNL d   1     -47.468  13.288  22.379  0.00  0.00    -0.242 NA
ATOM     25  C   UNL d   1     -47.554  14.068  22.653  0.00  0.00     0.099 A 
ATOM     26  C   UNL d   1     -46.889  14.486  22.878  0.00  0.00     0.021 A 
ATOM     27  C   UNL d   1     -46.139  14.137  22.833  0.00  0.00     0.005 A 
ENDBRANCH  21  22
ENDBRANCH  19  21
ENDBRANCH  17  18
ENDBRANCH   3  17
TORSDOF 6
ENDMDL
MODEL 5
REMARK VINA RESULT:      -4.5      1.695      2.619
REMARK  6 active torsions:
REMARK  status: ('A' for Active; 'I' for Inactive)
REMARK    1  A    between atoms: N_3  and  C_1 
REMARK       I    between atoms: C_4  and  N_3 
REMARK       I    between atoms: N_10  and  C_4 
REMARK    2  A    between atoms: C_7  and  C_5 
REMARK    3  A    between atoms: C_9  and  C_7 
REMARK       I    between atoms: N_12  and  C_9 
REMARK    4  A    between atoms: C_13  and  N_10 
REMARK    5  A    between atoms: C_18  and  N_12 
REMARK    6  A    between atoms: C_17  and  C_18 
ROOT
ATOM      1  C   UNL d   1     -43.498  12.790  21.671  0.00  0.00     0.199 A 
ATOM      2  N   UNL d   1     -42.791  13.114  21.947  0.00  0.00    -0.220 NA
ATOM      3  C   UNL d   1     -42.321  13.281  21.295  0.00  0.00     0.095 A 
ATOM      4  S   UNL d   1     -43.469  12.755  20.864  0.00  0.00    -0.046 SA
ATOM      5  C   UNL d   1     -42.743  13.057  20.620  0.00  0.00     0.058 A 
ENDROOT
BRANCH   1   6
ATOM      6  N   UNL d   1     -44.141  12.538  22.143  0.00  0.00    -0.166 NA
ATOM      7  C   UNL d   1     -44.843  12.985  22.163  0.00  0.00     0.370 C 
ATOM      8  N   UNL d   1     -45.483  12.745  22.626  0.00  0.00    -0.191 NA
ATOM      9  O   UNL d   1     -44.906  13.681  21.715  0.00  0.00    -0.242 OA
BRANCH   8  10
ATOM     10  C   UNL d   1     -46.176  13.180  22.650  0.00  0.00     0.087 A 
ATOM     11  C   UNL d   1     -46.854  12.912  22.272  0.00  0.00     0.031 A 
ATOM     12  C   UNL d   1     -47.543  13.340  22.292  0.00  0.00     0.059 A 
ATOM     13 CL   UNL d   1     -48.223  13.065  21.910  0.00  0.00    -0.082 Cl
ATOM     14  C   UNL d   1     -47.562  14.065  22.706  0.00  0.00     0.011 A 
ATOM     15  C   UNL d   1     -46.882  14.332  23.084  0.00  0.00     0.002 A 
ATOM     16  C   UNL d   1     -46.187  13.890  23.057  0.00  0.00     0.019 A 
ENDBRANCH   8  10
ENDBRANCH   1   6
BRANCH   3  17
ATOM     17  C   UNL d   1     -41.561  13.613  21.312  0.00  0.00     0.082 C 
BRANCH  17  18
ATOM     18  C   UNL d   1     -41.362  14.252  20.808  0.00  0.00     0.281 C 
ATOM     19  N   UNL d   1     -40.803  14.160  20.211  0.00  0.00    -0.206 NA
ATOM     20  O   UNL d   1     -41.738  14.975  20.924  0.00  0.00    -0.265 OA
BRANCH  19  21
ATOM     21  C   UNL d   1     -40.614  14.791  19.723  0.00  0.00     0.104 C 
BRANCH  21  22
ATOM     22  C   UNL d   1     -40.092  14.679  19.093  0.00  0.00     0.038 A 
ATOM     23  C   UNL d   1     -39.281  14.600  19.230  0.00  0.00     0.101 A 
ATOM     24  N   UNL d   1     -38.768  14.488  18.591  0.00  0.00    -0.242 NA
ATOM     25  C   UNL d   1     -39.064  14.456  17.815  0.00  0.00     0.099 A 
ATOM     26  C   UNL d   1     -39.868  14.535  17.693  0.00  0.00     0.021 A 
ATOM     27  C   UNL d   1     -40.381  14.647  18.333  0.00  0.00     0.005 A 
ENDBRANCH  21  22
ENDBRANCH  19  21
ENDBRANCH  17  18
ENDBRANCH   3  17
TORSDOF 6
ENDMDL
