MODEL 1
REMARK VINA RESULT:      -2.7      0.000      0.000
REMARK  1 active torsions:
REMARK  status: ('A' for Active; 'I' for Inactive)
REMARK    1  A    between atoms: C_5  and  N_1 
ROOT
ATOM      1  N   UNL d   1      31.111  16.974 -24.154  0.00  0.00    -0.226 N 
ATOM      2  C   UNL d   1      31.627  16.654 -23.598  0.00  0.00     0.359 A 
ATOM      3  C   UNL d   1      31.305  17.681 -24.541  0.00  0.00     0.273 A 
ATOM      4  N   UNL d   1      32.340  17.035 -23.425  0.00  0.00    -0.153 NA
ATOM      5  C   UNL d   1      32.534  17.742 -23.812  0.00  0.00     0.288 A 
ATOM      6  C   UNL d   1      32.015  18.065 -24.371  0.00  0.00     0.124 A 
ATOM      7  O   UNL d   1      31.442  15.954 -23.211  0.00  0.00    -0.244 OA
ATOM      8  O   UNL d   1      30.793  18.004 -25.096  0.00  0.00    -0.266 OA
ATOM      9  O   UNL d   1      33.240  18.127 -23.644  0.00  0.00    -0.265 OA
ENDROOT
BRANCH   1  10
ATOM     10  C   UNL d   1      30.405  16.593 -24.323  0.00  0.00     0.072 A 
ATOM     11  C   UNL d   1      29.720  16.778 -23.881  0.00  0.00     0.029 A 
ATOM     12  C   UNL d   1      29.014  16.398 -24.050  0.00  0.00     0.059 A 
ATOM     13 CL   UNL d   1      28.341  16.585 -23.610  0.00  0.00    -0.082 Cl
ATOM     14  C   UNL d   1      28.975  15.837 -24.648  0.00  0.00     0.011 A 
ATOM     15  C   UNL d   1      29.656  15.656 -25.083  0.00  0.00     0.002 A 
ATOM     16  C   UNL d   1      28.265  15.453 -24.819  0.00  0.00     0.001 C 
ATOM     17  C   UNL d   1      30.374  16.039 -24.916  0.00  0.00     0.018 A 
ENDBRANCH   1  10
TORSDOF 1
ENDMDL
MODEL 2
REMARK VINA RESULT:      -2.4      1.743      3.380
REMARK  1 active torsions:
REMARK  status: ('A' for Active; 'I' for Inactive)
REMARK    1  A    between atoms: C_5  and  N_1 
ROOT
ATOM      1  N   UNL d   1      30.145  16.627 -24.065  0.00  0.00    -0.226 N 
ATOM      2  C   UNL d   1      29.516  17.048 -24.386  0.00  0.00     0.359 A 
ATOM      3  C   UNL d   1      30.000  15.999 -23.543  0.00  0.00     0.273 A 
ATOM      4  N   UNL d   1      28.738  16.848 -24.191  0.00  0.00    -0.153 NA
ATOM      5  C   UNL d   1      28.593  16.221 -23.669  0.00  0.00     0.288 A 
ATOM      6  C   UNL d   1      29.225  15.795 -23.345  0.00  0.00     0.124 A 
ATOM      7  O   UNL d   1      29.652  17.671 -24.904  0.00  0.00    -0.244 OA
ATOM      8  O   UNL d   1      30.624  15.575 -23.219  0.00  0.00    -0.266 OA
ATOM      9  O   UNL d   1      27.822  16.016 -23.471  0.00  0.00    -0.265 OA
ENDROOT
BRANCH   1  10
ATOM     10  C   UNL d   1      30.915  16.828 -24.261  0.00  0.00     0.072 A 
ATOM     11  C   UNL d   1      31.327  17.388 -23.794  0.00  0.00     0.029 A 
ATOM     12  C   UNL d   1      32.096  17.589 -23.990  0.00  0.00     0.059 A 
ATOM     13 CL   UNL d   1      32.497  18.142 -23.526  0.00  0.00    -0.082 Cl
ATOM     14  C   UNL d   1      32.466  17.247 -24.638  0.00  0.00     0.011 A 
ATOM     15  C   UNL d   1      32.055  16.694 -25.097  0.00  0.00     0.002 A 
ATOM     16  C   UNL d   1      33.241  17.449 -24.836  0.00  0.00     0.001 C 
ATOM     17  C   UNL d   1      31.274  16.486 -24.903  0.00  0.00     0.018 A 
ENDBRANCH   1  10
TORSDOF 1
ENDMDL
MODEL 3
REMARK VINA RESULT:      -1.8      1.998      2.656
REMARK  1 active torsions:
REMARK  status: ('A' for Active; 'I' for Inactive)
REMARK    1  A    between atoms: C_5  and  N_1 
ROOT
ATOM      1  N   UNL d   1      32.697  18.479 -23.530  0.00  0.00    -0.226 N 
ATOM      2  C   UNL d   1      32.883  18.560 -22.732  0.00  0.00     0.359 A 
ATOM      3  C   UNL d   1      32.693  19.144 -24.024  0.00  0.00     0.273 A 
ATOM      4  N   UNL d   1      33.065  19.304 -22.422  0.00  0.00    -0.153 NA
ATOM      5  C   UNL d   1      33.061  19.970 -22.916  0.00  0.00     0.288 A 
ATOM      6  C   UNL d   1      32.874  19.889 -23.719  0.00  0.00     0.124 A 
ATOM      7  O   UNL d   1      32.889  17.906 -22.237  0.00  0.00    -0.244 OA
ATOM      8  O   UNL d   1      32.509  19.068 -24.821  0.00  0.00    -0.266 OA
ATOM      9  O   UNL d   1      33.241  20.712 -22.614  0.00  0.00    -0.265 OA
ENDROOT
BRANCH   1  10
ATOM     10  C   UNL d   1      32.517  17.740 -23.834  0.00  0.00     0.072 A 
ATOM     11  C   UNL d   1      31.718  17.494 -23.876  0.00  0.00     0.029 A 
ATOM     12  C   UNL d   1      31.537  16.756 -24.181  0.00  0.00     0.059 A 
ATOM     13 CL   UNL d   1      30.747  16.519 -24.219  0.00  0.00    -0.082 Cl
ATOM     14  C   UNL d   1      32.132  16.255 -24.444  0.00  0.00     0.011 A 
ATOM     15  C   UNL d   1      32.922  16.502 -24.401  0.00  0.00     0.002 A 
ATOM     16  C   UNL d   1      31.953  15.511 -24.751  0.00  0.00     0.001 C 
ATOM     17  C   UNL d   1      33.111  17.250 -24.093  0.00  0.00     0.018 A 
ENDBRANCH   1  10
TORSDOF 1
ENDMDL
MODEL 4
REMARK VINA RESULT:      -1.0      5.066      6.557
REMARK  1 active torsions:
REMARK  status: ('A' for Active; 'I' for Inactive)
REMARK    1  A    between atoms: C_5  and  N_1 
ROOT
ATOM      1  N   UNL d   1      32.909  21.070 -21.358  0.00  0.00    -0.226 N 
ATOM      2  C   UNL d   1      32.898  20.312 -21.038  0.00  0.00     0.359 A 
ATOM      3  C   UNL d   1      33.015  21.173 -22.174  0.00  0.00     0.273 A 
ATOM      4  N   UNL d   1      32.992  19.652 -21.527  0.00  0.00    -0.153 NA
ATOM      5  C   UNL d   1      33.099  19.756 -22.343  0.00  0.00     0.288 A 
ATOM      6  C   UNL d   1      33.110  20.518 -22.666  0.00  0.00     0.124 A 
ATOM      7  O   UNL d   1      32.792  20.201 -20.231  0.00  0.00    -0.244 OA
ATOM      8  O   UNL d   1      33.028  21.928 -22.498  0.00  0.00    -0.266 OA
ATOM      9  O   UNL d   1      33.193  19.105 -22.835  0.00  0.00    -0.265 OA
ENDROOT
BRANCH   1  10
ATOM     10  C   UNL d   1      32.815  21.721 -20.870  0.00  0.00     0.072 A 
ATOM     11  C   UNL d   1      32.278  22.325 -21.087  0.00  0.00     0.029 A 
ATOM     12  C   UNL d   1      32.183  22.977 -20.600  0.00  0.00     0.059 A 
ATOM     13 CL   UNL d   1      31.652  23.569 -20.819  0.00  0.00    -0.082 Cl
ATOM     14  C   UNL d   1      32.610  23.042 -19.902  0.00  0.00     0.011 A 
ATOM     15  C   UNL d   1      33.141  22.442 -19.691  0.00  0.00     0.002 A 
ATOM     16  C   UNL d   1      32.516  23.697 -19.409  0.00  0.00     0.001 C 
ATOM     17  C   UNL d   1      33.241  21.779 -20.181  0.00  0.00     0.018 A 
ENDBRANCH   1  10
TORSDOF 1
ENDMDL
