MODEL 1
REMARK VINA RESULT:      72.9      0.000      0.000
REMARK  5 active torsions:
REMARK  status: ('A' for Active; 'I' for Inactive)
REMARK    1  A    between atoms: C_7  and  C_1 
REMARK    2  A    between atoms: C_10  and  C_3 
REMARK    3  A    between atoms: C_8  and  C_4 
REMARK    4  A    between atoms: O_14  and  C_7 
REMARK    5  A    between atoms: C_20  and  O_14 
ROOT
ATOM      1  C   UNL d   1     -58.323 -99.149 -44.130  0.00  0.00     0.102 A 
ATOM      2  C   UNL d   1     -59.134 -99.053 -44.286  0.00  0.00     0.201 A 
ATOM      3  C   UNL d   1     -57.790 -99.309 -44.742  0.00  0.00     0.008 A 
ATOM      4  C   UNL d   1     -58.856 -99.282 -45.678  0.00  0.00     0.003 A 
ATOM      5  C   UNL d   1     -59.389 -99.122 -45.066  0.00  0.00     0.042 A 
ATOM      6  C   UNL d   1     -58.063 -99.374 -45.516  0.00  0.00     0.000 A 
ATOM      7  O   UNL d   1     -59.661 -98.895 -43.681  0.00  0.00    -0.286 OA
ENDROOT
BRANCH   4   8
ATOM      8  C   UNL d   1     -59.136 -99.347 -46.457  0.00  0.00     0.000 A 
ATOM      9  C   UNL d   1     -58.947-100.021 -46.905  0.00  0.00     0.000 A 
ATOM     10  C   UNL d   1     -59.216-100.095 -47.667  0.00  0.00     0.000 A 
ATOM     11  C   UNL d   1     -59.683 -99.484 -47.993  0.00  0.00     0.000 A 
ATOM     12  C   UNL d   1     -59.861 -98.828 -47.545  0.00  0.00     0.000 A 
ATOM     13  C   UNL d   1     -59.959 -99.555 -48.772  0.00  0.00     0.000 C 
ATOM     14  C   UNL d   1     -59.590 -98.757 -46.779  0.00  0.00     0.000 A 
ENDBRANCH   4   8
BRANCH   3  15
ATOM     15  C   UNL d   1     -56.990 -99.402 -44.574  0.00  0.00     0.000 A 
ATOM     16  C   UNL d   1     -56.564 -98.755 -44.282  0.00  0.00     0.000 A 
ATOM     17  C   UNL d   1     -55.760 -98.856 -44.115  0.00  0.00     0.000 A 
ATOM     18  C   UNL d   1     -55.388 -99.563 -44.230  0.00  0.00     0.000 A 
ATOM     19  C   UNL d   1     -55.831-100.212 -44.527  0.00  0.00     0.000 A 
ATOM     20  C   UNL d   1     -56.632-100.123 -44.697  0.00  0.00     0.000 A 
ENDBRANCH   3  15
BRANCH   1  21
ATOM     21  C   UNL d   1     -58.046 -99.083 -43.349  0.00  0.00     0.303 C 
ATOM     22  O   UNL d   1     -57.285 -99.342 -43.154  0.00  0.00    -0.259 OA
BRANCH  21  23
ATOM     23  O   UNL d   1     -58.530 -98.758 -42.759  0.00  0.00    -0.271 OA
BRANCH  23  24
ATOM     24  C   UNL d   1     -58.901 -99.250 -42.211  0.00  0.00     0.126 C 
ATOM     25  C   UNL d   1     -59.030 -98.984 -41.440  0.00  0.00     0.029 C 
ENDBRANCH  23  24
ENDBRANCH  21  23
ENDBRANCH   1  21
TORSDOF 5
ENDMDL
