MODEL 1
REMARK VINA RESULT:      81.1      0.000      0.000
REMARK  9 active torsions:
REMARK  status: ('A' for Active; 'I' for Inactive)
REMARK    1  A    between atoms: N_9  and  C_3 
REMARK    2  A    between atoms: S_14  and  C_6 
REMARK       I    between atoms: C_11  and  N_9 
REMARK    3  A    between atoms: C_18  and  C_11 
REMARK    4  A    between atoms: C_12  and  C_15 
REMARK    5  A    between atoms: O_25  and  C_12 
REMARK    6  A    between atoms: C_13  and  C_23 
REMARK       I    between atoms: N_16  and  C_13 
REMARK    7  A    between atoms: C_23  and  S_14 
REMARK    8  A    between atoms: C_24  and  N_16 
REMARK    9  A    between atoms: C_32  and  O_25 
ROOT
ATOM      1  C   UNL d   1     -47.255  30.067  35.844  0.00  0.00     0.079 A 
ATOM      2  C   UNL d   1     -47.402  29.316  36.177  0.00  0.00     0.187 A 
ATOM      3  C   UNL d   1     -47.509  30.227  35.085  0.00  0.00     0.171 A 
ATOM      4  N   UNL d   1     -47.800  28.738  35.745  0.00  0.00    -0.197 NA
ATOM      5  N   UNL d   1     -47.909  29.660  34.639  0.00  0.00    -0.202 NA
ATOM      6  C   UNL d   1     -48.055  28.909  34.972  0.00  0.00     0.198 A 
ATOM      7  C   UNL d   1     -46.853  30.515  36.407  0.00  0.00     0.029 A 
ATOM      8  O   UNL d   1     -47.086  29.308  36.947  0.00  0.00    -0.289 OA
ATOM      9  C   UNL d   1     -46.746  30.054  37.085  0.00  0.00     0.102 A 
ATOM     10  C   UNL d   1     -46.596  31.296  36.311  0.00  0.00     0.002 C 
ATOM     11  C   UNL d   1     -46.370  30.289  37.781  0.00  0.00     0.027 C 
ENDROOT
BRANCH   6  12
ATOM     12  S   UNL d   1     -48.457  28.329  34.532  0.00  0.00    -0.043 SA
BRANCH  12  13
ATOM     13  C   UNL d   1     -49.267  28.236  34.617  0.00  0.00     0.101 C 
BRANCH  13  14
ATOM     14  C   UNL d   1     -49.640  27.565  34.314  0.00  0.00     0.286 C 
ATOM     15  N   UNL d   1     -50.262  27.223  34.726  0.00  0.00    -0.208 NA
ATOM     16  O   UNL d   1     -49.390  27.237  33.599  0.00  0.00    -0.265 OA
BRANCH  15  17
ATOM     17  C   UNL d   1     -50.642  26.552  34.432  0.00  0.00     0.085 A 
ATOM     18  C   UNL d   1     -51.281  26.232  34.832  0.00  0.00     0.019 A 
ATOM     19  C   UNL d   1     -51.654  25.561  34.530  0.00  0.00     0.007 A 
ATOM     20  C   UNL d   1     -51.385  25.215  33.830  0.00  0.00     0.064 A 
ATOM     21  C   UNL d   1     -50.735  25.545  33.429  0.00  0.00     0.007 A 
ATOM     22  C   UNL d   1     -50.365  26.211  33.728  0.00  0.00     0.019 A 
BRANCH  20  23
ATOM     23  C   UNL d   1     -51.761  24.540  33.528  0.00  0.00     0.300 C 
ATOM     24  O   UNL d   1     -51.315  23.880  33.309  0.00  0.00    -0.259 OA
BRANCH  23  25
ATOM     25  O   UNL d   1     -52.582  24.530  33.446  0.00  0.00    -0.271 OA
BRANCH  25  26
ATOM     26  C   UNL d   1     -52.984  23.815  33.371  0.00  0.00     0.126 C 
ATOM     27  C   UNL d   1     -53.702  23.706  33.751  0.00  0.00     0.029 C 
ENDBRANCH  25  26
ENDBRANCH  23  25
ENDBRANCH  20  23
ENDBRANCH  15  17
ENDBRANCH  13  14
ENDBRANCH  12  13
ENDBRANCH   6  12
BRANCH   3  28
ATOM     28  N   UNL d   1     -47.364  30.969  34.756  0.00  0.00    -0.189 NA
ATOM     29  C   UNL d   1     -48.000  31.444  34.513  0.00  0.00     0.281 C 
ATOM     30  O   UNL d   1     -48.775  31.176  34.600  0.00  0.00    -0.265 OA
BRANCH  29  31
ATOM     31  C   UNL d   1     -47.850  32.186  34.184  0.00  0.00     0.058 A 
ATOM     32  C   UNL d   1     -47.181  32.605  34.410  0.00  0.00     0.005 A 
ATOM     33  C   UNL d   1     -47.028  33.342  34.086  0.00  0.00     0.000 A 
ATOM     34  C   UNL d   1     -47.542  33.670  33.532  0.00  0.00     0.000 A 
ATOM     35  C   UNL d   1     -48.216  33.246  33.306  0.00  0.00     0.000 A 
ATOM     36  C   UNL d   1     -48.371  32.500  33.633  0.00  0.00     0.005 A 
ENDBRANCH  29  31
ENDBRANCH   3  28
TORSDOF 9
ENDMDL
