MODEL 1
REMARK VINA RESULT:      -1.3      0.000      0.000
REMARK  8 active torsions:
REMARK  status: ('A' for Active; 'I' for Inactive)
REMARK    1  A    between atoms: N_6  and  C_1 
REMARK    2  A    between atoms: N_8  and  C_2 
REMARK    3  A    between atoms: N_15  and  C_7 
REMARK    4  A    between atoms: C_12  and  N_8 
REMARK    5  A    between atoms: N_10  and  C_19 
REMARK    6  A    between atoms: C_24  and  N_15 
REMARK    7  A    between atoms: C_19  and  C_20 
REMARK    8  A    between atoms: C_20  and  C_24 
ROOT
ATOM      1  C   UNL d   1      32.982  22.168 -23.702  0.00  0.00     0.201 A 
ATOM      2  C   UNL d   1      32.981  21.916 -22.912  0.00  0.00     0.206 A 
ATOM      3  N   UNL d   1      33.067  21.114 -22.765  0.00  0.00    -0.038 NA
ATOM      4  N   UNL d   1      33.152  20.836 -24.143  0.00  0.00    -0.036 NA
ATOM      5  C   UNL d   1      33.067  21.630 -24.316  0.00  0.00     0.227 A 
ATOM      6  C   UNL d   1      33.153  20.575 -23.379  0.00  0.00     0.753 A 
ATOM      7  N   UNL d   1      33.066  21.900 -25.093  0.00  0.00    -0.125 N 
ENDROOT
BRANCH   6   8
ATOM      8  N   UNL d   1      33.239  19.773 -23.216  0.00  0.00    -0.058 NA
BRANCH   8   9
ATOM      9  C   UNL d   1      32.836  19.217 -23.672  0.00  0.00     0.120 C 
BRANCH   9  10
ATOM     10  C   UNL d   1      32.667  18.475 -23.357  0.00  0.00     0.040 C 
BRANCH  10  11
ATOM     11  C   UNL d   1      32.063  18.016 -23.681  0.00  0.00     0.082 C 
BRANCH  11  12
ATOM     12  N   UNL d   1      32.098  17.191 -23.638  0.00  0.00    -0.299 N 
ATOM     13  C   UNL d   1      32.704  16.834 -23.207  0.00  0.00     0.107 A 
ATOM     14  C   UNL d   1      32.742  16.013 -23.162  0.00  0.00     0.142 A 
ATOM     15  O   UNL d   1      32.176  15.552 -23.547  0.00  0.00    -0.300 OA
ATOM     16  C   UNL d   1      31.572  15.912 -23.976  0.00  0.00     0.142 A 
ATOM     17  C   UNL d   1      31.531  16.741 -24.023  0.00  0.00     0.107 A 
ENDBRANCH  11  12
ENDBRANCH  10  11
ENDBRANCH   9  10
ENDBRANCH   8   9
ENDBRANCH   6   8
BRANCH   2  18
ATOM     18  N   UNL d   1      32.895  22.457 -22.295  0.00  0.00    -0.225 NA
BRANCH  18  19
ATOM     19  C   UNL d   1      32.713  22.195 -21.533  0.00  0.00     0.085 A 
ATOM     20  C   UNL d   1      32.018  21.756 -21.398  0.00  0.00     0.049 A 
ATOM     21  C   UNL d   1      31.837  21.498 -20.646  0.00  0.00     0.142 A 
ATOM     22  F   UNL d   1      31.149  21.063 -20.512  0.00  0.00    -0.204 F 
ATOM     23  C   UNL d   1      32.345  21.670 -20.014  0.00  0.00     0.030 A 
ATOM     24  C   UNL d   1      33.033  22.104 -20.148  0.00  0.00     0.004 A 
ATOM     25  C   UNL d   1      33.216  22.366 -20.909  0.00  0.00     0.019 A 
ENDBRANCH  18  19
ENDBRANCH   2  18
BRANCH   1  26
ATOM     26  N   UNL d   1      32.894  22.991 -23.867  0.00  0.00    -0.107 N 
ATOM     27  O   UNL d   1      33.159  23.291 -24.602  0.00  0.00    -0.531 OA
ATOM     28  O   UNL d   1      32.545  23.500 -23.302  0.00  0.00    -0.531 OA
ENDBRANCH   1  26
TORSDOF 8
ENDMDL
