MODEL 1
REMARK VINA RESULT:      85.4      0.000      0.000
REMARK  4 active torsions:
REMARK  status: ('A' for Active; 'I' for Inactive)
REMARK       I    between atoms: C_3  and  N_1 
REMARK    1  A    between atoms: C_7  and  C_3 
REMARK    2  A    between atoms: C_8  and  C_4 
REMARK    3  A    between atoms: C_9  and  C_5 
REMARK    4  A    between atoms: O_25  and  C_18 
ROOT
ATOM      1  N   UNL d   1     -55.298-100.652 -42.318  0.00  0.00    -0.195 N 
ATOM      2  N   UNL d   1     -55.296-100.710 -41.486  0.00  0.00    -0.163 NA
ATOM      3  C   UNL d   1     -55.506 -99.967 -42.742  0.00  0.00     0.282 C 
ATOM      4  C   UNL d   1     -55.066-101.366 -42.647  0.00  0.00     0.088 A 
ATOM      5  C   UNL d   1     -55.059-101.472 -41.297  0.00  0.00     0.103 A 
ATOM      6  C   UNL d   1     -54.917-101.876 -42.014  0.00  0.00     0.040 A 
ATOM      7  O   UNL d   1     -55.729 -99.283 -42.348  0.00  0.00    -0.265 OA
ENDROOT
BRANCH   3   8
ATOM      8  C   UNL d   1     -55.483 -99.987 -43.584  0.00  0.00     0.077 A 
ATOM      9  C   UNL d   1     -54.773 -99.917 -43.982  0.00  0.00     0.104 A 
ATOM     10  N   UNL d   1     -54.752 -99.937 -44.798  0.00  0.00    -0.242 NA
ATOM     11  C   UNL d   1     -55.466-100.029 -45.216  0.00  0.00     0.099 A 
ATOM     12  C   UNL d   1     -56.179-100.098 -44.819  0.00  0.00     0.021 A 
ATOM     13  C   UNL d   1     -56.198-100.079 -44.002  0.00  0.00     0.008 A 
ENDBRANCH   3   8
BRANCH   4  14
ATOM     14  C   UNL d   1     -54.995-101.543 -43.450  0.00  0.00     0.018 A 
ATOM     15  C   UNL d   1     -54.790-100.951 -43.986  0.00  0.00     0.004 A 
ATOM     16  C   UNL d   1     -54.718-101.128 -44.788  0.00  0.00     0.024 A 
ATOM     17  C   UNL d   1     -54.852-101.897 -45.055  0.00  0.00     0.094 A 
ATOM     18  C   UNL d   1     -55.056-102.485 -44.519  0.00  0.00     0.024 A 
ATOM     19  C   UNL d   1     -55.127-102.308 -43.716  0.00  0.00     0.004 A 
BRANCH  17  20
ATOM     20  O   UNL d   1     -54.780-102.074 -45.858  0.00  0.00    -0.328 OA
ATOM     21  C   UNL d   1     -55.226-102.685 -46.186  0.00  0.00     0.181 C 
ENDBRANCH  17  20
ENDBRANCH   4  14
BRANCH   5  22
ATOM     22  C   UNL d   1     -54.980-101.768 -40.544  0.00  0.00     0.019 A 
ATOM     23  C   UNL d   1     -54.801-101.233 -39.932  0.00  0.00     0.002 A 
ATOM     24  C   UNL d   1     -54.718-101.538 -39.149  0.00  0.00     0.007 A 
ATOM     25  C   UNL d   1     -54.812-102.334 -39.006  0.00  0.00     0.035 A 
ATOM     26  C   UNL d   1     -54.991-102.868 -39.618  0.00  0.00     0.007 A 
ATOM     27 BR   UNL d   1     -54.728-102.613 -38.234  0.00  0.00    -0.049 Br
ATOM     28  C   UNL d   1     -55.074-102.561 -40.405  0.00  0.00     0.002 A 
ENDBRANCH   5  22
TORSDOF 4
ENDMDL
MODEL 2
REMARK VINA RESULT:      86.9      1.125      2.151
REMARK  4 active torsions:
REMARK  status: ('A' for Active; 'I' for Inactive)
REMARK       I    between atoms: C_3  and  N_1 
REMARK    1  A    between atoms: C_7  and  C_3 
REMARK    2  A    between atoms: C_8  and  C_4 
REMARK    3  A    between atoms: C_9  and  C_5 
REMARK    4  A    between atoms: O_25  and  C_18 
ROOT
ATOM      1  N   UNL d   1     -55.209-101.798 -43.277  0.00  0.00    -0.195 N 
ATOM      2  N   UNL d   1     -55.015-102.211 -42.580  0.00  0.00    -0.163 NA
ATOM      3  C   UNL d   1     -55.067-102.080 -44.047  0.00  0.00     0.282 C 
ATOM      4  C   UNL d   1     -55.558-101.081 -43.088  0.00  0.00     0.088 A 
ATOM      5  C   UNL d   1     -55.246-101.743 -41.948  0.00  0.00     0.103 A 
ATOM      6  C   UNL d   1     -55.581-101.045 -42.262  0.00  0.00     0.040 A 
ATOM      7  O   UNL d   1     -54.713-102.810 -44.166  0.00  0.00    -0.265 OA
ENDROOT
BRANCH   3   8
ATOM      8  C   UNL d   1     -55.293-101.603 -44.703  0.00  0.00     0.077 A 
ATOM      9  C   UNL d   1     -55.920-101.822 -45.180  0.00  0.00     0.104 A 
ATOM     10  N   UNL d   1     -56.138-101.358 -45.816  0.00  0.00    -0.242 NA
ATOM     11  C   UNL d   1     -55.712-100.660 -45.969  0.00  0.00     0.099 A 
ATOM     12  C   UNL d   1     -55.083-100.439 -45.492  0.00  0.00     0.021 A 
ATOM     13  C   UNL d   1     -54.866-100.904 -44.856  0.00  0.00     0.008 A 
ENDBRANCH   3   8
BRANCH   4  14
ATOM     14  C   UNL d   1     -55.831-100.507 -43.613  0.00  0.00     0.018 A 
ATOM     15  C   UNL d   1     -55.325 -99.910 -43.872  0.00  0.00     0.004 A 
ATOM     16  C   UNL d   1     -55.599 -99.336 -44.398  0.00  0.00     0.024 A 
ATOM     17  C   UNL d   1     -56.379 -99.359 -44.665  0.00  0.00     0.094 A 
ATOM     18  C   UNL d   1     -56.881 -99.955 -44.405  0.00  0.00     0.024 A 
ATOM     19  C   UNL d   1     -56.608-100.529 -43.880  0.00  0.00     0.004 A 
BRANCH  17  20
ATOM     20  O   UNL d   1     -56.652 -98.785 -45.191  0.00  0.00    -0.328 OA
ATOM     21  C   UNL d   1     -57.421 -98.829 -45.484  0.00  0.00     0.181 C 
ENDBRANCH  17  20
ENDBRANCH   4  14
BRANCH   5  22
ATOM     22  C   UNL d   1     -55.160-101.933 -41.162  0.00  0.00     0.019 A 
ATOM     23  C   UNL d   1     -55.432-102.678 -40.910  0.00  0.00     0.002 A 
ATOM     24  C   UNL d   1     -55.344-102.880 -40.095  0.00  0.00     0.007 A 
ATOM     25  C   UNL d   1     -55.001-102.353 -39.577  0.00  0.00     0.035 A 
ATOM     26  C   UNL d   1     -54.729-101.608 -39.829  0.00  0.00     0.007 A 
ATOM     27 BR   UNL d   1     -54.923-102.568 -38.784  0.00  0.00    -0.049 Br
ATOM     28  C   UNL d   1     -54.818-101.408 -40.649  0.00  0.00     0.002 A 
ENDBRANCH   5  22
TORSDOF 4
ENDMDL
