MODEL 1
REMARK VINA RESULT:     166.1      0.000      0.000
REMARK  7 active torsions:
REMARK  status: ('A' for Active; 'I' for Inactive)
REMARK    1  A    between atoms: N_6  and  S_1 
REMARK    2  A    between atoms: C_9  and  S_1 
REMARK    3  A    between atoms: N_2  and  C_11 
REMARK    4  A    between atoms: C_14  and  C_3 
REMARK    5  A    between atoms: C_7  and  C_15 
REMARK       I    between atoms: N_10  and  C_7 
REMARK    6  A    between atoms: C_25  and  N_10 
REMARK    7  A    between atoms: O_33  and  C_26 
ROOT
ATOM      1  C   UNL d   1      59.733  40.200  54.817  0.00  0.00     0.085 A 
ATOM      2  C   UNL d   1      59.885  40.004  54.035  0.00  0.00     0.021 A 
ATOM      3  C   UNL d   1      59.796  40.981  55.075  0.00  0.00     0.021 A 
ATOM      4  C   UNL d   1      60.166  41.378  53.747  0.00  0.00     0.085 A 
ATOM      5  C   UNL d   1      60.103  40.594  53.492  0.00  0.00     0.021 A 
ATOM      6  C   UNL d   1      60.011  41.573  54.548  0.00  0.00     0.021 A 
ENDROOT
BRANCH   4   7
ATOM      7  N   UNL d   1      60.384  41.975  53.208  0.00  0.00    -0.208 NA
ATOM      8  C   UNL d   1      60.932  41.809  52.619  0.00  0.00     0.279 C 
ATOM      9  O   UNL d   1      61.265  41.061  52.557  0.00  0.00    -0.265 OA
BRANCH   8  10
ATOM     10  C   UNL d   1      61.155  42.407  52.074  0.00  0.00     0.058 A 
ATOM     11  C   UNL d   1      60.746  43.109  52.063  0.00  0.00     0.005 A 
ATOM     12  C   UNL d   1      60.962  43.693  51.532  0.00  0.00     0.013 A 
ATOM     13  C   UNL d   1      61.579  43.579  51.019  0.00  0.00     0.104 A 
ATOM     14  C   UNL d   1      61.993  42.870  51.029  0.00  0.00     0.013 A 
ATOM     15  C   UNL d   1      61.775  42.283  51.562  0.00  0.00     0.005 A 
BRANCH  13  16
ATOM     16  S   UNL d   1      61.793  44.179  50.481  0.00  0.00     0.271 S 
ATOM     17  O   UNL d   1      61.388  44.725  50.937  0.00  0.00    -0.200 OA
ATOM     18  O   UNL d   1      62.195  43.623  50.034  0.00  0.00    -0.200 OA
BRANCH  16  19
ATOM     19  N   UNL d   1      62.013  44.763  49.940  0.00  0.00    -0.229 N 
ATOM     20  C   UNL d   1      61.631  45.487  49.910  0.00  0.00     0.092 A 
ATOM     21  C   UNL d   1      61.863  46.069  49.358  0.00  0.00     0.020 A 
ATOM     22  C   UNL d   1      62.478  45.917  48.841  0.00  0.00     0.003 A 
ATOM     23  C   UNL d   1      62.872  45.190  48.861  0.00  0.00     0.020 A 
ATOM     24  C   UNL d   1      62.639  44.610  49.413  0.00  0.00     0.092 A 
ENDBRANCH  16  19
ENDBRANCH  13  16
ENDBRANCH   8  10
ENDBRANCH   4   7
BRANCH   1  25
ATOM     25  N   UNL d   1      59.515  39.610  55.360  0.00  0.00    -0.211 N 
ATOM     26  C   UNL d   1      58.750  39.304  55.477  0.00  0.00     0.105 A 
ATOM     27  C   UNL d   1      58.796  38.730  56.070  0.00  0.00     0.143 A 
ATOM     28  N   UNL d   1      59.585  38.674  56.324  0.00  0.00    -0.127 NA
ATOM     29  N   UNL d   1      60.030  39.218  55.885  0.00  0.00    -0.060 NA
BRANCH  26  30
ATOM     30  C   UNL d   1      58.075  39.533  55.077  0.00  0.00     0.019 A 
ATOM     31  C   UNL d   1      57.535  40.042  55.439  0.00  0.00     0.004 A 
ATOM     32  C   UNL d   1      56.854  40.273  55.035  0.00  0.00     0.024 A 
ATOM     33  C   UNL d   1      56.710  40.002  54.278  0.00  0.00     0.094 A 
ATOM     34  C   UNL d   1      57.254  39.487  53.912  0.00  0.00     0.024 A 
ATOM     35  C   UNL d   1      57.936  39.254  54.313  0.00  0.00     0.004 A 
BRANCH  33  36
ATOM     36  O   UNL d   1      56.034  40.227  53.870  0.00  0.00    -0.328 OA
ATOM     37  C   UNL d   1      56.084  40.699  53.200  0.00  0.00     0.181 C 
ENDBRANCH  33  36
ENDBRANCH  26  30
ENDBRANCH   1  25
TORSDOF 7
ENDMDL
