MODEL 1
REMARK VINA RESULT:      38.8      0.000      0.000
REMARK  4 active torsions:
REMARK  status: ('A' for Active; 'I' for Inactive)
REMARK    1  A    between atoms: C_2  and  S_1 
REMARK    2  A    between atoms: N_3  and  S_1 
REMARK    3  A    between atoms: C_18  and  N_8 
REMARK    4  A    between atoms: C_21  and  C_18 
ROOT
ATOM      1  S   UNL d   1      13.865  12.698  -3.243  0.00  0.00     0.271 S 
ATOM      2  O   UNL d   1      14.152  13.469  -3.186  0.00  0.00    -0.200 OA
ATOM      3  O   UNL d   1      13.576  11.928  -3.303  0.00  0.00    -0.200 OA
ENDROOT
BRANCH   1   4
ATOM      4  C   UNL d   1      13.609  12.842  -4.014  0.00  0.00     0.104 A 
ATOM      5  C   UNL d   1      13.062  13.454  -4.159  0.00  0.00     0.012 A 
ATOM      6  C   UNL d   1      12.801  13.604  -4.928  0.00  0.00     0.001 A 
ATOM      7  C   UNL d   1      12.781  13.913  -3.531  0.00  0.00     0.001 C 
ATOM      8  C   UNL d   1      13.084  13.144  -5.549  0.00  0.00     0.000 A 
ATOM      9  C   UNL d   1      13.628  12.535  -5.406  0.00  0.00     0.001 A 
ATOM     10  C   UNL d   1      12.826  13.291  -6.319  0.00  0.00     0.000 C 
ATOM     11  C   UNL d   1      13.887  12.388  -4.636  0.00  0.00     0.012 A 
ATOM     12  C   UNL d   1      14.428  11.780  -4.496  0.00  0.00     0.001 C 
ENDBRANCH   1   4
BRANCH   1  13
ATOM     13  N   UNL d   1      14.116  12.543  -2.473  0.00  0.00    -0.226 N 
ATOM     14  C   UNL d   1      13.755  11.937  -2.038  0.00  0.00     0.111 A 
ATOM     15  C   UNL d   1      14.007  11.781  -1.268  0.00  0.00     0.100 A 
ATOM     16  N   UNL d   1      14.613  12.225  -0.932  0.00  0.00    -0.297 N 
ATOM     17  C   UNL d   1      14.972  12.830  -1.370  0.00  0.00     0.100 A 
ATOM     18  C   UNL d   1      14.727  12.993  -2.140  0.00  0.00     0.111 A 
BRANCH  16  19
ATOM     19  C   UNL d   1      14.861  12.065  -0.161  0.00  0.00     0.126 C 
BRANCH  19  20
ATOM     20  C   UNL d   1      15.636  11.827  -0.017  0.00  0.00     0.253 C 
ATOM     21  O   UNL d   1      16.250  12.379  -0.035  0.00  0.00    -0.281 OA
ENDBRANCH  19  20
ENDBRANCH  16  19
ENDBRANCH   1  13
TORSDOF 4
ENDMDL
MODEL 2
REMARK VINA RESULT:      40.7      1.690      3.980
REMARK  4 active torsions:
REMARK  status: ('A' for Active; 'I' for Inactive)
REMARK    1  A    between atoms: C_2  and  S_1 
REMARK    2  A    between atoms: N_3  and  S_1 
REMARK    3  A    between atoms: C_18  and  N_8 
REMARK    4  A    between atoms: C_21  and  C_18 
ROOT
ATOM      1  S   UNL d   1      14.263  13.703  -2.229  0.00  0.00     0.271 S 
ATOM      2  O   UNL d   1      14.807  13.103  -2.073  0.00  0.00    -0.200 OA
ATOM      3  O   UNL d   1      13.720  14.306  -2.382  0.00  0.00    -0.200 OA
ENDROOT
BRANCH   1   4
ATOM      4  C   UNL d   1      14.627  14.190  -1.672  0.00  0.00     0.104 A 
ATOM      5  C   UNL d   1      14.759  14.994  -1.851  0.00  0.00     0.012 A 
ATOM      6  C   UNL d   1      15.124  15.487  -1.298  0.00  0.00     0.001 A 
ATOM      7  C   UNL d   1      14.525  15.297  -2.583  0.00  0.00     0.001 C 
ATOM      8  C   UNL d   1      15.355  15.181  -0.571  0.00  0.00     0.000 A 
ATOM      9  C   UNL d   1      15.225  14.382  -0.392  0.00  0.00     0.001 A 
ATOM     10  C   UNL d   1      15.720  15.671  -0.016  0.00  0.00     0.000 C 
ATOM     11  C   UNL d   1      14.860  13.891  -0.946  0.00  0.00     0.012 A 
ATOM     12  C   UNL d   1      14.731  13.096  -0.765  0.00  0.00     0.001 C 
ENDBRANCH   1   4
BRANCH   1  13
ATOM     13  N   UNL d   1      13.889  13.226  -2.789  0.00  0.00    -0.226 N 
ATOM     14  C   UNL d   1      13.848  12.408  -2.667  0.00  0.00     0.111 A 
ATOM     15  C   UNL d   1      13.475  11.930  -3.227  0.00  0.00     0.100 A 
ATOM     16  N   UNL d   1      13.145  12.263  -3.903  0.00  0.00    -0.297 N 
ATOM     17  C   UNL d   1      13.187  13.083  -4.021  0.00  0.00     0.100 A 
ATOM     18  C   UNL d   1      13.559  13.568  -3.467  0.00  0.00     0.111 A 
BRANCH  16  19
ATOM     19  C   UNL d   1      12.772  11.782  -4.460  0.00  0.00     0.126 C 
BRANCH  19  20
ATOM     20  C   UNL d   1      12.973  11.839  -5.257  0.00  0.00     0.253 C 
ATOM     21  O   UNL d   1      13.764  11.906  -5.481  0.00  0.00    -0.281 OA
ENDBRANCH  19  20
ENDBRANCH  16  19
ENDBRANCH   1  13
TORSDOF 4
ENDMDL
