MODEL 1
REMARK VINA RESULT:      81.7      0.000      0.000
REMARK  3 active torsions:
REMARK  status: ('A' for Active; 'I' for Inactive)
REMARK    1  A    between atoms: N_9  and  C_3 
REMARK    2  A    between atoms: C_14  and  C_5 
REMARK       I    between atoms: C_10  and  N_11 
REMARK    3  A    between atoms: C_13  and  C_10 
ROOT
ATOM      1  N   UNL d   1     -50.598  26.262  33.701  0.00  0.00    -0.196 N 
ATOM      2  C   UNL d   1     -50.845  25.487  33.573  0.00  0.00     0.167 A 
ATOM      3  C   UNL d   1     -49.796  26.445  33.705  0.00  0.00     0.152 A 
ATOM      4  N   UNL d   1     -51.265  26.727  33.807  0.00  0.00    -0.163 NA
ATOM      5  C   UNL d   1     -51.663  25.477  33.600  0.00  0.00     0.055 A 
ATOM      6  C   UNL d   1     -51.925  26.240  33.744  0.00  0.00     0.104 A 
ATOM      7  N   UNL d   1     -50.290  24.893  33.448  0.00  0.00    -0.227 NA
ATOM      8  C   UNL d   1     -49.232  25.848  33.579  0.00  0.00     0.057 A 
ATOM      9  C   UNL d   1     -49.479  25.072  33.450  0.00  0.00     0.086 A 
ATOM     10  C   UNL d   1     -52.713  26.470  33.813  0.00  0.00     0.023 C 
ATOM     11  C   UNL d   1     -48.922  24.469  33.324  0.00  0.00     0.021 C 
ENDROOT
BRANCH   3  12
ATOM     12  N   UNL d   1     -49.548  27.225  33.834  0.00  0.00    -0.286 N 
ATOM     13  C   UNL d   1     -48.963  27.408  34.384  0.00  0.00     0.101 A 
ATOM     14  C   UNL d   1     -48.732  28.192  34.495  0.00  0.00     0.102 A 
ATOM     15  N   UNL d   1     -49.078  28.790  34.066  0.00  0.00    -0.267 N 
ATOM     16  C   UNL d   1     -48.839  29.579  34.184  0.00  0.00     0.288 C 
ATOM     17  C   UNL d   1     -49.669  28.614  33.508  0.00  0.00     0.102 A 
ATOM     18  O   UNL d   1     -49.181  30.188  33.756  0.00  0.00    -0.264 OA
ATOM     19  C   UNL d   1     -49.900  27.830  33.397  0.00  0.00     0.101 A 
BRANCH  16  20
ATOM     20  C   UNL d   1     -48.252  29.742  34.739  0.00  0.00     0.156 A 
ATOM     21  O   UNL d   1     -48.009  29.355  35.415  0.00  0.00    -0.300 OA
ATOM     22  C   UNL d   1     -47.392  29.787  35.743  0.00  0.00     0.123 A 
ATOM     23  C   UNL d   1     -47.251  30.432  35.283  0.00  0.00     0.029 A 
ATOM     24  C   UNL d   1     -47.782  30.415  34.653  0.00  0.00     0.032 A 
ENDBRANCH  16  20
ENDBRANCH   3  12
BRANCH   5  25
ATOM     25  C   UNL d   1     -52.211  24.861  33.510  0.00  0.00     0.004 A 
ATOM     26  C   UNL d   1     -51.946  24.087  33.403  0.00  0.00     0.000 A 
ATOM     27  C   UNL d   1     -52.494  23.471  33.313  0.00  0.00     0.000 A 
ATOM     28  C   UNL d   1     -53.304  23.632  33.332  0.00  0.00     0.000 A 
ATOM     29  C   UNL d   1     -53.568  24.410  33.440  0.00  0.00     0.000 A 
ATOM     30  C   UNL d   1     -53.020  25.021  33.529  0.00  0.00     0.000 A 
ENDBRANCH   5  25
TORSDOF 3
ENDMDL
