MODEL 1
REMARK VINA RESULT:      -3.0      0.000      0.000
REMARK  3 active torsions:
REMARK  status: ('A' for Active; 'I' for Inactive)
REMARK    1  A    between atoms: C_3  and  C_1 
REMARK    2  A    between atoms: C_5  and  C_3 
REMARK    3  A    between atoms: C_11  and  C_5 
ROOT
ATOM      1  C   UNL d   1      31.019  16.695 -24.154  0.00  0.00     0.109 C 
ATOM      2  C   UNL d   1      31.160  16.077 -23.633  0.00  0.00     0.105 C 
ATOM      3  N   UNL d   1      31.296  15.452 -23.112  0.00  0.00    -0.191 NA
ENDROOT
BRANCH   1   4
ATOM      4  C   UNL d   1      31.538  17.339 -24.173  0.00  0.00     0.192 A 
ATOM      5  N   UNL d   1      31.850  17.705 -24.857  0.00  0.00    -0.220 NA
ATOM      6  C   UNL d   1      32.345  18.327 -24.616  0.00  0.00     0.106 A 
ATOM      7  C   UNL d   1      32.793  18.870 -25.046  0.00  0.00     0.021 A 
ATOM      8  C   UNL d   1      32.344  18.353 -23.786  0.00  0.00     0.119 A 
ATOM      9  C   UNL d   1      33.241  19.439 -24.650  0.00  0.00     0.002 A 
ATOM     10  C   UNL d   1      33.240  19.464 -23.819  0.00  0.00     0.002 A 
ATOM     11  C   UNL d   1      32.792  18.921 -23.390  0.00  0.00     0.026 A 
ATOM     12  O   UNL d   1      31.849  17.747 -23.509  0.00  0.00    -0.287 OA
ENDBRANCH   1   4
BRANCH   1  13
ATOM     13  C   UNL d   1      30.365  16.677 -24.655  0.00  0.00     0.014 C 
BRANCH  13  14
ATOM     14  C   UNL d   1      29.601  16.656 -24.339  0.00  0.00     0.004 A 
ATOM     15  C   UNL d   1      29.230  17.362 -24.129  0.00  0.00     0.021 A 
ATOM     16  C   UNL d   1      28.466  17.341 -23.813  0.00  0.00     0.099 A 
ATOM     17  N   UNL d   1      28.081  16.618 -23.710  0.00  0.00    -0.242 NA
ATOM     18  C   UNL d   1      28.459  15.904 -23.925  0.00  0.00     0.099 A 
ATOM     19  C   UNL d   1      29.223  15.934 -24.240  0.00  0.00     0.021 A 
ENDBRANCH  13  14
ENDBRANCH   1  13
TORSDOF 3
ENDMDL
MODEL 2
REMARK VINA RESULT:      -2.8      1.191      3.916
REMARK  3 active torsions:
REMARK  status: ('A' for Active; 'I' for Inactive)
REMARK    1  A    between atoms: C_3  and  C_1 
REMARK    2  A    between atoms: C_5  and  C_3 
REMARK    3  A    between atoms: C_11  and  C_5 
ROOT
ATOM      1  C   UNL d   1      31.585  16.786 -24.498  0.00  0.00     0.109 C 
ATOM      2  C   UNL d   1      32.235  16.287 -24.526  0.00  0.00     0.105 C 
ATOM      3  N   UNL d   1      32.892  15.790 -24.557  0.00  0.00    -0.191 NA
ENDROOT
BRANCH   1   4
ATOM      4  C   UNL d   1      30.865  16.502 -24.205  0.00  0.00     0.192 A 
ATOM      5  N   UNL d   1      30.126  16.526 -24.596  0.00  0.00    -0.220 NA
ATOM      6  C   UNL d   1      29.557  16.181 -24.099  0.00  0.00     0.106 A 
ATOM      7  C   UNL d   1      28.747  16.056 -24.194  0.00  0.00     0.021 A 
ATOM      8  C   UNL d   1      29.936  15.942 -23.399  0.00  0.00     0.119 A 
ATOM      9  C   UNL d   1      28.314  15.692 -23.594  0.00  0.00     0.002 A 
ATOM     10  C   UNL d   1      28.693  15.453 -22.894  0.00  0.00     0.002 A 
ATOM     11  C   UNL d   1      29.502  15.578 -22.799  0.00  0.00     0.026 A 
ATOM     12  O   UNL d   1      30.740  16.137 -23.460  0.00  0.00    -0.287 OA
ENDBRANCH   1   4
BRANCH   1  13
ATOM     13  C   UNL d   1      31.646  17.566 -24.758  0.00  0.00     0.014 C 
BRANCH  13  14
ATOM     14  C   UNL d   1      32.180  18.083 -24.396  0.00  0.00     0.004 A 
ATOM     15  C   UNL d   1      32.192  18.141 -23.574  0.00  0.00     0.021 A 
ATOM     16  C   UNL d   1      32.726  18.658 -23.211  0.00  0.00     0.099 A 
ATOM     17  N   UNL d   1      33.241  19.110 -23.671  0.00  0.00    -0.242 NA
ATOM     18  C   UNL d   1      33.227  19.049 -24.505  0.00  0.00     0.099 A 
ATOM     19  C   UNL d   1      32.690  18.530 -24.859  0.00  0.00     0.021 A 
ENDBRANCH  13  14
ENDBRANCH   1  13
TORSDOF 3
ENDMDL
MODEL 3
REMARK VINA RESULT:      -2.5      1.169      1.638
REMARK  3 active torsions:
REMARK  status: ('A' for Active; 'I' for Inactive)
REMARK    1  A    between atoms: C_3  and  C_1 
REMARK    2  A    between atoms: C_5  and  C_3 
REMARK    3  A    between atoms: C_11  and  C_5 
ROOT
ATOM      1  C   UNL d   1      32.418  17.014 -23.968  0.00  0.00     0.109 C 
ATOM      2  C   UNL d   1      32.723  16.335 -23.623  0.00  0.00     0.105 C 
ATOM      3  N   UNL d   1      33.026  15.649 -23.280  0.00  0.00    -0.191 NA
ENDROOT
BRANCH   1   4
ATOM      4  C   UNL d   1      32.609  17.754 -23.652  0.00  0.00     0.192 A 
ATOM      5  N   UNL d   1      32.732  18.461 -24.082  0.00  0.00    -0.220 NA
ATOM      6  C   UNL d   1      32.911  19.066 -23.542  0.00  0.00     0.106 A 
ATOM      7  C   UNL d   1      33.081  19.866 -23.649  0.00  0.00     0.021 A 
ATOM      8  C   UNL d   1      32.901  18.742 -22.777  0.00  0.00     0.119 A 
ATOM      9  C   UNL d   1      33.241  20.344 -22.996  0.00  0.00     0.002 A 
ATOM     10  C   UNL d   1      33.231  20.020 -22.231  0.00  0.00     0.002 A 
ATOM     11  C   UNL d   1      33.061  19.220 -22.124  0.00  0.00     0.026 A 
ATOM     12  O   UNL d   1      32.716  17.935 -22.840  0.00  0.00    -0.287 OA
ENDBRANCH   1   4
BRANCH   1  13
ATOM     13  C   UNL d   1      31.924  16.961 -24.627  0.00  0.00     0.014 C 
BRANCH  13  14
ATOM     14  C   UNL d   1      31.210  16.547 -24.576  0.00  0.00     0.004 A 
ATOM     15  C   UNL d   1      30.619  16.819 -24.069  0.00  0.00     0.021 A 
ATOM     16  C   UNL d   1      29.905  16.406 -24.019  0.00  0.00     0.099 A 
ATOM     17  N   UNL d   1      29.787  15.727 -24.473  0.00  0.00    -0.242 NA
ATOM     18  C   UNL d   1      30.388  15.453 -24.986  0.00  0.00     0.099 A 
ATOM     19  C   UNL d   1      31.099  15.873 -25.031  0.00  0.00     0.021 A 
ENDBRANCH  13  14
ENDBRANCH   1  13
TORSDOF 3
ENDMDL
MODEL 4
REMARK VINA RESULT:      -2.3      1.937      3.324
REMARK  3 active torsions:
REMARK  status: ('A' for Active; 'I' for Inactive)
REMARK    1  A    between atoms: C_3  and  C_1 
REMARK    2  A    between atoms: C_5  and  C_3 
REMARK    3  A    between atoms: C_11  and  C_5 
ROOT
ATOM      1  C   UNL d   1      33.092  18.692 -23.529  0.00  0.00     0.109 C 
ATOM      2  C   UNL d   1      33.166  18.936 -24.309  0.00  0.00     0.105 C 
ATOM      3  N   UNL d   1      33.239  19.175 -25.095  0.00  0.00    -0.191 NA
ENDROOT
BRANCH   1   4
ATOM      4  C   UNL d   1      33.100  19.255 -22.923  0.00  0.00     0.192 A 
ATOM      5  N   UNL d   1      33.013  20.082 -23.012  0.00  0.00    -0.220 NA
ATOM      6  C   UNL d   1      33.055  20.431 -22.259  0.00  0.00     0.106 A 
ATOM      7  C   UNL d   1      33.006  21.217 -22.014  0.00  0.00     0.021 A 
ATOM      8  C   UNL d   1      33.167  19.826 -21.700  0.00  0.00     0.119 A 
ATOM      9  C   UNL d   1      33.068  21.402 -21.213  0.00  0.00     0.002 A 
ATOM     10  C   UNL d   1      33.180  20.798 -20.653  0.00  0.00     0.002 A 
ATOM     11  C   UNL d   1      33.229  20.012 -20.899  0.00  0.00     0.026 A 
ATOM     12  O   UNL d   1      33.195  19.101 -22.104  0.00  0.00    -0.287 OA
ENDBRANCH   1   4
BRANCH   1  13
ATOM     13  C   UNL d   1      33.011  17.892 -23.349  0.00  0.00     0.014 C 
BRANCH  13  14
ATOM     14  C   UNL d   1      32.457  17.430 -23.753  0.00  0.00     0.004 A 
ATOM     15  C   UNL d   1      32.717  16.850 -24.277  0.00  0.00     0.021 A 
ATOM     16  C   UNL d   1      32.162  16.388 -24.681  0.00  0.00     0.099 A 
ATOM     17  N   UNL d   1      31.356  16.510 -24.558  0.00  0.00    -0.242 NA
ATOM     18  C   UNL d   1      31.094  17.099 -24.025  0.00  0.00     0.099 A 
ATOM     19  C   UNL d   1      31.655  17.556 -23.626  0.00  0.00     0.021 A 
ENDBRANCH  13  14
ENDBRANCH   1  13
TORSDOF 3
ENDMDL
MODEL 5
REMARK VINA RESULT:      -1.9      2.322      4.615
REMARK  3 active torsions:
REMARK  status: ('A' for Active; 'I' for Inactive)
REMARK    1  A    between atoms: C_3  and  C_1 
REMARK    2  A    between atoms: C_5  and  C_3 
REMARK    3  A    between atoms: C_11  and  C_5 
ROOT
ATOM      1  C   UNL d   1      33.043  19.716 -22.962  0.00  0.00     0.109 C 
ATOM      2  C   UNL d   1      33.140  20.314 -23.514  0.00  0.00     0.105 C 
ATOM      3  N   UNL d   1      33.240  20.920 -24.066  0.00  0.00    -0.191 NA
ENDROOT
BRANCH   1   4
ATOM      4  C   UNL d   1      32.745  18.983 -23.201  0.00  0.00     0.192 A 
ATOM      5  N   UNL d   1      32.998  18.232 -22.932  0.00  0.00    -0.220 NA
ATOM      6  C   UNL d   1      32.547  17.652 -23.320  0.00  0.00     0.106 A 
ATOM      7  C   UNL d   1      32.555  16.828 -23.274  0.00  0.00     0.021 A 
ATOM      8  C   UNL d   1      32.015  18.035 -23.830  0.00  0.00     0.119 A 
ATOM      9  C   UNL d   1      32.033  16.386 -23.734  0.00  0.00     0.002 A 
ATOM     10  C   UNL d   1      31.500  16.769 -24.244  0.00  0.00     0.002 A 
ATOM     11  C   UNL d   1      31.493  17.592 -24.290  0.00  0.00     0.026 A 
ATOM     12  O   UNL d   1      32.133  18.854 -23.760  0.00  0.00    -0.287 OA
ENDBRANCH   1   4
BRANCH   1  13
ATOM     13  C   UNL d   1      33.241  19.843 -22.171  0.00  0.00     0.014 C 
BRANCH  13  14
ATOM     14  C   UNL d   1      32.951  20.508 -21.773  0.00  0.00     0.004 A 
ATOM     15  C   UNL d   1      32.407  20.408 -21.162  0.00  0.00     0.021 A 
ATOM     16  C   UNL d   1      32.116  21.072 -20.764  0.00  0.00     0.099 A 
ATOM     17  N   UNL d   1      32.371  21.827 -20.979  0.00  0.00    -0.242 NA
ATOM     18  C   UNL d   1      32.923  21.925 -21.600  0.00  0.00     0.099 A 
ATOM     19  C   UNL d   1      33.208  21.256 -21.992  0.00  0.00     0.021 A 
ENDBRANCH  13  14
ENDBRANCH   1  13
TORSDOF 3
ENDMDL
MODEL 6
REMARK VINA RESULT:      -1.6      3.532      5.511
REMARK  3 active torsions:
REMARK  status: ('A' for Active; 'I' for Inactive)
REMARK    1  A    between atoms: C_3  and  C_1 
REMARK    2  A    between atoms: C_5  and  C_3 
REMARK    3  A    between atoms: C_11  and  C_5 
ROOT
ATOM      1  C   UNL d   1      33.130  21.025 -21.704  0.00  0.00     0.109 C 
ATOM      2  C   UNL d   1      33.071  20.811 -20.915  0.00  0.00     0.105 C 
ATOM      3  N   UNL d   1      33.012  20.603 -20.119  0.00  0.00    -0.191 NA
ENDROOT
BRANCH   1   4
ATOM      4  C   UNL d   1      33.080  20.442 -22.290  0.00  0.00     0.192 A 
ATOM      5  N   UNL d   1      32.862  19.642 -22.177  0.00  0.00    -0.220 NA
ATOM      6  C   UNL d   1      32.886  19.260 -22.914  0.00  0.00     0.106 A 
ATOM      7  C   UNL d   1      32.728  18.481 -23.135  0.00  0.00     0.021 A 
ATOM      8  C   UNL d   1      33.119  19.816 -23.487  0.00  0.00     0.119 A 
ATOM      9  C   UNL d   1      32.800  18.255 -23.925  0.00  0.00     0.002 A 
ATOM     10  C   UNL d   1      33.032  18.811 -24.497  0.00  0.00     0.002 A 
ATOM     11  C   UNL d   1      33.190  19.589 -24.277  0.00  0.00     0.026 A 
ATOM     12  O   UNL d   1      33.239  20.544 -23.107  0.00  0.00    -0.287 OA
ENDBRANCH   1   4
BRANCH   1  13
ATOM     13  C   UNL d   1      33.240  21.814 -21.916  0.00  0.00     0.014 C 
BRANCH  13  14
ATOM     14  C   UNL d   1      32.858  22.413 -21.492  0.00  0.00     0.004 A 
ATOM     15  C   UNL d   1      32.141  22.710 -21.768  0.00  0.00     0.021 A 
ATOM     16  C   UNL d   1      31.759  23.309 -21.344  0.00  0.00     0.099 A 
ATOM     17  N   UNL d   1      32.097  23.604 -20.651  0.00  0.00    -0.242 NA
ATOM     18  C   UNL d   1      32.825  23.301 -20.373  0.00  0.00     0.099 A 
ATOM     19  C   UNL d   1      33.199  22.702 -20.803  0.00  0.00     0.021 A 
ENDBRANCH  13  14
ENDBRANCH   1  13
TORSDOF 3
ENDMDL
MODEL 7
REMARK VINA RESULT:      -0.7      5.615      7.276
REMARK  3 active torsions:
REMARK  status: ('A' for Active; 'I' for Inactive)
REMARK    1  A    between atoms: C_3  and  C_1 
REMARK    2  A    between atoms: C_5  and  C_3 
REMARK    3  A    between atoms: C_11  and  C_5 
ROOT
ATOM      1  C   UNL d   1      32.860  22.170 -20.588  0.00  0.00     0.109 C 
ATOM      2  C   UNL d   1      32.519  21.456 -20.804  0.00  0.00     0.105 C 
ATOM      3  N   UNL d   1      32.179  20.738 -21.026  0.00  0.00    -0.191 NA
ENDROOT
BRANCH   1   4
ATOM      4  C   UNL d   1      32.826  22.417 -19.800  0.00  0.00     0.192 A 
ATOM      5  N   UNL d   1      32.477  23.122 -19.514  0.00  0.00    -0.220 NA
ATOM      6  C   UNL d   1      32.572  23.143 -18.689  0.00  0.00     0.106 A 
ATOM      7  C   UNL d   1      32.341  23.698 -18.124  0.00  0.00     0.021 A 
ATOM      8  C   UNL d   1      32.978  22.456 -18.457  0.00  0.00     0.119 A 
ATOM      9  C   UNL d   1      32.514  23.570 -17.328  0.00  0.00     0.002 A 
ATOM     10  C   UNL d   1      32.920  22.883 -17.095  0.00  0.00     0.002 A 
ATOM     11  C   UNL d   1      33.150  22.328 -17.661  0.00  0.00     0.026 A 
ATOM     12  O   UNL d   1      33.136  22.007 -19.137  0.00  0.00    -0.287 OA
ENDBRANCH   1   4
BRANCH   1  13
ATOM     13  C   UNL d   1      33.233  22.641 -21.153  0.00  0.00     0.014 C 
BRANCH  13  14
ATOM     14  C   UNL d   1      32.874  22.773 -21.886  0.00  0.00     0.004 A 
ATOM     15  C   UNL d   1      33.060  22.283 -22.523  0.00  0.00     0.021 A 
ATOM     16  C   UNL d   1      32.700  22.415 -23.255  0.00  0.00     0.099 A 
ATOM     17  N   UNL d   1      32.160  23.032 -23.345  0.00  0.00    -0.242 NA
ATOM     18  C   UNL d   1      31.972  23.527 -22.698  0.00  0.00     0.099 A 
ATOM     19  C   UNL d   1      32.337  23.388 -21.968  0.00  0.00     0.021 A 
ENDBRANCH  13  14
ENDBRANCH   1  13
TORSDOF 3
ENDMDL
