MODEL 1
REMARK VINA RESULT:      -1.2      0.000      0.000
REMARK  5 active torsions:
REMARK  status: ('A' for Active; 'I' for Inactive)
REMARK       I    between atoms: N_4  and  C_1 
REMARK       I    between atoms: N_8  and  C_1 
REMARK    1  A    between atoms: C_2  and  C_3 
REMARK    2  A    between atoms: C_5  and  C_2 
REMARK    3  A    between atoms: N_6  and  C_2 
REMARK    4  A    between atoms: C_3  and  N_4 
REMARK    5  A    between atoms: C_12  and  N_8 
ROOT
ATOM      1  C   UNL d   1      30.641  16.230 -24.599  0.00  0.00     0.103 C 
ATOM      2  C   UNL d   1      30.587  15.585 -25.097  0.00  0.00     0.022 C 
ENDROOT
BRANCH   1   3
ATOM      3  C   UNL d   1      29.970  16.527 -24.227  0.00  0.00     0.088 C 
BRANCH   3   4
ATOM      4  C   UNL d   1      29.582  17.178 -24.540  0.00  0.00     0.047 A 
ATOM      5  S   UNL d   1      28.807  17.197 -24.819  0.00  0.00    -0.085 SA
ATOM      6  C   UNL d   1      28.646  17.964 -25.082  0.00  0.00     0.035 A 
ATOM      7  C   UNL d   1      29.323  18.426 -24.968  0.00  0.00     0.007 A 
ATOM      8  C   UNL d   1      29.898  17.939 -24.633  0.00  0.00     0.009 A 
ENDBRANCH   3   4
BRANCH   3   9
ATOM      9  N   UNL d   1      29.686  16.169 -23.534  0.00  0.00    -0.299 N 
ATOM     10  C   UNL d   1      28.923  15.867 -23.507  0.00  0.00     0.107 A 
ATOM     11  C   UNL d   1      28.641  15.512 -22.822  0.00  0.00     0.142 A 
ATOM     12  O   UNL d   1      29.123  15.453 -22.146  0.00  0.00    -0.300 OA
ATOM     13  C   UNL d   1      29.894  15.759 -22.178  0.00  0.00     0.142 A 
ATOM     14  C   UNL d   1      30.178  16.116 -22.867  0.00  0.00     0.107 A 
ENDBRANCH   3   9
ENDBRANCH   1   3
BRANCH   1  15
ATOM     15  N   UNL d   1      31.378  16.589 -24.467  0.00  0.00    -0.190 NA
ATOM     16  C   UNL d   1      32.068  16.196 -24.683  0.00  0.00     0.369 C 
ATOM     17  N   UNL d   1      32.800  16.555 -24.550  0.00  0.00    -0.191 NA
ATOM     18  O   UNL d   1      32.033  15.453 -25.028  0.00  0.00    -0.242 OA
BRANCH  17  19
ATOM     19  C   UNL d   1      32.840  17.303 -24.203  0.00  0.00     0.086 A 
ATOM     20  C   UNL d   1      32.981  17.371 -23.395  0.00  0.00     0.019 A 
ATOM     21  C   UNL d   1      33.020  18.109 -23.050  0.00  0.00     0.002 A 
ATOM     22  C   UNL d   1      33.163  18.184 -22.236  0.00  0.00     0.000 C 
ATOM     23  C   UNL d   1      32.917  18.795 -23.511  0.00  0.00     0.000 A 
ATOM     24  C   UNL d   1      32.776  18.724 -24.320  0.00  0.00     0.002 A 
ATOM     25  C   UNL d   1      32.737  17.972 -24.668  0.00  0.00     0.019 A 
ENDBRANCH  17  19
ENDBRANCH   1  15
TORSDOF 5
ENDMDL
MODEL 2
REMARK VINA RESULT:      -1.0      1.153      2.017
REMARK  5 active torsions:
REMARK  status: ('A' for Active; 'I' for Inactive)
REMARK       I    between atoms: N_4  and  C_1 
REMARK       I    between atoms: N_8  and  C_1 
REMARK    1  A    between atoms: C_2  and  C_3 
REMARK    2  A    between atoms: C_5  and  C_2 
REMARK    3  A    between atoms: N_6  and  C_2 
REMARK    4  A    between atoms: C_3  and  N_4 
REMARK    5  A    between atoms: C_12  and  N_8 
ROOT
ATOM      1  C   UNL d   1      31.124  16.221 -24.583  0.00  0.00     0.103 C 
ATOM      2  C   UNL d   1      31.153  15.587 -25.097  0.00  0.00     0.022 C 
ENDROOT
BRANCH   1   3
ATOM      3  C   UNL d   1      30.433  16.391 -24.170  0.00  0.00     0.088 C 
BRANCH   3   4
ATOM      4  C   UNL d   1      30.282  16.024 -23.452  0.00  0.00     0.047 A 
ATOM      5  S   UNL d   1      30.841  15.804 -22.888  0.00  0.00    -0.085 SA
ATOM      6  C   UNL d   1      30.445  15.453 -22.254  0.00  0.00     0.035 A 
ATOM      7  C   UNL d   1      29.635  15.453 -22.422  0.00  0.00     0.007 A 
ATOM      8  C   UNL d   1      29.537  15.805 -23.161  0.00  0.00     0.009 A 
ENDBRANCH   3   4
BRANCH   3   9
ATOM      9  N   UNL d   1      29.888  16.935 -24.479  0.00  0.00    -0.299 N 
ATOM     10  C   UNL d   1      29.162  16.678 -24.764  0.00  0.00     0.107 A 
ATOM     11  C   UNL d   1      28.621  17.216 -25.070  0.00  0.00     0.142 A 
ATOM     12  O   UNL d   1      28.801  18.028 -25.096  0.00  0.00    -0.300 OA
ATOM     13  C   UNL d   1      29.537  18.284 -24.807  0.00  0.00     0.142 A 
ATOM     14  C   UNL d   1      30.080  17.743 -24.499  0.00  0.00     0.107 A 
ENDBRANCH   3   9
ENDBRANCH   1   3
BRANCH   1  15
ATOM     15  N   UNL d   1      31.796  16.697 -24.474  0.00  0.00    -0.190 NA
ATOM     16  C   UNL d   1      32.538  16.406 -24.677  0.00  0.00     0.369 C 
ATOM     17  N   UNL d   1      33.206  16.881 -24.569  0.00  0.00    -0.191 NA
ATOM     18  O   UNL d   1      32.620  15.650 -24.986  0.00  0.00    -0.242 OA
BRANCH  17  19
ATOM     19  C   UNL d   1      33.128  17.642 -24.259  0.00  0.00     0.086 A 
ATOM     20  C   UNL d   1      33.198  17.761 -23.447  0.00  0.00     0.019 A 
ATOM     21  C   UNL d   1      33.122  18.513 -23.139  0.00  0.00     0.002 A 
ATOM     22  C   UNL d   1      33.192  18.639 -22.321  0.00  0.00     0.000 C 
ATOM     23  C   UNL d   1      32.972  19.160 -23.640  0.00  0.00     0.000 A 
ATOM     24  C   UNL d   1      32.902  19.038 -24.452  0.00  0.00     0.002 A 
ATOM     25  C   UNL d   1      32.981  18.273 -24.763  0.00  0.00     0.019 A 
ENDBRANCH  17  19
ENDBRANCH   1  15
TORSDOF 5
ENDMDL
MODEL 3
REMARK VINA RESULT:       0.9      1.533      3.834
REMARK  5 active torsions:
REMARK  status: ('A' for Active; 'I' for Inactive)
REMARK       I    between atoms: N_4  and  C_1 
REMARK       I    between atoms: N_8  and  C_1 
REMARK    1  A    between atoms: C_2  and  C_3 
REMARK    2  A    between atoms: C_5  and  C_2 
REMARK    3  A    between atoms: N_6  and  C_2 
REMARK    4  A    between atoms: C_3  and  N_4 
REMARK    5  A    between atoms: C_12  and  N_8 
ROOT
ATOM      1  C   UNL d   1      31.131  18.023 -24.619  0.00  0.00     0.103 C 
ATOM      2  C   UNL d   1      31.181  18.689 -25.087  0.00  0.00     0.022 C 
ENDROOT
BRANCH   1   3
ATOM      3  C   UNL d   1      31.804  17.709 -24.266  0.00  0.00     0.088 C 
BRANCH   3   4
ATOM      4  C   UNL d   1      32.168  18.109 -23.649  0.00  0.00     0.047 A 
ATOM      5  S   UNL d   1      32.517  18.854 -23.688  0.00  0.00    -0.085 SA
ATOM      6  C   UNL d   1      32.815  19.041 -22.940  0.00  0.00     0.035 A 
ATOM      7  C   UNL d   1      32.651  18.410 -22.431  0.00  0.00     0.007 A 
ATOM      8  C   UNL d   1      32.252  17.837 -22.870  0.00  0.00     0.009 A 
ENDBRANCH   3   4
BRANCH   3   9
ATOM      9  N   UNL d   1      32.116  16.988 -24.532  0.00  0.00    -0.299 N 
ATOM     10  C   UNL d   1      31.663  16.304 -24.501  0.00  0.00     0.107 A 
ATOM     11  C   UNL d   1      31.970  15.589 -24.765  0.00  0.00     0.142 A 
ATOM     12  O   UNL d   1      32.744  15.547 -25.067  0.00  0.00    -0.300 OA
ATOM     13  C   UNL d   1      33.199  16.242 -25.097  0.00  0.00     0.142 A 
ATOM     14  C   UNL d   1      32.890  16.960 -24.832  0.00  0.00     0.107 A 
ENDBRANCH   3   9
ENDBRANCH   1   3
BRANCH   1  15
ATOM     15  N   UNL d   1      30.395  17.658 -24.497  0.00  0.00    -0.190 NA
ATOM     16  C   UNL d   1      29.706  18.039 -24.738  0.00  0.00     0.369 C 
ATOM     17  N   UNL d   1      28.975  17.673 -24.616  0.00  0.00    -0.191 NA
ATOM     18  O   UNL d   1      29.741  18.775 -25.097  0.00  0.00    -0.242 OA
BRANCH  17  19
ATOM     19  C   UNL d   1      28.935  16.932 -24.256  0.00  0.00     0.086 A 
ATOM     20  C   UNL d   1      28.948  16.877 -23.434  0.00  0.00     0.019 A 
ATOM     21  C   UNL d   1      28.909  16.144 -23.076  0.00  0.00     0.002 A 
ATOM     22  C   UNL d   1      28.921  16.082 -22.249  0.00  0.00     0.000 C 
ATOM     23  C   UNL d   1      28.857  15.453 -23.536  0.00  0.00     0.000 A 
ATOM     24  C   UNL d   1      28.845  15.511 -24.359  0.00  0.00     0.002 A 
ATOM     25  C   UNL d   1      28.884  16.257 -24.720  0.00  0.00     0.019 A 
ENDBRANCH  17  19
ENDBRANCH   1  15
TORSDOF 5
ENDMDL
