MODEL 1
REMARK VINA RESULT:      -0.4      0.000      0.000
REMARK  5 active torsions:
REMARK  status: ('A' for Active; 'I' for Inactive)
REMARK    1  A    between atoms: N_7  and  C_1 
REMARK    2  A    between atoms: S_6  and  C_2 
REMARK    3  A    between atoms: C_3  and  S_6 
REMARK    4  A    between atoms: C_13  and  N_5 
REMARK    5  A    between atoms: C_18  and  C_13 
ROOT
ATOM      1  C   UNL d   1     -43.188-122.368 -50.463  0.00  0.00     0.232 A 
ATOM      2  C   UNL d   1     -42.457-122.663 -50.241  0.00  0.00     0.139 A 
ATOM      3  N   UNL d   1     -43.764-122.683 -49.958  0.00  0.00    -0.204 NA
ATOM      4  N   UNL d   1     -42.570-123.164 -49.597  0.00  0.00    -0.282 N 
ATOM      5  C   UNL d   1     -43.375-123.180 -49.418  0.00  0.00     0.150 A 
ATOM      6  C   UNL d   1     -43.733-123.607 -48.816  0.00  0.00     0.041 C 
ENDROOT
BRANCH   2   7
ATOM      7  S   UNL d   1     -41.735-122.490 -50.598  0.00  0.00    -0.029 SA
BRANCH   7   8
ATOM      8  C   UNL d   1     -41.621-122.650 -51.400  0.00  0.00     0.181 A 
ATOM      9  N   UNL d   1     -41.737-123.381 -51.772  0.00  0.00    -0.221 NA
ATOM     10  C   UNL d   1     -41.561-123.294 -52.566  0.00  0.00     0.100 A 
ATOM     11  C   UNL d   1     -41.571-123.817 -53.206  0.00  0.00     0.021 A 
ATOM     12  C   UNL d   1     -41.335-122.510 -52.699  0.00  0.00     0.084 A 
ATOM     13  C   UNL d   1     -41.364-123.569 -53.951  0.00  0.00     0.002 A 
ATOM     14  C   UNL d   1     -41.140-122.784 -54.075  0.00  0.00     0.002 A 
ATOM     15  C   UNL d   1     -41.123-122.249 -53.454  0.00  0.00     0.019 A 
ATOM     16  N   UNL d   1     -41.374-122.113 -51.972  0.00  0.00    -0.282 N 
ATOM     17  C   UNL d   1     -41.194-121.317 -51.848  0.00  0.00     0.101 C 
ENDBRANCH   7   8
ENDBRANCH   2   7
BRANCH   1  18
ATOM     18  N   UNL d   1     -43.866-122.007 -50.777  0.00  0.00    -0.093 N 
ATOM     19  O   UNL d   1     -43.936-121.184 -50.768  0.00  0.00    -0.530 OA
ATOM     20  O   UNL d   1     -44.471-122.464 -51.100  0.00  0.00    -0.530 OA
ENDBRANCH   1  18
BRANCH   4  21
ATOM     21  C   UNL d   1     -41.975-123.580 -49.197  0.00  0.00     0.082 C 
BRANCH  21  22
ATOM     22  C   UNL d   1     -41.825-123.409 -48.405  0.00  0.00     0.018 A 
ATOM     23  C   UNL d   1     -42.221-123.816 -47.801  0.00  0.00     0.002 A 
ATOM     24  C   UNL d   1     -42.070-123.644 -47.016  0.00  0.00     0.000 A 
ATOM     25  C   UNL d   1     -41.516-123.056 -46.827  0.00  0.00     0.000 A 
ATOM     26  C   UNL d   1     -41.123-122.650 -47.420  0.00  0.00     0.000 A 
ATOM     27  C   UNL d   1     -41.276-122.826 -48.212  0.00  0.00     0.002 A 
ENDBRANCH  21  22
ENDBRANCH   4  21
TORSDOF 5
ENDMDL
