MODEL 1
REMARK VINA RESULT:      -1.0      0.000      0.000
REMARK  4 active torsions:
REMARK  status: ('A' for Active; 'I' for Inactive)
REMARK    1  A    between atoms: C_2  and  S_1 
REMARK    2  A    between atoms: N_3  and  S_1 
REMARK    3  A    between atoms: C_4  and  C_6 
REMARK       I    between atoms: N_5  and  C_4 
REMARK    4  A    between atoms: C_11  and  N_8 
ROOT
ATOM      1  C   UNL d   1      57.475   0.135  30.910  0.00  0.00     0.104 A 
ATOM      2  C   UNL d   1      58.616   0.089  30.060  0.00  0.00     0.057 A 
ATOM      3  C   UNL d   1      58.262  -0.063  30.792  0.00  0.00     0.018 A 
ATOM      4  C   UNL d   1      57.034   0.482  30.311  0.00  0.00     0.012 A 
ATOM      5  C   UNL d   1      58.179   0.437  29.454  0.00  0.00     0.005 A 
ATOM      6  C   UNL d   1      57.388   0.634  29.579  0.00  0.00     0.001 A 
ATOM      7  C   UNL d   1      56.246   0.681  30.428  0.00  0.00     0.001 C 
ENDROOT
BRANCH   2   8
ATOM      8  C   UNL d   1      59.408  -0.105  29.926  0.00  0.00     0.265 C 
ATOM      9  N   UNL d   1      59.602  -0.879  29.716  0.00  0.00    -0.269 N 
ATOM     10  C   UNL d   1      60.385  -1.076  29.582  0.00  0.00     0.102 A 
ATOM     11  C   UNL d   1      59.004  -1.444  29.643  0.00  0.00     0.102 A 
ATOM     12  C   UNL d   1      60.580  -1.850  29.371  0.00  0.00     0.100 A 
ATOM     13  N   UNL d   1      59.987  -2.420  29.297  0.00  0.00    -0.301 N 
ATOM     14  C   UNL d   1      59.201  -2.215  29.433  0.00  0.00     0.100 A 
ATOM     15  O   UNL d   1      59.989   0.465  30.002  0.00  0.00    -0.267 OA
BRANCH  13  16
ATOM     16  C   UNL d   1      60.181  -3.194  29.086  0.00  0.00     0.064 A 
ATOM     17  C   UNL d   1      59.616  -3.794  29.156  0.00  0.00     0.020 A 
ATOM     18  C   UNL d   1      59.811  -4.567  28.945  0.00  0.00     0.031 A 
ATOM     19  C   UNL d   1      60.565  -4.747  28.666  0.00  0.00     0.140 A 
ATOM     20  C   UNL d   1      61.133  -4.139  28.597  0.00  0.00     0.031 A 
ATOM     21  F   UNL d   1      60.760  -5.521  28.455  0.00  0.00    -0.204 F 
ATOM     22  C   UNL d   1      60.939  -3.365  28.807  0.00  0.00     0.020 A 
ENDBRANCH  13  16
ENDBRANCH   2   8
BRANCH   1  23
ATOM     23  S   UNL d   1      57.121  -0.017  31.641  0.00  0.00     0.271 S 
ATOM     24  O   UNL d   1      57.466   0.667  31.951  0.00  0.00    -0.200 OA
ATOM     25  O   UNL d   1      56.722  -0.805  31.285  0.00  0.00    -0.200 OA
BRANCH  23  26
ATOM     26  N   UNL d   1      56.742  -0.220  32.345  0.00  0.00    -0.229 N 
ATOM     27  C   UNL d   1      56.231  -0.864  32.354  0.00  0.00     0.092 A 
ATOM     28  C   UNL d   1      55.848  -1.072  33.060  0.00  0.00     0.020 A 
ATOM     29  C   UNL d   1      55.987  -0.630  33.739  0.00  0.00     0.003 A 
ATOM     30  C   UNL d   1      56.495   0.008  33.724  0.00  0.00     0.020 A 
ATOM     31  C   UNL d   1      56.873   0.216  33.031  0.00  0.00     0.092 A 
ENDBRANCH  23  26
ENDBRANCH   1  23
TORSDOF 4
ENDMDL
