MODEL 1
REMARK VINA RESULT:      40.4      0.000      0.000
REMARK  7 active torsions:
REMARK  status: ('A' for Active; 'I' for Inactive)
REMARK    1  A    between atoms: N_4  and  C_1 
REMARK       I    between atoms: C_3  and  N_4 
REMARK    2  A    between atoms: C_8  and  C_3 
REMARK    3  A    between atoms: S_10  and  C_5 
REMARK    4  A    between atoms: C_9  and  C_15 
REMARK       I    between atoms: N_12  and  C_9 
REMARK    5  A    between atoms: C_15  and  S_10 
REMARK    6  A    between atoms: C_17  and  N_12 
REMARK    7  A    between atoms: O_18  and  C_13 
ROOT
ATOM      1  C   UNL d   1      14.861  16.456  -2.257  0.00  0.00     0.219 A 
ATOM      2  S   UNL d   1      15.106  15.793  -1.832  0.00  0.00    -0.019 SA
ATOM      3  C   UNL d   1      15.359  16.034  -1.089  0.00  0.00     0.165 A 
ATOM      4  N   UNL d   1      14.965  17.117  -1.767  0.00  0.00    -0.120 NA
ATOM      5  N   UNL d   1      15.273  16.856  -1.046  0.00  0.00    -0.133 NA
ENDROOT
BRANCH   1   6
ATOM      6  N   UNL d   1      14.565  16.458  -3.032  0.00  0.00    -0.181 NA
ATOM      7  C   UNL d   1      14.442  15.736  -3.420  0.00  0.00     0.283 C 
ATOM      8  O   UNL d   1      14.612  15.027  -3.041  0.00  0.00    -0.265 OA
BRANCH   7   9
ATOM      9  C   UNL d   1      14.147  15.734  -4.194  0.00  0.00     0.080 A 
ATOM     10  C   UNL d   1      13.639  15.146  -4.430  0.00  0.00     0.099 A 
ATOM     11  C   UNL d   1      13.341  15.140  -5.204  0.00  0.00     0.024 A 
ATOM     12  C   UNL d   1      13.562  15.729  -5.727  0.00  0.00     0.002 A 
ATOM     13  C   UNL d   1      14.082  16.328  -5.482  0.00  0.00     0.000 A 
ATOM     14  C   UNL d   1      14.371  16.325  -4.713  0.00  0.00     0.007 A 
BRANCH  10  15
ATOM     15  O   UNL d   1      13.411  14.546  -3.904  0.00  0.00    -0.328 OA
ATOM     16  C   UNL d   1      13.101  13.839  -4.181  0.00  0.00     0.181 C 
ENDBRANCH  10  15
ENDBRANCH   7   9
ENDBRANCH   1   6
BRANCH   3  17
ATOM     17  S   UNL d   1      15.648  15.540  -0.494  0.00  0.00    -0.054 SA
BRANCH  17  18
ATOM     18  C   UNL d   1      15.112  15.115  -0.020  0.00  0.00     0.100 C 
BRANCH  18  19
ATOM     19  C   UNL d   1      15.114  14.293  -0.036  0.00  0.00     0.286 C 
ATOM     20  N   UNL d   1      14.399  13.875  -0.015  0.00  0.00    -0.208 NA
ATOM     21  O   UNL d   1      15.828  13.870  -0.073  0.00  0.00    -0.265 OA
BRANCH  20  22
ATOM     22  C   UNL d   1      14.389  13.059  -0.031  0.00  0.00     0.085 A 
ATOM     23  C   UNL d   1      13.714  12.574  -0.053  0.00  0.00     0.019 A 
ATOM     24  C   UNL d   1      13.962  11.791  -0.063  0.00  0.00     0.002 A 
ATOM     25  C   UNL d   1      14.791  11.779  -0.047  0.00  0.00     0.002 A 
ATOM     26  C   UNL d   1      15.050  12.567  -0.027  0.00  0.00     0.019 A 
ENDBRANCH  20  22
ENDBRANCH  18  19
ENDBRANCH  17  18
ENDBRANCH   3  17
TORSDOF 7
ENDMDL
MODEL 2
REMARK VINA RESULT:      42.9      2.004      5.477
REMARK  7 active torsions:
REMARK  status: ('A' for Active; 'I' for Inactive)
REMARK    1  A    between atoms: N_4  and  C_1 
REMARK       I    between atoms: C_3  and  N_4 
REMARK    2  A    between atoms: C_8  and  C_3 
REMARK    3  A    between atoms: S_10  and  C_5 
REMARK    4  A    between atoms: C_9  and  C_15 
REMARK       I    between atoms: N_12  and  C_9 
REMARK    5  A    between atoms: C_15  and  S_10 
REMARK    6  A    between atoms: C_17  and  N_12 
REMARK    7  A    between atoms: O_18  and  C_13 
ROOT
ATOM      1  C   UNL d   1      14.412  15.027  -2.344  0.00  0.00     0.219 A 
ATOM      2  S   UNL d   1      14.285  15.178  -3.144  0.00  0.00    -0.019 SA
ATOM      3  C   UNL d   1      14.573  15.927  -3.321  0.00  0.00     0.165 A 
ATOM      4  N   UNL d   1      14.784  15.695  -2.022  0.00  0.00    -0.120 NA
ATOM      5  N   UNL d   1      14.883  16.250  -2.625  0.00  0.00    -0.133 NA
ENDROOT
BRANCH   1   6
ATOM      6  N   UNL d   1      14.204  14.334  -1.939  0.00  0.00    -0.181 NA
ATOM      7  C   UNL d   1      14.802  13.849  -1.632  0.00  0.00     0.283 C 
ATOM      8  O   UNL d   1      15.592  14.053  -1.729  0.00  0.00    -0.265 OA
BRANCH   7   9
ATOM      9  C   UNL d   1      14.598  13.156  -1.227  0.00  0.00     0.080 A 
ATOM     10  C   UNL d   1      14.267  12.535  -1.632  0.00  0.00     0.099 A 
ATOM     11  C   UNL d   1      14.061  11.839  -1.230  0.00  0.00     0.024 A 
ATOM     12  C   UNL d   1      14.194  11.782  -0.425  0.00  0.00     0.002 A 
ATOM     13  C   UNL d   1      14.532  12.420  -0.014  0.00  0.00     0.000 A 
ATOM     14  C   UNL d   1      14.733  13.105  -0.422  0.00  0.00     0.007 A 
BRANCH  10  15
ATOM     15  O   UNL d   1      14.130  12.586  -2.449  0.00  0.00    -0.328 OA
ATOM     16  C   UNL d   1      14.144  11.915  -2.921  0.00  0.00     0.181 C 
ENDBRANCH  10  15
ENDBRANCH   7   9
ENDBRANCH   1   6
BRANCH   3  17
ATOM     17  S   UNL d   1      14.553  16.289  -4.063  0.00  0.00    -0.054 SA
BRANCH  17  18
ATOM     18  C   UNL d   1      14.962  17.004  -4.179  0.00  0.00     0.100 C 
BRANCH  18  19
ATOM     19  C   UNL d   1      14.775  17.483  -4.821  0.00  0.00     0.286 C 
ATOM     20  N   UNL d   1      14.527  18.264  -4.699  0.00  0.00    -0.208 NA
ATOM     21  O   UNL d   1      14.831  17.193  -5.598  0.00  0.00    -0.265 OA
BRANCH  20  22
ATOM     22  C   UNL d   1      14.339  18.748  -5.328  0.00  0.00     0.085 A 
ATOM     23  C   UNL d   1      13.618  18.762  -5.743  0.00  0.00     0.019 A 
ATOM     24  C   UNL d   1      13.673  19.332  -6.332  0.00  0.00     0.002 A 
ATOM     25  C   UNL d   1      14.425  19.679  -6.292  0.00  0.00     0.002 A 
ATOM     26  C   UNL d   1      14.833  19.313  -5.669  0.00  0.00     0.019 A 
ENDBRANCH  20  22
ENDBRANCH  18  19
ENDBRANCH  17  18
ENDBRANCH   3  17
TORSDOF 7
ENDMDL
