MODEL 1
REMARK VINA RESULT:      76.2      0.000      0.000
REMARK  4 active torsions:
REMARK  status: ('A' for Active; 'I' for Inactive)
REMARK    1  A    between atoms: C_8  and  C_1 
REMARK    2  A    between atoms: C_6  and  C_16 
REMARK    3  A    between atoms: O_13  and  C_8 
REMARK    4  A    between atoms: C_16  and  O_13 
ROOT
ATOM      1  C   UNL d   1      60.870  48.081  50.642  0.00  0.00     0.305 C 
ATOM      2  O   UNL d   1      60.568  48.009  51.421  0.00  0.00    -0.259 OA
ENDROOT
BRANCH   1   3
ATOM      3  C   UNL d   1      61.295  47.422  50.259  0.00  0.00     0.127 A 
ATOM      4  C   UNL d   1      61.976  47.582  49.795  0.00  0.00     0.305 A 
ATOM      5  O   UNL d   1      62.342  46.947  49.457  0.00  0.00    -0.273 OA
ATOM      6  O   UNL d   1      62.257  48.348  49.688  0.00  0.00    -0.259 OA
ATOM      7  C   UNL d   1      62.073  46.189  49.556  0.00  0.00     0.103 A 
ATOM      8  C   UNL d   1      61.397  46.049  50.020  0.00  0.00     0.023 A 
ATOM      9  C   UNL d   1      62.440  45.550  49.217  0.00  0.00     0.025 A 
ATOM     10  C   UNL d   1      61.003  46.687  50.378  0.00  0.00     0.013 A 
ATOM     11  C   UNL d   1      61.100  45.290  50.138  0.00  0.00     0.002 A 
ATOM     12  C   UNL d   1      61.500  44.665  49.778  0.00  0.00     0.000 A 
ATOM     13  C   UNL d   1      62.170  44.787  49.316  0.00  0.00     0.002 A 
ENDBRANCH   1   3
BRANCH   1  14
ATOM     14  O   UNL d   1      60.765  48.775  50.235  0.00  0.00    -0.269 OA
BRANCH  14  15
ATOM     15  C   UNL d   1      60.384  49.394  50.569  0.00  0.00     0.152 C 
BRANCH  15  16
ATOM     16  C   UNL d   1      59.560  49.467  50.476  0.00  0.00     0.136 A 
ATOM     17  N   UNL d   1      58.962  49.524  51.034  0.00  0.00    -0.236 NA
ATOM     18  C   UNL d   1      58.254  49.584  50.623  0.00  0.00     0.088 A 
ATOM     19  C   UNL d   1      57.471  49.655  50.876  0.00  0.00     0.020 A 
ATOM     20  C   UNL d   1      58.435  49.562  49.817  0.00  0.00     0.049 A 
ATOM     21  C   UNL d   1      56.841  49.707  50.330  0.00  0.00     0.002 A 
ATOM     22  C   UNL d   1      57.040  49.684  49.539  0.00  0.00     0.001 A 
ATOM     23  C   UNL d   1      57.833  49.612  49.269  0.00  0.00     0.008 A 
ATOM     24  S   UNL d   1      59.232  49.491  49.737  0.00  0.00    -0.064 SA
ENDBRANCH  15  16
ENDBRANCH  14  15
ENDBRANCH   1  14
TORSDOF 4
ENDMDL
