MODEL 1
REMARK VINA RESULT:      -2.2      0.000      0.000
REMARK  7 active torsions:
REMARK  status: ('A' for Active; 'I' for Inactive)
REMARK       I    between atoms: C_2  and  N_1 
REMARK    1  A    between atoms: C_7  and  C_2 
REMARK    2  A    between atoms: C_10  and  C_3 
REMARK       I    between atoms: C_4  and  N_6 
REMARK    3  A    between atoms: C_5  and  C_4 
REMARK       I    between atoms: N_13  and  C_5 
REMARK    4  A    between atoms: N_6  and  C_10 
REMARK    5  A    between atoms: C_23  and  N_13 
REMARK    6  A    between atoms: O_22  and  C_24 
REMARK    7  A    between atoms: C_24  and  C_23 
ROOT
ATOM      1  N   UNL d   1      59.826  -1.382  29.180  0.00  0.00    -0.250 N 
ATOM      2  C   UNL d   1      59.446  -2.100  29.343  0.00  0.00     0.266 C 
ATOM      3  C   UNL d   1      59.548  -0.629  29.364  0.00  0.00     0.190 A 
ATOM      4  O   UNL d   1      58.719  -2.107  29.725  0.00  0.00    -0.267 OA
ATOM      5  O   UNL d   1      60.107  -0.072  29.098  0.00  0.00    -0.285 OA
ATOM      6  C   UNL d   1      60.552  -1.289  28.802  0.00  0.00     0.112 A 
ATOM      7  C   UNL d   1      60.730  -0.481  28.750  0.00  0.00     0.144 A 
ENDROOT
BRANCH   3   8
ATOM      8  C   UNL d   1      58.840  -0.460  29.745  0.00  0.00     0.146 C 
BRANCH   8   9
ATOM      9  N   UNL d   1      58.232  -0.080  29.338  0.00  0.00    -0.199 NA
ATOM     10  C   UNL d   1      57.639   0.303  29.754  0.00  0.00     0.337 C 
ATOM     11  O   UNL d   1      57.032   0.682  29.348  0.00  0.00    -0.260 OA
BRANCH  10  12
ATOM     12  C   UNL d   1      57.643   0.311  30.582  0.00  0.00     0.337 C 
ATOM     13  O   UNL d   1      58.284   0.639  30.981  0.00  0.00    -0.260 OA
ATOM     14  N   UNL d   1      57.013  -0.004  31.010  0.00  0.00    -0.200 NA
BRANCH  14  15
ATOM     15  C   UNL d   1      57.012   0.002  31.825  0.00  0.00     0.129 C 
BRANCH  15  16
ATOM     16  C   UNL d   1      56.373  -0.298  32.257  0.00  0.00     0.137 C 
BRANCH  16  17
ATOM     17  O   UNL d   1      55.850   0.208  32.642  0.00  0.00    -0.325 OA
ATOM     18  C   UNL d   1      55.631   0.075  33.434  0.00  0.00     0.182 C 
ENDBRANCH  16  17
ENDBRANCH  15  16
ENDBRANCH  14  15
ENDBRANCH  10  12
ENDBRANCH   8   9
ENDBRANCH   3   8
BRANCH   2  19
ATOM     19  C   UNL d   1      59.804  -2.824  29.118  0.00  0.00     0.057 A 
ATOM     20  C   UNL d   1      59.382  -3.372  28.681  0.00  0.00     0.006 A 
ATOM     21  C   UNL d   1      59.737  -4.084  28.460  0.00  0.00     0.012 A 
ATOM     22  C   UNL d   1      60.513  -4.242  28.680  0.00  0.00     0.058 A 
ATOM     23  C   UNL d   1      60.938  -3.686  29.122  0.00  0.00     0.012 A 
ATOM     24 CL   UNL d   1      60.869  -4.963  28.455  0.00  0.00    -0.082 Cl
ATOM     25  C   UNL d   1      60.583  -2.985  29.338  0.00  0.00     0.006 A 
ENDBRANCH   2  19
TORSDOF 7
ENDMDL
MODEL 2
REMARK VINA RESULT:      -2.1      2.400      5.543
REMARK  7 active torsions:
REMARK  status: ('A' for Active; 'I' for Inactive)
REMARK       I    between atoms: C_2  and  N_1 
REMARK    1  A    between atoms: C_7  and  C_2 
REMARK    2  A    between atoms: C_10  and  C_3 
REMARK       I    between atoms: C_4  and  N_6 
REMARK    3  A    between atoms: C_5  and  C_4 
REMARK       I    between atoms: N_13  and  C_5 
REMARK    4  A    between atoms: N_6  and  C_10 
REMARK    5  A    between atoms: C_23  and  N_13 
REMARK    6  A    between atoms: O_22  and  C_24 
REMARK    7  A    between atoms: C_24  and  C_23 
ROOT
ATOM      1  N   UNL d   1      56.790  -0.581  32.147  0.00  0.00    -0.250 N 
ATOM      2  C   UNL d   1      56.924   0.121  32.565  0.00  0.00     0.266 C 
ATOM      3  C   UNL d   1      57.143  -0.802  31.436  0.00  0.00     0.190 A 
ATOM      4  O   UNL d   1      57.453   0.680  32.278  0.00  0.00    -0.267 OA
ATOM      5  O   UNL d   1      56.847  -1.549  31.217  0.00  0.00    -0.285 OA
ATOM      6  C   UNL d   1      56.279  -1.190  32.365  0.00  0.00     0.112 A 
ATOM      7  C   UNL d   1      56.311  -1.790  31.793  0.00  0.00     0.144 A 
ENDROOT
BRANCH   3   8
ATOM      8  C   UNL d   1      57.693  -0.358  31.016  0.00  0.00     0.146 C 
BRANCH   8   9
ATOM      9  N   UNL d   1      57.470   0.028  30.323  0.00  0.00    -0.199 NA
ATOM     10  C   UNL d   1      58.000   0.085  29.700  0.00  0.00     0.337 C 
ATOM     11  O   UNL d   1      57.777   0.470  29.007  0.00  0.00    -0.260 OA
BRANCH  10  12
ATOM     12  C   UNL d   1      58.758  -0.242  29.759  0.00  0.00     0.337 C 
ATOM     13  O   UNL d   1      59.319   0.120  30.241  0.00  0.00    -0.260 OA
ATOM     14  N   UNL d   1      58.957  -0.924  29.342  0.00  0.00    -0.200 NA
BRANCH  14  15
ATOM     15  C   UNL d   1      59.701  -1.250  29.396  0.00  0.00     0.129 C 
BRANCH  15  16
ATOM     16  C   UNL d   1      59.955  -1.836  28.869  0.00  0.00     0.137 C 
BRANCH  16  17
ATOM     17  O   UNL d   1      60.427  -2.459  29.128  0.00  0.00    -0.325 OA
ATOM     18  C   UNL d   1      60.947  -2.846  28.606  0.00  0.00     0.182 C 
ENDBRANCH  16  17
ENDBRANCH  15  16
ENDBRANCH  14  15
ENDBRANCH  10  12
ENDBRANCH   8   9
ENDBRANCH   3   8
BRANCH   2  19
ATOM     19  C   UNL d   1      56.518   0.263  33.285  0.00  0.00     0.057 A 
ATOM     20  C   UNL d   1      55.728   0.476  33.275  0.00  0.00     0.006 A 
ATOM     21  C   UNL d   1      55.330   0.616  33.985  0.00  0.00     0.012 A 
ATOM     22  C   UNL d   1      55.728   0.540  34.700  0.00  0.00     0.058 A 
ATOM     23  C   UNL d   1      56.527   0.325  34.708  0.00  0.00     0.012 A 
ATOM     24 CL   UNL d   1      55.323   0.682  35.416  0.00  0.00    -0.082 Cl
ATOM     25  C   UNL d   1      56.915   0.189  34.004  0.00  0.00     0.006 A 
ENDBRANCH   2  19
TORSDOF 7
ENDMDL
