MODEL 1
REMARK VINA RESULT:     -12.8      0.000      0.000
REMARK  1 active torsions:
REMARK  status: ('A' for Active; 'I' for Inactive)
REMARK    1  A    between atoms: N_14  and  C_8 
ROOT
ATOM      1  C   UNL d   1      53.071  33.966  54.014  0.00  0.00     0.056 A 
ATOM      2  C   UNL d   1      53.029  31.595  53.292  0.00  0.00     0.074 A 
ATOM      3  C   UNL d   1      53.578  34.205  54.620  0.00  0.00    -0.012 A 
ATOM      4  C   UNL d   1      53.057  33.179  53.775  0.00  0.00    -0.016 A 
ATOM      5  C   UNL d   1      53.539  31.835  53.901  0.00  0.00    -0.014 A 
ATOM      6  C   UNL d   1      53.553  32.622  54.141  0.00  0.00    -0.007 A 
ATOM      7  C   UNL d   1      54.069  33.655  54.983  0.00  0.00    -0.004 A 
ATOM      8  C   UNL d   1      53.140  30.783  53.178  0.00  0.00     0.089 A 
ATOM      9  C   UNL d   1      52.533  32.152  52.926  0.00  0.00    -0.017 A 
ATOM     10  C   UNL d   1      54.060  32.860  54.746  0.00  0.00    -0.001 A 
ATOM     11  C   UNL d   1      52.547  32.938  53.166  0.00  0.00    -0.008 A 
ATOM     12  C   UNL d   1      52.579  34.515  53.649  0.00  0.00    -0.015 A 
ATOM     13  C   UNL d   1      53.962  31.171  54.160  0.00  0.00    -0.002 A 
ATOM     14  C   UNL d   1      53.590  34.991  54.857  0.00  0.00     0.038 A 
ATOM     15  C   UNL d   1      53.708  30.526  53.707  0.00  0.00     0.017 A 
ATOM     16  C   UNL d   1      52.591  35.306  53.888  0.00  0.00     0.038 A 
ATOM     17  C   UNL d   1      53.098  35.545  54.493  0.00  0.00     0.195 A 
ATOM     18  C   UNL d   1      52.561  33.726  53.406  0.00  0.00     0.013 C 
ATOM     19  C   UNL d   1      52.522  31.356  52.688  0.00  0.00     0.015 C 
ATOM     20  O   UNL d   1      53.110  36.331  54.731  0.00  0.00    -0.287 OA
ENDROOT
BRANCH   8  21
ATOM     21  N   UNL d   1      52.740  30.321  52.623  0.00  0.00    -0.131 NA
ATOM     22  N   UNL d   1      52.776  29.493  52.614  0.00  0.00    -0.023 N 
ENDBRANCH   8  21
TORSDOF 1
ENDMDL
MODEL 2
REMARK VINA RESULT:     -12.5      2.406      4.054
REMARK  1 active torsions:
REMARK  status: ('A' for Active; 'I' for Inactive)
REMARK    1  A    between atoms: N_14  and  C_8 
ROOT
ATOM      1  C   UNL d   1      53.183  31.658  53.646  0.00  0.00     0.056 A 
ATOM      2  C   UNL d   1      53.224  34.087  54.138  0.00  0.00     0.074 A 
ATOM      3  C   UNL d   1      52.667  31.360  53.076  0.00  0.00    -0.012 A 
ATOM      4  C   UNL d   1      53.196  32.465  53.809  0.00  0.00    -0.016 A 
ATOM      5  C   UNL d   1      52.705  33.788  53.564  0.00  0.00    -0.014 A 
ATOM      6  C   UNL d   1      52.691  32.982  53.401  0.00  0.00    -0.007 A 
ATOM      7  C   UNL d   1      52.167  31.871  52.671  0.00  0.00    -0.004 A 
ATOM      8  C   UNL d   1      53.110  34.905  54.177  0.00  0.00     0.089 A 
ATOM      9  C   UNL d   1      53.729  33.570  54.547  0.00  0.00    -0.017 A 
ATOM     10  C   UNL d   1      52.175  32.684  52.830  0.00  0.00    -0.001 A 
ATOM     11  C   UNL d   1      53.715  32.764  54.384  0.00  0.00    -0.008 A 
ATOM     12  C   UNL d   1      53.685  31.148  54.053  0.00  0.00    -0.015 A 
ATOM     13  C   UNL d   1      52.273  34.423  53.251  0.00  0.00    -0.002 A 
ATOM     14  C   UNL d   1      52.655  30.555  52.914  0.00  0.00     0.038 A 
ATOM     15  C   UNL d   1      52.531  35.109  53.636  0.00  0.00     0.017 A 
ATOM     16  C   UNL d   1      53.673  30.338  53.891  0.00  0.00     0.038 A 
ATOM     17  C   UNL d   1      53.157  30.040  53.320  0.00  0.00     0.195 A 
ATOM     18  C   UNL d   1      53.702  31.956  54.220  0.00  0.00     0.013 C 
ATOM     19  C   UNL d   1      53.739  34.384  54.709  0.00  0.00     0.015 C 
ATOM     20  O   UNL d   1      53.146  29.235  53.159  0.00  0.00    -0.287 OA
ENDROOT
BRANCH   8  21
ATOM     21  N   UNL d   1      53.516  35.420  54.678  0.00  0.00    -0.131 NA
ATOM     22  N   UNL d   1      53.342  36.229  54.735  0.00  0.00    -0.023 N 
ENDBRANCH   8  21
TORSDOF 1
ENDMDL
MODEL 3
REMARK VINA RESULT:     -10.7      2.187      3.137
REMARK  1 active torsions:
REMARK  status: ('A' for Active; 'I' for Inactive)
REMARK    1  A    between atoms: N_14  and  C_8 
ROOT
ATOM      1  C   UNL d   1      51.614  34.043  53.200  0.00  0.00     0.056 A 
ATOM      2  C   UNL d   1      53.757  33.813  54.426  0.00  0.00     0.074 A 
ATOM      3  C   UNL d   1      51.318  33.409  52.763  0.00  0.00    -0.012 A 
ATOM      4  C   UNL d   1      52.326  33.966  53.607  0.00  0.00    -0.016 A 
ATOM      5  C   UNL d   1      53.459  33.175  53.986  0.00  0.00    -0.014 A 
ATOM      6  C   UNL d   1      52.748  33.251  53.580  0.00  0.00    -0.007 A 
ATOM      7  C   UNL d   1      51.735  32.701  52.735  0.00  0.00    -0.004 A 
ATOM      8  C   UNL d   1      54.470  33.570  54.767  0.00  0.00     0.089 A 
ATOM      9  C   UNL d   1      53.335  34.527  54.454  0.00  0.00    -0.017 A 
ATOM     10  C   UNL d   1      52.452  32.617  53.143  0.00  0.00    -0.001 A 
ATOM     11  C   UNL d   1      52.624  34.604  54.047  0.00  0.00    -0.008 A 
ATOM     12  C   UNL d   1      51.199  34.752  53.230  0.00  0.00    -0.015 A 
ATOM     13  C   UNL d   1      53.990  32.542  54.058  0.00  0.00    -0.002 A 
ATOM     14  C   UNL d   1      50.608  33.488  52.358  0.00  0.00     0.038 A 
ATOM     15  C   UNL d   1      54.611  32.796  54.543  0.00  0.00     0.017 A 
ATOM     16  C   UNL d   1      50.484  34.832  52.822  0.00  0.00     0.038 A 
ATOM     17  C   UNL d   1      50.188  34.198  52.385  0.00  0.00     0.195 A 
ATOM     18  C   UNL d   1      51.912  34.680  53.640  0.00  0.00     0.013 C 
ATOM     19  C   UNL d   1      54.053  34.446  54.863  0.00  0.00     0.015 C 
ATOM     20  O   UNL d   1      49.478  34.276  51.980  0.00  0.00    -0.287 OA
ENDROOT
BRANCH   8  21
ATOM     21  N   UNL d   1      54.950  34.036  55.250  0.00  0.00    -0.131 NA
ATOM     22  N   UNL d   1      55.691  33.788  55.528  0.00  0.00    -0.023 N 
ENDBRANCH   8  21
TORSDOF 1
ENDMDL
MODEL 4
REMARK VINA RESULT:     -10.6      1.994      2.919
REMARK  1 active torsions:
REMARK  status: ('A' for Active; 'I' for Inactive)
REMARK    1  A    between atoms: N_14  and  C_8 
ROOT
ATOM      1  C   UNL d   1      53.570  33.880  54.367  0.00  0.00     0.056 A 
ATOM      2  C   UNL d   1      51.436  34.037  53.114  0.00  0.00     0.074 A 
ATOM      3  C   UNL d   1      53.950  33.152  54.446  0.00  0.00    -0.012 A 
ATOM      4  C   UNL d   1      52.861  33.931  53.951  0.00  0.00    -0.016 A 
ATOM      5  C   UNL d   1      51.818  33.305  53.194  0.00  0.00    -0.014 A 
ATOM      6  C   UNL d   1      52.526  33.252  53.610  0.00  0.00    -0.007 A 
ATOM      7  C   UNL d   1      53.620  32.479  54.109  0.00  0.00    -0.004 A 
ATOM      8  C   UNL d   1      50.747  33.913  52.674  0.00  0.00     0.089 A 
ATOM      9  C   UNL d   1      51.771  34.716  53.456  0.00  0.00    -0.017 A 
ATOM     10  C   UNL d   1      52.906  32.525  53.689  0.00  0.00    -0.001 A 
ATOM     11  C   UNL d   1      52.479  34.664  53.872  0.00  0.00    -0.008 A 
ATOM     12  C   UNL d   1      53.898  34.555  54.704  0.00  0.00    -0.015 A 
ATOM     13  C   UNL d   1      51.364  32.732  52.802  0.00  0.00    -0.002 A 
ATOM     14  C   UNL d   1      54.657  33.102  54.862  0.00  0.00     0.038 A 
ATOM     15  C   UNL d   1      50.704  33.118  52.485  0.00  0.00     0.017 A 
ATOM     16  C   UNL d   1      54.610  34.505  55.122  0.00  0.00     0.038 A 
ATOM     17  C   UNL d   1      54.990  33.777  55.201  0.00  0.00     0.195 A 
ATOM     18  C   UNL d   1      53.188  34.611  54.288  0.00  0.00     0.013 C 
ATOM     19  C   UNL d   1      51.056  34.764  53.036  0.00  0.00     0.015 C 
ATOM     20  O   UNL d   1      55.697  33.728  55.616  0.00  0.00    -0.287 OA
ENDROOT
BRANCH   8  21
ATOM     21  N   UNL d   1      50.203  34.498  52.467  0.00  0.00    -0.131 NA
ATOM     22  N   UNL d   1      49.547  34.354  51.980  0.00  0.00    -0.023 N 
ENDBRANCH   8  21
TORSDOF 1
ENDMDL
MODEL 5
REMARK VINA RESULT:     -10.3      2.328      3.718
REMARK  1 active torsions:
REMARK  status: ('A' for Active; 'I' for Inactive)
REMARK    1  A    between atoms: N_14  and  C_8 
ROOT
ATOM      1  C   UNL d   1      52.905  31.641  53.284  0.00  0.00     0.056 A 
ATOM      2  C   UNL d   1      51.391  33.593  53.071  0.00  0.00     0.074 A 
ATOM      3  C   UNL d   1      53.690  31.750  53.513  0.00  0.00    -0.012 A 
ATOM      4  C   UNL d   1      52.402  32.290  53.214  0.00  0.00    -0.016 A 
ATOM      5  C   UNL d   1      52.181  33.703  53.301  0.00  0.00    -0.014 A 
ATOM      6  C   UNL d   1      52.683  33.055  53.372  0.00  0.00    -0.007 A 
ATOM      7  C   UNL d   1      53.969  32.507  53.670  0.00  0.00    -0.004 A 
ATOM      8  C   UNL d   1      51.031  34.337  53.050  0.00  0.00     0.089 A 
ATOM      9  C   UNL d   1      51.110  32.827  52.913  0.00  0.00    -0.017 A 
ATOM     10  C   UNL d   1      53.468  33.164  53.600  0.00  0.00    -0.001 A 
ATOM     11  C   UNL d   1      51.612  32.180  52.984  0.00  0.00    -0.008 A 
ATOM     12  C   UNL d   1      52.623  30.884  53.127  0.00  0.00    -0.015 A 
ATOM     13  C   UNL d   1      52.304  34.514  53.421  0.00  0.00    -0.002 A 
ATOM     14  C   UNL d   1      54.189  31.102  53.583  0.00  0.00     0.038 A 
ATOM     15  C   UNL d   1      51.588  34.897  53.263  0.00  0.00     0.017 A 
ATOM     16  C   UNL d   1      53.126  30.232  53.197  0.00  0.00     0.038 A 
ATOM     17  C   UNL d   1      53.911  30.341  53.426  0.00  0.00     0.195 A 
ATOM     18  C   UNL d   1      52.116  31.531  53.055  0.00  0.00     0.013 C 
ATOM     19  C   UNL d   1      50.606  33.484  52.843  0.00  0.00     0.015 C 
ATOM     20  O   UNL d   1      54.410  29.693  53.496  0.00  0.00    -0.287 OA
ENDROOT
BRANCH   8  21
ATOM     21  N   UNL d   1      50.243  34.479  52.847  0.00  0.00    -0.131 NA
ATOM     22  N   UNL d   1      49.849  35.186  53.030  0.00  0.00    -0.023 N 
ENDBRANCH   8  21
TORSDOF 1
ENDMDL
