MODEL 1
REMARK VINA RESULT:      -9.3      0.000      0.000
REMARK  4 active torsions:
REMARK  status: ('A' for Active; 'I' for Inactive)
REMARK    1  A    between atoms: N_2  and  S_1 
REMARK    2  A    between atoms: C_3  and  S_1 
REMARK    3  A    between atoms: C_5  and  N_4 
REMARK    4  A    between atoms: O_17  and  C_14 
ROOT
ATOM      1  N   UNL d   1      54.358  33.057  54.434  0.00  0.00    -0.226 N 
ATOM      2  N   UNL d   1      53.742  31.614  53.967  0.00  0.00    -0.299 N 
ATOM      3  C   UNL d   1      54.533  32.758  53.681  0.00  0.00     0.111 A 
ATOM      4  C   UNL d   1      53.876  32.633  54.948  0.00  0.00     0.111 A 
ATOM      5  C   UNL d   1      54.220  32.030  53.450  0.00  0.00     0.100 A 
ATOM      6  C   UNL d   1      53.567  31.906  54.710  0.00  0.00     0.100 A 
ENDROOT
BRANCH   1   7
ATOM      7  S   UNL d   1      54.669  33.784  54.669  0.00  0.00     0.272 S 
ATOM      8  O   UNL d   1      54.980  34.502  54.902  0.00  0.00    -0.200 OA
ATOM      9  O   UNL d   1      55.393  33.420  54.821  0.00  0.00    -0.200 OA
BRANCH   7  10
ATOM     10  C   UNL d   1      53.941  34.140  54.514  0.00  0.00     0.106 A 
ATOM     11  C   UNL d   1      53.741  34.368  53.745  0.00  0.00     0.037 A 
ATOM     12  C   UNL d   1      53.011  34.724  53.599  0.00  0.00     0.095 A 
ATOM     13  C   UNL d   1      52.481  34.852  54.221  0.00  0.00     0.024 A 
ATOM     14  C   UNL d   1      52.683  34.623  54.987  0.00  0.00     0.003 A 
ATOM     15  C   UNL d   1      53.413  34.268  55.133  0.00  0.00     0.013 A 
BRANCH  12  16
ATOM     16  O   UNL d   1      52.809  34.953  52.834  0.00  0.00    -0.328 OA
ATOM     17  C   UNL d   1      52.059  34.782  52.536  0.00  0.00     0.181 C 
ENDBRANCH  12  16
ENDBRANCH   7  10
ENDBRANCH   1   7
BRANCH   2  18
ATOM     18  C   UNL d   1      53.429  30.886  53.735  0.00  0.00     0.092 A 
ATOM     19  C   UNL d   1      52.865  30.855  53.140  0.00  0.00     0.156 A 
ATOM     20  F   UNL d   1      52.641  31.579  52.801  0.00  0.00    -0.203 F 
ATOM     21  C   UNL d   1      52.545  30.133  52.899  0.00  0.00     0.031 A 
ATOM     22  C   UNL d   1      52.802  29.433  53.270  0.00  0.00     0.002 A 
ATOM     23  C   UNL d   1      53.370  29.465  53.869  0.00  0.00     0.002 A 
ATOM     24  C   UNL d   1      53.683  30.193  54.101  0.00  0.00     0.020 A 
ENDBRANCH   2  18
TORSDOF 4
ENDMDL
MODEL 2
REMARK VINA RESULT:      -9.2      1.277      1.871
REMARK  4 active torsions:
REMARK  status: ('A' for Active; 'I' for Inactive)
REMARK    1  A    between atoms: N_2  and  S_1 
REMARK    2  A    between atoms: C_3  and  S_1 
REMARK    3  A    between atoms: C_5  and  N_4 
REMARK    4  A    between atoms: O_17  and  C_14 
ROOT
ATOM      1  N   UNL d   1      52.995  33.647  53.628  0.00  0.00    -0.226 N 
ATOM      2  N   UNL d   1      53.138  32.018  53.547  0.00  0.00    -0.299 N 
ATOM      3  C   UNL d   1      53.494  33.305  53.062  0.00  0.00     0.111 A 
ATOM      4  C   UNL d   1      52.571  33.173  54.150  0.00  0.00     0.111 A 
ATOM      5  C   UNL d   1      53.563  32.484  53.024  0.00  0.00     0.100 A 
ATOM      6  C   UNL d   1      52.645  32.352  54.107  0.00  0.00     0.100 A 
ENDROOT
BRANCH   1   7
ATOM      7  S   UNL d   1      52.923  34.467  53.669  0.00  0.00     0.272 S 
ATOM      8  O   UNL d   1      52.855  35.280  53.712  0.00  0.00    -0.200 OA
ATOM      9  O   UNL d   1      53.547  34.491  54.209  0.00  0.00    -0.200 OA
BRANCH   7  10
ATOM     10  C   UNL d   1      52.300  34.436  53.129  0.00  0.00     0.106 A 
ATOM     11  C   UNL d   1      51.517  34.407  53.394  0.00  0.00     0.037 A 
ATOM     12  C   UNL d   1      50.900  34.376  52.848  0.00  0.00     0.095 A 
ATOM     13  C   UNL d   1      51.065  34.373  52.038  0.00  0.00     0.024 A 
ATOM     14  C   UNL d   1      51.846  34.401  51.776  0.00  0.00     0.003 A 
ATOM     15  C   UNL d   1      52.463  34.433  52.322  0.00  0.00     0.013 A 
BRANCH  12  16
ATOM     16  O   UNL d   1      50.119  34.348  53.109  0.00  0.00    -0.328 OA
ATOM     17  C   UNL d   1      49.527  34.737  52.686  0.00  0.00     0.181 C 
ENDBRANCH  12  16
ENDBRANCH   7  10
ENDBRANCH   1   7
BRANCH   2  18
ATOM     18  C   UNL d   1      53.207  31.197  53.509  0.00  0.00     0.092 A 
ATOM     19  C   UNL d   1      52.736  30.771  52.989  0.00  0.00     0.156 A 
ATOM     20  F   UNL d   1      52.206  31.208  52.523  0.00  0.00    -0.203 F 
ATOM     21  C   UNL d   1      52.796  29.948  52.942  0.00  0.00     0.031 A 
ATOM     22  C   UNL d   1      53.343  29.554  53.430  0.00  0.00     0.002 A 
ATOM     23  C   UNL d   1      53.817  29.984  53.954  0.00  0.00     0.002 A 
ATOM     24  C   UNL d   1      53.748  30.805  53.992  0.00  0.00     0.020 A 
ENDBRANCH   2  18
TORSDOF 4
ENDMDL
MODEL 3
REMARK VINA RESULT:      -9.0      1.552      3.528
REMARK  4 active torsions:
REMARK  status: ('A' for Active; 'I' for Inactive)
REMARK    1  A    between atoms: N_2  and  S_1 
REMARK    2  A    between atoms: C_3  and  S_1 
REMARK    3  A    between atoms: C_5  and  N_4 
REMARK    4  A    between atoms: O_17  and  C_14 
ROOT
ATOM      1  N   UNL d   1      53.067  34.104  54.279  0.00  0.00    -0.226 N 
ATOM      2  N   UNL d   1      51.754  34.264  53.314  0.00  0.00    -0.299 N 
ATOM      3  C   UNL d   1      53.094  34.616  53.628  0.00  0.00     0.111 A 
ATOM      4  C   UNL d   1      52.384  33.675  54.443  0.00  0.00     0.111 A 
ATOM      5  C   UNL d   1      52.430  34.694  53.144  0.00  0.00     0.100 A 
ATOM      6  C   UNL d   1      51.725  33.758  53.955  0.00  0.00     0.100 A 
ENDROOT
BRANCH   1   7
ATOM      7  S   UNL d   1      53.729  34.024  54.765  0.00  0.00     0.272 S 
ATOM      8  O   UNL d   1      54.383  33.947  55.248  0.00  0.00    -0.200 OA
ATOM      9  O   UNL d   1      53.484  34.681  55.199  0.00  0.00    -0.200 OA
BRANCH   7  10
ATOM     10  C   UNL d   1      53.966  33.367  54.326  0.00  0.00     0.106 A 
ATOM     11  C   UNL d   1      53.697  32.611  54.523  0.00  0.00     0.037 A 
ATOM     12  C   UNL d   1      53.939  31.959  54.079  0.00  0.00     0.095 A 
ATOM     13  C   UNL d   1      54.451  32.063  53.438  0.00  0.00     0.024 A 
ATOM     14  C   UNL d   1      54.719  32.818  53.243  0.00  0.00     0.003 A 
ATOM     15  C   UNL d   1      54.476  33.470  53.687  0.00  0.00     0.013 A 
BRANCH  12  16
ATOM     16  O   UNL d   1      53.672  31.205  54.273  0.00  0.00    -0.328 OA
ATOM     17  C   UNL d   1      53.634  30.618  53.695  0.00  0.00     0.181 C 
ENDBRANCH  12  16
ENDBRANCH   7  10
ENDBRANCH   1   7
BRANCH   2  18
ATOM     18  C   UNL d   1      51.090  34.341  52.830  0.00  0.00     0.092 A 
ATOM     19  C   UNL d   1      51.119  34.078  52.053  0.00  0.00     0.156 A 
ATOM     20  F   UNL d   1      51.834  33.742  51.799  0.00  0.00    -0.203 F 
ATOM     21  C   UNL d   1      50.461  34.151  51.559  0.00  0.00     0.031 A 
ATOM     22  C   UNL d   1      49.765  34.495  51.859  0.00  0.00     0.002 A 
ATOM     23  C   UNL d   1      49.737  34.760  52.642  0.00  0.00     0.002 A 
ATOM     24  C   UNL d   1      50.401  34.682  53.126  0.00  0.00     0.020 A 
ENDBRANCH   2  18
TORSDOF 4
ENDMDL
MODEL 4
REMARK VINA RESULT:      -8.0      1.921      3.567
REMARK  4 active torsions:
REMARK  status: ('A' for Active; 'I' for Inactive)
REMARK    1  A    between atoms: N_2  and  S_1 
REMARK    2  A    between atoms: C_3  and  S_1 
REMARK    3  A    between atoms: C_5  and  N_4 
REMARK    4  A    between atoms: O_17  and  C_14 
ROOT
ATOM      1  N   UNL d   1      52.934  32.215  53.089  0.00  0.00    -0.226 N 
ATOM      2  N   UNL d   1      51.692  33.267  52.911  0.00  0.00    -0.299 N 
ATOM      3  C   UNL d   1      53.049  32.920  52.670  0.00  0.00     0.111 A 
ATOM      4  C   UNL d   1      52.199  32.039  53.416  0.00  0.00     0.111 A 
ATOM      5  C   UNL d   1      52.420  33.448  52.583  0.00  0.00     0.100 A 
ATOM      6  C   UNL d   1      51.576  32.571  53.324  0.00  0.00     0.100 A 
ENDROOT
BRANCH   1   7
ATOM      7  S   UNL d   1      53.559  31.685  53.178  0.00  0.00     0.272 S 
ATOM      8  O   UNL d   1      54.178  31.158  53.263  0.00  0.00    -0.200 OA
ATOM      9  O   UNL d   1      53.305  31.277  52.507  0.00  0.00    -0.200 OA
BRANCH   7  10
ATOM     10  C   UNL d   1      53.808  32.097  53.848  0.00  0.00     0.106 A 
ATOM     11  C   UNL d   1      54.374  32.697  53.785  0.00  0.00     0.037 A 
ATOM     12  C   UNL d   1      54.617  33.105  54.459  0.00  0.00     0.095 A 
ATOM     13  C   UNL d   1      54.295  32.913  55.197  0.00  0.00     0.024 A 
ATOM     14  C   UNL d   1      53.731  32.315  55.257  0.00  0.00     0.003 A 
ATOM     15  C   UNL d   1      53.487  31.907  54.582  0.00  0.00     0.013 A 
BRANCH  12  16
ATOM     16  O   UNL d   1      55.180  33.702  54.400  0.00  0.00    -0.328 OA
ATOM     17  C   UNL d   1      55.481  34.057  55.081  0.00  0.00     0.181 C 
ENDBRANCH  12  16
ENDBRANCH   7  10
ENDBRANCH   1   7
BRANCH   2  18
ATOM     18  C   UNL d   1      51.064  33.794  52.823  0.00  0.00     0.092 A 
ATOM     19  C   UNL d   1      50.893  34.328  53.423  0.00  0.00     0.156 A 
ATOM     20  F   UNL d   1      51.377  34.300  54.096  0.00  0.00    -0.203 F 
ATOM     21  C   UNL d   1      50.266  34.861  53.347  0.00  0.00     0.031 A 
ATOM     22  C   UNL d   1      49.808  34.851  52.652  0.00  0.00     0.002 A 
ATOM     23  C   UNL d   1      49.982  34.313  52.049  0.00  0.00     0.002 A 
ATOM     24  C   UNL d   1      50.610  33.786  52.136  0.00  0.00     0.020 A 
ENDBRANCH   2  18
TORSDOF 4
ENDMDL
MODEL 5
REMARK VINA RESULT:      -7.8      1.584      2.453
REMARK  4 active torsions:
REMARK  status: ('A' for Active; 'I' for Inactive)
REMARK    1  A    between atoms: N_2  and  S_1 
REMARK    2  A    between atoms: C_3  and  S_1 
REMARK    3  A    between atoms: C_5  and  N_4 
REMARK    4  A    between atoms: O_17  and  C_14 
ROOT
ATOM      1  N   UNL d   1      51.707  33.395  53.020  0.00  0.00    -0.226 N 
ATOM      2  N   UNL d   1      52.441  31.939  53.169  0.00  0.00    -0.299 N 
ATOM      3  C   UNL d   1      52.274  33.161  52.463  0.00  0.00     0.111 A 
ATOM      4  C   UNL d   1      51.510  32.901  53.648  0.00  0.00     0.111 A 
ATOM      5  C   UNL d   1      52.641  32.426  52.542  0.00  0.00     0.100 A 
ATOM      6  C   UNL d   1      51.882  32.168  53.720  0.00  0.00     0.100 A 
ENDROOT
BRANCH   1   7
ATOM      7  S   UNL d   1      51.337  34.129  52.945  0.00  0.00     0.272 S 
ATOM      8  O   UNL d   1      50.968  34.854  52.869  0.00  0.00    -0.200 OA
ATOM      9  O   UNL d   1      50.662  33.754  52.654  0.00  0.00    -0.200 OA
BRANCH   7  10
ATOM     10  C   UNL d   1      52.016  34.496  53.236  0.00  0.00     0.106 A 
ATOM     11  C   UNL d   1      52.103  34.632  54.047  0.00  0.00     0.037 A 
ATOM     12  C   UNL d   1      52.785  35.000  54.332  0.00  0.00     0.095 A 
ATOM     13  C   UNL d   1      53.379  35.232  53.805  0.00  0.00     0.024 A 
ATOM     14  C   UNL d   1      53.290  35.096  52.997  0.00  0.00     0.003 A 
ATOM     15  C   UNL d   1      52.608  34.728  52.713  0.00  0.00     0.013 A 
BRANCH  12  16
ATOM     16  O   UNL d   1      52.875  35.137  55.138  0.00  0.00    -0.328 OA
ATOM     17  C   UNL d   1      53.584  34.947  55.514  0.00  0.00     0.181 C 
ENDBRANCH  12  16
ENDBRANCH   7  10
ENDBRANCH   1   7
BRANCH   2  18
ATOM     18  C   UNL d   1      52.808  31.205  53.248  0.00  0.00     0.092 A 
ATOM     19  C   UNL d   1      53.535  31.151  53.626  0.00  0.00     0.156 A 
ATOM     20  F   UNL d   1      53.860  31.859  53.911  0.00  0.00    -0.203 F 
ATOM     21  C   UNL d   1      53.913  30.421  53.711  0.00  0.00     0.031 A 
ATOM     22  C   UNL d   1      53.546  29.738  53.407  0.00  0.00     0.002 A 
ATOM     23  C   UNL d   1      52.814  29.794  53.027  0.00  0.00     0.002 A 
ATOM     24  C   UNL d   1      52.447  30.528  52.948  0.00  0.00     0.020 A 
ENDBRANCH   2  18
TORSDOF 4
ENDMDL
