MODEL 1
REMARK VINA RESULT:     -12.0      0.000      0.000
REMARK  1 active torsions:
REMARK  status: ('A' for Active; 'I' for Inactive)
REMARK    1  A    between atoms: C_2  and  C_1 
REMARK       I    between atoms: N_3  and  C_2 
ROOT
ATOM      1  C   UNL d   1      54.043  32.630  53.897  0.00  0.00     0.109 A 
ATOM      2  C   UNL d   1      54.671  32.756  53.497  0.00  0.00     0.026 A 
ATOM      3  C   UNL d   1      54.051  32.945  54.539  0.00  0.00    -0.014 A 
ATOM      4  C   UNL d   1      53.698  32.813  54.638  0.00  0.00    -0.014 A 
ATOM      5  C   UNL d   1      55.190  33.237  53.944  0.00  0.00     0.045 A 
ATOM      6  C   UNL d   1      54.115  33.210  55.020  0.00  0.00    -0.007 A 
ATOM      7  C   UNL d   1      54.583  33.440  55.002  0.00  0.00    -0.007 A 
ATOM      8  C   UNL d   1      55.196  33.563  54.612  0.00  0.00    -0.022 A 
ATOM      9  C   UNL d   1      54.248  33.636  55.762  0.00  0.00    -0.001 A 
ATOM     10  C   UNL d   1      54.930  33.388  54.530  0.00  0.00    -0.022 A 
ENDROOT
BRANCH   1  11
ATOM     11  C   UNL d   1      53.392  32.111  53.508  0.00  0.00     0.248 C 
ATOM     12  N   UNL d   1      53.249  31.331  53.420  0.00  0.00    -0.275 N 
ATOM     13  C   UNL d   1      52.600  31.086  53.033  0.00  0.00     0.083 A 
ATOM     14  C   UNL d   1      53.770  30.806  53.726  0.00  0.00     0.083 A 
ATOM     15  C   UNL d   1      52.458  30.278  52.944  0.00  0.00     0.019 A 
ATOM     16  C   UNL d   1      52.971  29.736  53.246  0.00  0.00     0.003 A 
ATOM     17  C   UNL d   1      53.629  29.999  53.638  0.00  0.00     0.019 A 
ATOM     18  O   UNL d   1      52.965  32.884  53.259  0.00  0.00    -0.271 OA
ENDBRANCH   1  11
TORSDOF 1
ENDMDL
MODEL 2
REMARK VINA RESULT:     -11.5      1.655      2.258
REMARK  1 active torsions:
REMARK  status: ('A' for Active; 'I' for Inactive)
REMARK    1  A    between atoms: C_2  and  C_1 
REMARK       I    between atoms: N_3  and  C_2 
ROOT
ATOM      1  C   UNL d   1      53.597  33.009  53.882  0.00  0.00     0.109 A 
ATOM      2  C   UNL d   1      54.079  32.929  53.305  0.00  0.00     0.026 A 
ATOM      3  C   UNL d   1      53.923  33.164  54.499  0.00  0.00    -0.014 A 
ATOM      4  C   UNL d   1      53.590  33.179  54.701  0.00  0.00    -0.014 A 
ATOM      5  C   UNL d   1      54.860  33.050  53.580  0.00  0.00     0.045 A 
ATOM      6  C   UNL d   1      54.229  33.282  54.944  0.00  0.00    -0.007 A 
ATOM      7  C   UNL d   1      54.726  33.290  54.786  0.00  0.00    -0.007 A 
ATOM      8  C   UNL d   1      55.196  33.211  54.223  0.00  0.00    -0.022 A 
ATOM      9  C   UNL d   1      54.738  33.464  55.621  0.00  0.00    -0.001 A 
ATOM     10  C   UNL d   1      54.868  33.185  54.225  0.00  0.00    -0.022 A 
ENDROOT
BRANCH   1  11
ATOM     11  C   UNL d   1      52.703  32.899  53.703  0.00  0.00     0.248 C 
ATOM     12  N   UNL d   1      52.116  33.341  53.394  0.00  0.00    -0.275 N 
ATOM     13  C   UNL d   1      51.383  33.039  53.326  0.00  0.00     0.083 A 
ATOM     14  C   UNL d   1      52.278  34.087  53.155  0.00  0.00     0.083 A 
ATOM     15  C   UNL d   1      50.779  33.501  53.005  0.00  0.00     0.019 A 
ATOM     16  C   UNL d   1      50.925  34.254  52.760  0.00  0.00     0.003 A 
ATOM     17  C   UNL d   1      51.675  34.549  52.835  0.00  0.00     0.019 A 
ATOM     18  O   UNL d   1      52.771  32.048  54.038  0.00  0.00    -0.271 OA
ENDBRANCH   1  11
TORSDOF 1
ENDMDL
MODEL 3
REMARK VINA RESULT:     -11.2      0.801      3.287
REMARK  1 active torsions:
REMARK  status: ('A' for Active; 'I' for Inactive)
REMARK    1  A    between atoms: C_2  and  C_1 
REMARK       I    between atoms: N_3  and  C_2 
ROOT
ATOM      1  C   UNL d   1      53.619  31.839  53.417  0.00  0.00     0.109 A 
ATOM      2  C   UNL d   1      53.036  32.156  53.055  0.00  0.00     0.026 A 
ATOM      3  C   UNL d   1      53.554  31.130  53.487  0.00  0.00    -0.014 A 
ATOM      4  C   UNL d   1      53.892  31.091  53.675  0.00  0.00    -0.014 A 
ATOM      5  C   UNL d   1      52.486  31.561  52.846  0.00  0.00     0.045 A 
ATOM      6  C   UNL d   1      53.448  30.588  53.510  0.00  0.00    -0.007 A 
ATOM      7  C   UNL d   1      52.990  30.515  53.272  0.00  0.00    -0.007 A 
ATOM      8  C   UNL d   1      52.421  30.824  52.920  0.00  0.00    -0.022 A 
ATOM      9  C   UNL d   1      53.252  29.745  53.528  0.00  0.00    -0.001 A 
ATOM     10  C   UNL d   1      52.690  30.967  53.044  0.00  0.00    -0.022 A 
ENDROOT
BRANCH   1  11
ATOM     11  C   UNL d   1      54.293  32.396  53.700  0.00  0.00     0.248 C 
ATOM     12  N   UNL d   1      54.412  32.900  54.305  0.00  0.00    -0.275 N 
ATOM     13  C   UNL d   1      55.097  33.299  54.364  0.00  0.00     0.083 A 
ATOM     14  C   UNL d   1      53.831  32.996  54.848  0.00  0.00     0.083 A 
ATOM     15  C   UNL d   1      55.214  33.820  54.993  0.00  0.00     0.019 A 
ATOM     16  C   UNL d   1      54.641  33.928  55.548  0.00  0.00     0.003 A 
ATOM     17  C   UNL d   1      53.947  33.516  55.477  0.00  0.00     0.019 A 
ATOM     18  O   UNL d   1      54.784  32.120  52.975  0.00  0.00    -0.271 OA
ENDBRANCH   1  11
TORSDOF 1
ENDMDL
MODEL 4
REMARK VINA RESULT:     -11.0      2.545      3.580
REMARK  1 active torsions:
REMARK  status: ('A' for Active; 'I' for Inactive)
REMARK    1  A    between atoms: C_2  and  C_1 
REMARK       I    between atoms: N_3  and  C_2 
ROOT
ATOM      1  C   UNL d   1      52.287  34.326  53.173  0.00  0.00     0.109 A 
ATOM      2  C   UNL d   1      52.588  34.298  52.480  0.00  0.00     0.026 A 
ATOM      3  C   UNL d   1      51.572  34.301  53.170  0.00  0.00    -0.014 A 
ATOM      4  C   UNL d   1      51.544  34.321  53.558  0.00  0.00    -0.014 A 
ATOM      5  C   UNL d   1      51.972  34.245  51.915  0.00  0.00     0.045 A 
ATOM      6  C   UNL d   1      51.024  34.278  53.104  0.00  0.00    -0.007 A 
ATOM      7  C   UNL d   1      50.936  34.246  52.591  0.00  0.00    -0.007 A 
ATOM      8  C   UNL d   1      51.229  34.219  51.915  0.00  0.00    -0.022 A 
ATOM      9  C   UNL d   1      50.170  34.240  52.965  0.00  0.00    -0.001 A 
ATOM     10  C   UNL d   1      51.381  34.240  52.206  0.00  0.00    -0.022 A 
ENDROOT
BRANCH   1  11
ATOM     11  C   UNL d   1      52.868  34.385  53.882  0.00  0.00     0.248 C 
ATOM     12  N   UNL d   1      53.358  33.892  54.272  0.00  0.00    -0.275 N 
ATOM     13  C   UNL d   1      53.789  34.159  54.884  0.00  0.00     0.083 A 
ATOM     14  C   UNL d   1      53.407  33.129  54.035  0.00  0.00     0.083 A 
ATOM     15  C   UNL d   1      54.295  33.644  55.284  0.00  0.00     0.019 A 
ATOM     16  C   UNL d   1      54.357  32.873  55.059  0.00  0.00     0.003 A 
ATOM     17  C   UNL d   1      53.913  32.614  54.434  0.00  0.00     0.019 A 
ATOM     18  O   UNL d   1      52.641  35.271  53.956  0.00  0.00    -0.271 OA
ENDBRANCH   1  11
TORSDOF 1
ENDMDL
