MODEL 1
REMARK VINA RESULT:      -6.0      0.000      0.000
REMARK  0 active torsions:
REMARK  status: ('A' for Active; 'I' for Inactive)
ROOT
ATOM      1  C   UNL d   1     -41.551-122.312 -52.483  0.00  0.00     0.138 A 
ATOM      2  C   UNL d   1     -41.480-123.125 -52.602  0.00  0.00     0.102 A 
ATOM      3  N   UNL d   1     -41.677-121.809 -53.126  0.00  0.00    -0.239 NA
ATOM      4  C   UNL d   1     -41.498-121.999 -51.728  0.00  0.00     0.214 A 
ATOM      5  N   UNL d   1     -41.535-123.436 -53.366  0.00  0.00    -0.242 NA
ATOM      6  C   UNL d   1     -41.300-123.315 -51.203  0.00  0.00     0.022 A 
ATOM      7  C   UNL d   1     -41.372-122.502 -51.084  0.00  0.00     0.042 A 
ATOM      8  C   UNL d   1     -41.733-122.120 -53.896  0.00  0.00     0.099 A 
ATOM      9  C   UNL d   1     -41.662-122.933 -54.016  0.00  0.00     0.099 A 
ATOM     10  O   UNL d   1     -41.569-121.186 -51.608  0.00  0.00    -0.285 OA
ATOM     11  C   UNL d   1     -41.176-123.816 -50.568  0.00  0.00     0.002 A 
ATOM     12  C   UNL d   1     -41.318-122.190 -50.329  0.00  0.00     0.003 A 
ATOM     13  C   UNL d   1     -41.717-123.231 -54.762  0.00  0.00     0.021 A 
ATOM     14  C   UNL d   1     -41.858-121.614 -54.524  0.00  0.00     0.021 A 
ATOM     15  C   UNL d   1     -41.123-123.504 -49.819  0.00  0.00     0.000 A 
ATOM     16  C   UNL d   1     -41.194-122.690 -49.700  0.00  0.00     0.000 A 
ATOM     17  C   UNL d   1     -41.845-122.740 -55.435  0.00  0.00     0.002 A 
ATOM     18  C   UNL d   1     -41.916-121.927 -55.315  0.00  0.00     0.002 A 
ENDROOT
TORSDOF 0
ENDMDL
MODEL 2
REMARK VINA RESULT:      -5.5      0.769      3.697
REMARK  0 active torsions:
REMARK  status: ('A' for Active; 'I' for Inactive)
ROOT
ATOM      1  C   UNL d   1     -41.672-122.548 -52.416  0.00  0.00     0.138 A 
ATOM      2  C   UNL d   1     -41.307-123.285 -52.479  0.00  0.00     0.102 A 
ATOM      3  N   UNL d   1     -41.853-122.238 -51.672  0.00  0.00    -0.239 NA
ATOM      4  C   UNL d   1     -41.856-122.120 -53.090  0.00  0.00     0.214 A 
ATOM      5  N   UNL d   1     -41.123-123.713 -51.796  0.00  0.00    -0.242 NA
ATOM      6  C   UNL d   1     -41.310-123.167 -53.897  0.00  0.00     0.022 A 
ATOM      7  C   UNL d   1     -41.675-122.430 -53.834  0.00  0.00     0.042 A 
ATOM      8  C   UNL d   1     -41.669-122.667 -50.983  0.00  0.00     0.099 A 
ATOM      9  C   UNL d   1     -41.304-123.405 -51.046  0.00  0.00     0.099 A 
ATOM     10  O   UNL d   1     -42.221-121.383 -53.027  0.00  0.00    -0.285 OA
ATOM     11  C   UNL d   1     -41.130-123.476 -54.632  0.00  0.00     0.002 A 
ATOM     12  C   UNL d   1     -41.860-122.002 -54.508  0.00  0.00     0.003 A 
ATOM     13  C   UNL d   1     -41.126-123.817 -50.377  0.00  0.00     0.021 A 
ATOM     14  C   UNL d   1     -41.852-122.352 -50.253  0.00  0.00     0.021 A 
ATOM     15  C   UNL d   1     -41.314-123.050 -55.300  0.00  0.00     0.000 A 
ATOM     16  C   UNL d   1     -41.679-122.313 -55.238  0.00  0.00     0.000 A 
ATOM     17  C   UNL d   1     -41.300-123.524 -49.607  0.00  0.00     0.002 A 
ATOM     18  C   UNL d   1     -41.665-122.787 -49.544  0.00  0.00     0.002 A 
ENDROOT
TORSDOF 0
ENDMDL
MODEL 3
REMARK VINA RESULT:      -4.3      0.878      1.527
REMARK  0 active torsions:
REMARK  status: ('A' for Active; 'I' for Inactive)
ROOT
ATOM      1  C   UNL d   1     -41.702-122.577 -53.055  0.00  0.00     0.138 A 
ATOM      2  C   UNL d   1     -41.626-121.756 -53.061  0.00  0.00     0.102 A 
ATOM      3  N   UNL d   1     -41.867-122.982 -53.756  0.00  0.00    -0.239 NA
ATOM      4  C   UNL d   1     -41.616-122.995 -52.356  0.00  0.00     0.214 A 
ATOM      5  N   UNL d   1     -41.714-121.339 -53.768  0.00  0.00    -0.242 NA
ATOM      6  C   UNL d   1     -41.375-121.769 -51.660  0.00  0.00     0.022 A 
ATOM      7  C   UNL d   1     -41.451-122.591 -51.654  0.00  0.00     0.042 A 
ATOM      8  C   UNL d   1     -41.956-122.564 -54.470  0.00  0.00     0.099 A 
ATOM      9  C   UNL d   1     -41.879-121.743 -54.476  0.00  0.00     0.099 A 
ATOM     10  O   UNL d   1     -41.692-123.817 -52.350  0.00  0.00    -0.285 OA
ATOM     11  C   UNL d   1     -41.212-121.365 -50.967  0.00  0.00     0.002 A 
ATOM     12  C   UNL d   1     -41.365-123.008 -50.955  0.00  0.00     0.003 A 
ATOM     13  C   UNL d   1     -41.966-121.341 -55.169  0.00  0.00     0.021 A 
ATOM     14  C   UNL d   1     -42.118-122.974 -55.157  0.00  0.00     0.021 A 
ATOM     15  C   UNL d   1     -41.126-121.782 -50.274  0.00  0.00     0.000 A 
ATOM     16  C   UNL d   1     -41.203-122.604 -50.268  0.00  0.00     0.000 A 
ATOM     17  C   UNL d   1     -42.134-121.729 -55.897  0.00  0.00     0.002 A 
ATOM     18  C   UNL d   1     -42.211-122.551 -55.891  0.00  0.00     0.002 A 
ENDROOT
TORSDOF 0
ENDMDL
