MODEL 1
REMARK VINA RESULT:      -2.4      0.000      0.000
REMARK  2 active torsions:
REMARK  status: ('A' for Active; 'I' for Inactive)
REMARK    1  A    between atoms: N_3  and  C_1 
REMARK    2  A    between atoms: C_13  and  N_6 
ROOT
ATOM      1  C   UNL d   1      30.330  16.587 -24.222  0.00  0.00     0.143 A 
ATOM      2  C   UNL d   1      30.731  17.254 -23.922  0.00  0.00     0.297 A 
ATOM      3  C   UNL d   1      30.843  16.167 -24.687  0.00  0.00     0.102 A 
ATOM      4  N   UNL d   1      31.575  16.562 -24.686  0.00  0.00    -0.238 N 
ATOM      5  N   UNL d   1      31.502  17.230 -24.215  0.00  0.00    -0.209 N 
ATOM      6  O   UNL d   1      30.425  17.831 -23.428  0.00  0.00    -0.264 OA
ATOM      7  C   UNL d   1      32.253  16.312 -25.097  0.00  0.00     0.120 C 
ATOM      8  C   UNL d   1      30.672  15.464 -25.093  0.00  0.00     0.022 C 
ENDROOT
BRANCH   1   9
ATOM      9  N   UNL d   1      29.537  16.400 -24.062  0.00  0.00    -0.254 N 
ATOM     10  C   UNL d   1      29.282  15.875 -23.473  0.00  0.00     0.153 A 
ATOM     11  S   UNL d   1      28.455  15.852 -23.504  0.00  0.00    -0.053 SA
ATOM     12  S   UNL d   1      29.766  15.459 -22.960  0.00  0.00    -0.052 SA
ATOM     13  C   UNL d   1      28.214  16.360 -24.107  0.00  0.00     0.099 A 
ATOM     14  C   UNL d   1      28.881  16.694 -24.446  0.00  0.00     0.273 A 
ATOM     15  O   UNL d   1      28.881  17.238 -25.074  0.00  0.00    -0.266 OA
ENDBRANCH   1   9
BRANCH   5  16
ATOM     16  C   UNL d   1      32.081  17.792 -24.049  0.00  0.00     0.085 A 
ATOM     17  C   UNL d   1      32.244  18.396 -24.587  0.00  0.00     0.019 A 
ATOM     18  C   UNL d   1      32.825  18.951 -24.410  0.00  0.00     0.002 A 
ATOM     19  C   UNL d   1      33.241  18.913 -23.712  0.00  0.00     0.000 A 
ATOM     20  C   UNL d   1      33.085  18.318 -23.175  0.00  0.00     0.002 A 
ATOM     21  C   UNL d   1      32.502  17.752 -23.341  0.00  0.00     0.019 A 
ENDBRANCH   5  16
TORSDOF 2
ENDMDL
MODEL 2
REMARK VINA RESULT:      -2.3      1.782      3.675
REMARK  2 active torsions:
REMARK  status: ('A' for Active; 'I' for Inactive)
REMARK    1  A    between atoms: N_3  and  C_1 
REMARK    2  A    between atoms: C_13  and  N_6 
ROOT
ATOM      1  C   UNL d   1      32.137  17.359 -24.101  0.00  0.00     0.143 A 
ATOM      2  C   UNL d   1      31.319  17.238 -23.990  0.00  0.00     0.297 A 
ATOM      3  C   UNL d   1      32.441  16.718 -24.491  0.00  0.00     0.102 A 
ATOM      4  N   UNL d   1      31.821  16.184 -24.632  0.00  0.00    -0.238 N 
ATOM      5  N   UNL d   1      31.132  16.507 -24.323  0.00  0.00    -0.209 N 
ATOM      6  O   UNL d   1      30.792  17.745 -23.622  0.00  0.00    -0.264 OA
ATOM      7  C   UNL d   1      31.899  15.453 -25.020  0.00  0.00     0.120 C 
ATOM      8  C   UNL d   1      33.234  16.611 -24.712  0.00  0.00     0.022 C 
ENDROOT
BRANCH   1   9
ATOM      9  N   UNL d   1      32.554  18.031 -23.846  0.00  0.00    -0.254 N 
ATOM     10  C   UNL d   1      32.702  18.703 -24.311  0.00  0.00     0.153 A 
ATOM     11  S   UNL d   1      33.132  19.235 -23.844  0.00  0.00    -0.053 SA
ATOM     12  S   UNL d   1      32.464  18.811 -25.087  0.00  0.00    -0.052 SA
ATOM     13  C   UNL d   1      33.241  18.886 -23.105  0.00  0.00     0.099 A 
ATOM     14  C   UNL d   1      32.885  18.149 -23.111  0.00  0.00     0.273 A 
ATOM     15  O   UNL d   1      32.868  17.616 -22.474  0.00  0.00    -0.266 OA
ENDBRANCH   1   9
BRANCH   5  16
ATOM     16  C   UNL d   1      30.377  16.178 -24.331  0.00  0.00     0.085 A 
ATOM     17  C   UNL d   1      29.902  16.237 -25.004  0.00  0.00     0.019 A 
ATOM     18  C   UNL d   1      29.150  15.905 -25.001  0.00  0.00     0.002 A 
ATOM     19  C   UNL d   1      28.866  15.519 -24.343  0.00  0.00     0.000 A 
ATOM     20  C   UNL d   1      29.329  15.458 -23.674  0.00  0.00     0.002 A 
ATOM     21  C   UNL d   1      30.090  15.788 -23.663  0.00  0.00     0.019 A 
ENDBRANCH   5  16
TORSDOF 2
ENDMDL
MODEL 3
REMARK VINA RESULT:      -2.1      1.271      1.651
REMARK  2 active torsions:
REMARK  status: ('A' for Active; 'I' for Inactive)
REMARK    1  A    between atoms: N_3  and  C_1 
REMARK    2  A    between atoms: C_13  and  N_6 
ROOT
ATOM      1  C   UNL d   1      29.507  16.770 -24.137  0.00  0.00     0.143 A 
ATOM      2  C   UNL d   1      30.256  16.557 -23.840  0.00  0.00     0.297 A 
ATOM      3  C   UNL d   1      29.596  17.413 -24.621  0.00  0.00     0.102 A 
ATOM      4  N   UNL d   1      30.402  17.615 -24.636  0.00  0.00    -0.238 N 
ATOM      5  N   UNL d   1      30.805  17.087 -24.155  0.00  0.00    -0.209 N 
ATOM      6  O   UNL d   1      30.426  15.939 -23.330  0.00  0.00    -0.264 OA
ATOM      7  C   UNL d   1      30.728  18.246 -25.069  0.00  0.00     0.120 C 
ATOM      8  C   UNL d   1      28.989  17.804 -25.032  0.00  0.00     0.022 C 
ENDROOT
BRANCH   1   9
ATOM      9  N   UNL d   1      28.798  16.377 -23.957  0.00  0.00    -0.254 N 
ATOM     10  C   UNL d   1      28.465  15.765 -24.408  0.00  0.00     0.153 A 
ATOM     11  S   UNL d   1      27.764  15.534 -24.031  0.00  0.00    -0.053 SA
ATOM     12  S   UNL d   1      28.778  15.453 -25.097  0.00  0.00    -0.052 SA
ATOM     13  C   UNL d   1      27.676  16.004 -23.359  0.00  0.00     0.099 A 
ATOM     14  C   UNL d   1      28.312  16.518 -23.318  0.00  0.00     0.273 A 
ATOM     15  O   UNL d   1      28.435  17.086 -22.723  0.00  0.00    -0.266 OA
ENDBRANCH   1   9
BRANCH   5  16
ATOM     16  C   UNL d   1      31.613  17.068 -23.998  0.00  0.00     0.085 A 
ATOM     17  C   UNL d   1      32.100  16.518 -24.375  0.00  0.00     0.019 A 
ATOM     18  C   UNL d   1      32.906  16.509 -24.211  0.00  0.00     0.002 A 
ATOM     19  C   UNL d   1      33.231  17.035 -23.681  0.00  0.00     0.000 A 
ATOM     20  C   UNL d   1      32.755  17.581 -23.305  0.00  0.00     0.002 A 
ATOM     21  C   UNL d   1      31.941  17.602 -23.461  0.00  0.00     0.019 A 
ENDBRANCH   5  16
TORSDOF 2
ENDMDL
MODEL 4
REMARK VINA RESULT:       0.3      1.850      2.898
REMARK  2 active torsions:
REMARK  status: ('A' for Active; 'I' for Inactive)
REMARK    1  A    between atoms: N_3  and  C_1 
REMARK    2  A    between atoms: C_13  and  N_6 
ROOT
ATOM      1  C   UNL d   1      32.241  17.944 -23.728  0.00  0.00     0.143 A 
ATOM      2  C   UNL d   1      32.260  18.364 -23.008  0.00  0.00     0.297 A 
ATOM      3  C   UNL d   1      32.596  18.396 -24.298  0.00  0.00     0.102 A 
ATOM      4  N   UNL d   1      32.844  19.108 -23.946  0.00  0.00    -0.238 N 
ATOM      5  N   UNL d   1      32.635  19.084 -23.153  0.00  0.00    -0.209 N 
ATOM      6  O   UNL d   1      31.963  18.116 -22.286  0.00  0.00    -0.264 OA
ATOM      7  C   UNL d   1      33.234  19.726 -24.342  0.00  0.00     0.120 C 
ATOM      8  C   UNL d   1      32.697  18.188 -25.095  0.00  0.00     0.022 C 
ENDROOT
BRANCH   1   9
ATOM      9  N   UNL d   1      31.910  17.189 -23.826  0.00  0.00    -0.254 N 
ATOM     10  C   UNL d   1      31.119  17.039 -24.026  0.00  0.00     0.153 A 
ATOM     11  S   UNL d   1      31.026  16.217 -24.066  0.00  0.00    -0.053 SA
ATOM     12  S   UNL d   1      30.542  17.606 -24.158  0.00  0.00    -0.052 SA
ATOM     13  C   UNL d   1      31.756  15.876 -23.892  0.00  0.00     0.099 A 
ATOM     14  C   UNL d   1      32.294  16.475 -23.745  0.00  0.00     0.273 A 
ATOM     15  O   UNL d   1      33.094  16.367 -23.548  0.00  0.00    -0.266 OA
ENDBRANCH   1   9
BRANCH   5  16
ATOM     16  C   UNL d   1      32.767  19.664 -22.583  0.00  0.00     0.085 A 
ATOM     17  C   UNL d   1      32.587  20.455 -22.741  0.00  0.00     0.019 A 
ATOM     18  C   UNL d   1      32.722  21.025 -22.164  0.00  0.00     0.002 A 
ATOM     19  C   UNL d   1      33.031  20.822 -21.439  0.00  0.00     0.000 A 
ATOM     20  C   UNL d   1      33.212  20.042 -21.276  0.00  0.00     0.002 A 
ATOM     21  C   UNL d   1      33.080  19.457 -21.849  0.00  0.00     0.019 A 
ENDBRANCH   5  16
TORSDOF 2
ENDMDL
