MODEL 1
REMARK VINA RESULT:      37.7      0.000      0.000
REMARK  6 active torsions:
REMARK  status: ('A' for Active; 'I' for Inactive)
REMARK    1  A    between atoms: C_7  and  C_1 
REMARK    2  A    between atoms: O_11  and  C_2 
REMARK    3  A    between atoms: O_13  and  C_10 
REMARK    4  A    between atoms: C_20  and  O_11 
REMARK    5  A    between atoms: C_21  and  C_12 
REMARK    6  A    between atoms: C_14  and  O_13 
ROOT
ATOM      1  C   UNL d   1      44.451 -15.117  44.171  0.00  0.00     0.197 A 
ATOM      2  C   UNL d   1      45.187 -14.983  44.566  0.00  0.00     0.165 A 
ATOM      3  O   UNL d   1      44.318 -15.838  43.788  0.00  0.00    -0.301 OA
ATOM      4  C   UNL d   1      45.755 -15.583  44.555  0.00  0.00     0.222 A 
ATOM      5  C   UNL d   1      45.623 -16.303  44.173  0.00  0.00     0.064 A 
ATOM      6  C   UNL d   1      44.885 -16.421  43.784  0.00  0.00     0.105 A 
ATOM      7  C   UNL d   1      46.190 -16.883  44.171  0.00  0.00     0.007 A 
ATOM      8  C   UNL d   1      44.749 -17.141  43.400  0.00  0.00     0.050 A 
ATOM      9  C   UNL d   1      45.324 -17.724  43.400  0.00  0.00     0.105 A 
ATOM     10  C   UNL d   1      46.055 -17.599  43.788  0.00  0.00     0.023 A 
ATOM     11  O   UNL d   1      46.493 -15.441  44.955  0.00  0.00    -0.284 OA
ENDROOT
BRANCH   2  12
ATOM     12  O   UNL d   1      45.338 -14.269  44.954  0.00  0.00    -0.302 OA
BRANCH  12  13
ATOM     13  C   UNL d   1      45.640 -13.638  44.533  0.00  0.00     0.100 A 
ATOM     14  C   UNL d   1      45.884 -13.721  43.744  0.00  0.00     0.025 A 
ATOM     15  C   UNL d   1      46.179 -13.084  43.350  0.00  0.00     0.002 A 
ATOM     16  C   UNL d   1      46.246 -12.345  43.715  0.00  0.00     0.000 A 
ATOM     17  C   UNL d   1      46.008 -12.273  44.480  0.00  0.00     0.002 A 
ATOM     18  C   UNL d   1      45.707 -12.899  44.898  0.00  0.00     0.025 A 
ENDBRANCH  12  13
ENDBRANCH   2  12
BRANCH   1  19
ATOM     19  C   UNL d   1      43.859 -14.542  44.159  0.00  0.00     0.442 C 
ATOM     20  F   UNL d   1      43.259 -13.956  44.141  0.00  0.00    -0.164 F 
ATOM     21  F   UNL d   1      43.562 -14.823  44.892  0.00  0.00    -0.164 F 
ATOM     22  F   UNL d   1      44.158 -14.262  43.423  0.00  0.00    -0.164 F 
ENDBRANCH   1  19
BRANCH  10  23
ATOM     23  C   UNL d   1      46.647 -18.174  43.800  0.00  0.00     0.002 C 
ATOM     24  C   UNL d   1      46.478 -18.847  43.829  0.00  0.00     0.000 C 
ENDBRANCH  10  23
BRANCH   9  25
ATOM     25  O   UNL d   1      45.174 -18.434  43.014  0.00  0.00    -0.273 OA
BRANCH  25  26
ATOM     26  C   UNL d   1      45.402 -18.546  42.231  0.00  0.00     0.300 C 
ATOM     27  O   UNL d   1      45.299 -17.938  41.671  0.00  0.00    -0.259 OA
ATOM     28  C   UNL d   1      45.729 -19.247  41.987  0.00  0.00     0.074 C 
ENDBRANCH  25  26
ENDBRANCH   9  25
TORSDOF 6
ENDMDL
MODEL 2
REMARK VINA RESULT:      38.0      1.745      4.400
REMARK  6 active torsions:
REMARK  status: ('A' for Active; 'I' for Inactive)
REMARK    1  A    between atoms: C_7  and  C_1 
REMARK    2  A    between atoms: O_11  and  C_2 
REMARK    3  A    between atoms: O_13  and  C_10 
REMARK    4  A    between atoms: C_20  and  O_11 
REMARK    5  A    between atoms: C_21  and  C_12 
REMARK    6  A    between atoms: C_14  and  O_13 
ROOT
ATOM      1  C   UNL d   1      45.563 -17.360  44.420  0.00  0.00     0.197 A 
ATOM      2  C   UNL d   1      46.105 -17.115  43.818  0.00  0.00     0.165 A 
ATOM      3  O   UNL d   1      45.046 -16.808  44.754  0.00  0.00    -0.301 OA
ATOM      4  C   UNL d   1      46.099 -16.323  43.582  0.00  0.00     0.222 A 
ATOM      5  C   UNL d   1      45.583 -15.771  43.916  0.00  0.00     0.064 A 
ATOM      6  C   UNL d   1      45.050 -16.031  44.514  0.00  0.00     0.105 A 
ATOM      7  C   UNL d   1      45.589 -14.997  43.674  0.00  0.00     0.007 A 
ATOM      8  C   UNL d   1      44.531 -15.481  44.851  0.00  0.00     0.050 A 
ATOM      9  C   UNL d   1      44.541 -14.700  44.604  0.00  0.00     0.105 A 
ATOM     10  C   UNL d   1      45.073 -14.450  44.009  0.00  0.00     0.023 A 
ATOM     11  O   UNL d   1      46.647 -16.083  42.976  0.00  0.00    -0.284 OA
ENDROOT
BRANCH   2  12
ATOM     12  O   UNL d   1      46.628 -17.652  43.472  0.00  0.00    -0.302 OA
BRANCH  12  13
ATOM     13  C   UNL d   1      46.391 -18.084  42.821  0.00  0.00     0.100 A 
ATOM     14  C   UNL d   1      46.297 -17.729  42.076  0.00  0.00     0.025 A 
ATOM     15  C   UNL d   1      46.062 -18.175  41.449  0.00  0.00     0.002 A 
ATOM     16  C   UNL d   1      45.910 -18.984  41.530  0.00  0.00     0.000 A 
ATOM     17  C   UNL d   1      46.003 -19.321  42.254  0.00  0.00     0.002 A 
ATOM     18  C   UNL d   1      46.239 -18.893  42.901  0.00  0.00     0.025 A 
ENDBRANCH  12  13
ENDBRANCH   2  12
BRANCH   1  19
ATOM     19  C   UNL d   1      45.538 -18.142  44.682  0.00  0.00     0.442 C 
ATOM     20  F   UNL d   1      45.519 -18.937  44.951  0.00  0.00    -0.164 F 
ATOM     21  F   UNL d   1      44.721 -18.185  44.497  0.00  0.00    -0.164 F 
ATOM     22  F   UNL d   1      46.359 -18.097  44.868  0.00  0.00    -0.164 F 
ENDBRANCH   1  19
BRANCH  10  23
ATOM     23  C   UNL d   1      45.099 -13.668  43.746  0.00  0.00     0.002 C 
ATOM     24  C   UNL d   1      45.518 -13.490  43.222  0.00  0.00     0.000 C 
ENDBRANCH  10  23
BRANCH   9  25
ATOM     25  O   UNL d   1      44.020 -14.166  44.947  0.00  0.00    -0.273 OA
BRANCH  25  26
ATOM     26  C   UNL d   1      43.254 -14.077  44.660  0.00  0.00     0.300 C 
ATOM     27  O   UNL d   1      43.076 -13.478  44.110  0.00  0.00    -0.259 OA
ATOM     28  C   UNL d   1      42.657 -14.569  44.905  0.00  0.00     0.074 C 
ENDBRANCH  25  26
ENDBRANCH   9  25
TORSDOF 6
ENDMDL
MODEL 3
REMARK VINA RESULT:      39.4      1.536      2.085
REMARK  6 active torsions:
REMARK  status: ('A' for Active; 'I' for Inactive)
REMARK    1  A    between atoms: C_7  and  C_1 
REMARK    2  A    between atoms: O_11  and  C_2 
REMARK    3  A    between atoms: O_13  and  C_10 
REMARK    4  A    between atoms: C_20  and  O_11 
REMARK    5  A    between atoms: C_21  and  C_12 
REMARK    6  A    between atoms: C_14  and  O_13 
ROOT
ATOM      1  C   UNL d   1      46.366 -15.614  43.125  0.00  0.00     0.197 A 
ATOM      2  C   UNL d   1      46.188 -15.813  43.929  0.00  0.00     0.165 A 
ATOM      3  O   UNL d   1      46.489 -16.217  42.573  0.00  0.00    -0.301 OA
ATOM      4  C   UNL d   1      46.143 -16.611  44.137  0.00  0.00     0.222 A 
ATOM      5  C   UNL d   1      46.266 -17.214  43.586  0.00  0.00     0.064 A 
ATOM      6  C   UNL d   1      46.442 -17.000  42.790  0.00  0.00     0.105 A 
ATOM      7  C   UNL d   1      46.219 -17.993  43.805  0.00  0.00     0.007 A 
ATOM      8  C   UNL d   1      46.566 -17.602  42.235  0.00  0.00     0.050 A 
ATOM      9  C   UNL d   1      46.517 -18.387  42.461  0.00  0.00     0.105 A 
ATOM     10  C   UNL d   1      46.342 -18.591  43.253  0.00  0.00     0.023 A 
ATOM     11  O   UNL d   1      45.963 -16.803  44.946  0.00  0.00    -0.284 OA
ENDROOT
BRANCH   2  12
ATOM     12  O   UNL d   1      46.062 -15.223  44.494  0.00  0.00    -0.302 OA
BRANCH  12  13
ATOM     13  C   UNL d   1      45.329 -14.866  44.546  0.00  0.00     0.100 A 
ATOM     14  C   UNL d   1      44.684 -15.250  44.902  0.00  0.00     0.025 A 
ATOM     15  C   UNL d   1      43.972 -14.877  44.942  0.00  0.00     0.002 A 
ATOM     16  C   UNL d   1      43.866 -14.117  44.635  0.00  0.00     0.000 A 
ATOM     17  C   UNL d   1      44.495 -13.751  44.291  0.00  0.00     0.002 A 
ATOM     18  C   UNL d   1      45.223 -14.105  44.239  0.00  0.00     0.025 A 
ENDBRANCH  12  13
ENDBRANCH   2  12
BRANCH   1  19
ATOM     19  C   UNL d   1      46.420 -14.829  42.878  0.00  0.00     0.442 C 
ATOM     20  F   UNL d   1      46.476 -14.028  42.633  0.00  0.00    -0.164 F 
ATOM     21  F   UNL d   1      46.198 -15.051  42.100  0.00  0.00    -0.164 F 
ATOM     22  F   UNL d   1      46.642 -14.607  43.660  0.00  0.00    -0.164 F 
ENDBRANCH   1  19
BRANCH  10  23
ATOM     23  C   UNL d   1      46.288 -19.377  43.500  0.00  0.00     0.002 C 
ATOM     24  C   UNL d   1      46.348 -19.534  44.174  0.00  0.00     0.000 C 
ENDBRANCH  10  23
BRANCH   9  25
ATOM     25  O   UNL d   1      46.643 -18.974  41.898  0.00  0.00    -0.273 OA
BRANCH  25  26
ATOM     26  C   UNL d   1      46.328 -18.908  41.141  0.00  0.00     0.300 C 
ATOM     27  O   UNL d   1      46.322 -18.173  40.749  0.00  0.00    -0.259 OA
ATOM     28  C   UNL d   1      46.018 -19.554  40.761  0.00  0.00     0.074 C 
ENDBRANCH  25  26
ENDBRANCH   9  25
TORSDOF 6
ENDMDL
