MODEL 1
REMARK VINA RESULT:      61.9      0.000      0.000
REMARK  1 active torsions:
REMARK  status: ('A' for Active; 'I' for Inactive)
REMARK    1  A    between atoms: C_2  and  N_1 
ROOT
ATOM      1  C   UNL d   1     -52.600  24.818  34.013  0.00  0.00     0.153 A 
ATOM      2  C   UNL d   1     -51.956  24.366  33.793  0.00  0.00     0.059 A 
ATOM      3  C   UNL d   1     -52.085  23.572  33.487  0.00  0.00     0.115 A 
ATOM      4  S   UNL d   1     -51.333  23.268  33.318  0.00  0.00    -0.068 SA
ATOM      5  C   UNL d   1     -51.147  24.505  33.795  0.00  0.00     0.011 A 
ATOM      6  C   UNL d   1     -50.765  23.834  33.505  0.00  0.00     0.031 A 
ATOM      7  N   UNL d   1     -53.395  24.537  33.953  0.00  0.00    -0.206 NA
ATOM      8  N   UNL d   1     -52.843  23.271  33.417  0.00  0.00    -0.217 NA
ATOM      9  C   UNL d   1     -53.522  23.726  33.641  0.00  0.00     0.201 A 
ATOM     10  C   UNL d   1     -50.694  25.160  34.024  0.00  0.00     0.001 A 
ATOM     11  C   UNL d   1     -49.928  23.808  33.440  0.00  0.00     0.006 A 
ATOM     12  C   UNL d   1     -49.839  25.163  33.970  0.00  0.00     0.000 A 
ATOM     13  C   UNL d   1     -49.494  24.480  33.677  0.00  0.00     0.001 A 
ENDROOT
BRANCH   1  14
ATOM     14  N   UNL d   1     -52.102  25.438  34.226  0.00  0.00    -0.273 N 
ATOM     15  C   UNL d   1     -51.946  25.259  35.044  0.00  0.00     0.184 A 
ATOM     16  N   UNL d   1     -51.450  25.833  35.347  0.00  0.00    -0.224 NA
ATOM     17  C   UNL d   1     -51.289  26.364  34.750  0.00  0.00     0.099 A 
ATOM     18  C   UNL d   1     -51.688  26.141  34.029  0.00  0.00     0.085 A 
ATOM     19  C   UNL d   1     -50.828  27.043  34.739  0.00  0.00     0.021 A 
ATOM     20  C   UNL d   1     -51.616  26.582  33.355  0.00  0.00     0.019 A 
ATOM     21  C   UNL d   1     -51.146  27.263  33.365  0.00  0.00     0.002 A 
ATOM     22  C   UNL d   1     -50.764  27.479  34.052  0.00  0.00     0.002 A 
ENDBRANCH   1  14
TORSDOF 1
ENDMDL
