MODEL 1
REMARK VINA RESULT:      16.8      0.000      0.000
REMARK  5 active torsions:
REMARK  status: ('A' for Active; 'I' for Inactive)
REMARK       I    between atoms: N_2  and  C_5 
REMARK    1  A    between atoms: C_3  and  N_2 
REMARK    2  A    between atoms: C_14  and  C_4 
REMARK    3  A    between atoms: C_5  and  C_13 
REMARK    4  A    between atoms: C_17  and  C_6 
REMARK    5  A    between atoms: C_13  and  C_14 
ROOT
ATOM      1  N   UNL d   1      44.680 -15.324  44.899  0.00  0.00    -0.208 NA
ATOM      2  C   UNL d   1      44.944 -16.085  44.766  0.00  0.00     0.279 C 
ATOM      3  O   UNL d   1      44.459 -16.732  44.952  0.00  0.00    -0.265 OA
ENDROOT
BRANCH   2   4
ATOM      4  C   UNL d   1      45.694 -16.212  44.448  0.00  0.00     0.065 C 
BRANCH   4   5
ATOM      5  C   UNL d   1      46.126 -16.884  44.657  0.00  0.00     0.030 C 
BRANCH   5   6
ATOM      6  C   UNL d   1      46.250 -17.481  44.108  0.00  0.00     0.100 A 
ATOM      7  O   UNL d   1      46.398 -18.283  44.276  0.00  0.00    -0.307 OA
ATOM      8  C   UNL d   1      46.487 -18.680  43.567  0.00  0.00     0.100 A 
ATOM      9  C   UNL d   1      46.397 -18.136  42.953  0.00  0.00     0.027 A 
ATOM     10  C   UNL d   1      46.251 -17.399  43.292  0.00  0.00     0.027 A 
BRANCH   8  11
ATOM     11  C   UNL d   1      46.640 -19.482  43.487  0.00  0.00     0.025 C 
ATOM     12  C   UNL d   1      46.269 -20.025  43.989  0.00  0.00     0.002 C 
ENDBRANCH   8  11
ENDBRANCH   5   6
ENDBRANCH   4   5
ENDBRANCH   2   4
BRANCH   1  13
ATOM     13  C   UNL d   1      45.163 -14.679  44.714  0.00  0.00     0.085 A 
ATOM     14  C   UNL d   1      44.854 -14.047  44.289  0.00  0.00     0.018 A 
ATOM     15  C   UNL d   1      45.335 -13.407  44.106  0.00  0.00     0.002 A 
ATOM     16  C   UNL d   1      44.062 -14.058  44.050  0.00  0.00     0.002 C 
ATOM     17  C   UNL d   1      46.124 -13.402  44.348  0.00  0.00     0.000 A 
ATOM     18  C   UNL d   1      46.433 -14.035  44.772  0.00  0.00     0.002 A 
ATOM     19  C   UNL d   1      46.609 -12.754  44.161  0.00  0.00     0.000 C 
ATOM     20  C   UNL d   1      45.941 -14.680  44.955  0.00  0.00     0.019 A 
ENDBRANCH   1  13
TORSDOF 5
ENDMDL
