MODEL 1
REMARK VINA RESULT:      -1.8      0.000      0.000
REMARK  7 active torsions:
REMARK  status: ('A' for Active; 'I' for Inactive)
REMARK    1  A    between atoms: C_6  and  N_2 
REMARK    2  A    between atoms: C_7  and  C_3 
REMARK    3  A    between atoms: C_8  and  C_6 
REMARK    4  A    between atoms: O_13  and  C_7 
REMARK    5  A    between atoms: C_14  and  C_8 
REMARK    6  A    between atoms: C_9  and  O_12 
REMARK    7  A    between atoms: O_12  and  C_14 
ROOT
ATOM      1  N   UNL d   1      33.231  21.859 -22.239  0.00  0.00    -0.225 NA
ATOM      2  N   UNL d   1      33.237  20.694 -22.950  0.00  0.00    -0.287 N 
ATOM      3  C   UNL d   1      33.234  21.019 -22.171  0.00  0.00     0.172 A 
ATOM      4  C   UNL d   1      33.236  21.319 -23.500  0.00  0.00     0.083 A 
ATOM      5  C   UNL d   1      33.232  22.040 -23.060  0.00  0.00     0.099 A 
ATOM      6  C   UNL d   1      33.238  21.345 -24.327  0.00  0.00     0.019 A 
ATOM      7  C   UNL d   1      33.230  22.768 -23.459  0.00  0.00     0.021 A 
ATOM      8  C   UNL d   1      33.236  22.080 -24.722  0.00  0.00     0.002 A 
ATOM      9  C   UNL d   1      33.232  22.789 -24.289  0.00  0.00     0.002 A 
ENDROOT
BRANCH   2  10
ATOM     10  C   UNL d   1      33.240  19.866 -22.966  0.00  0.00     0.084 C 
BRANCH  10  11
ATOM     11  C   UNL d   1      32.705  19.469 -23.453  0.00  0.00     0.046 C 
BRANCH  11  12
ATOM     12  C   UNL d   1      32.665  18.655 -23.432  0.00  0.00     0.124 C 
BRANCH  12  13
ATOM     13  O   UNL d   1      32.265  18.253 -24.025  0.00  0.00    -0.305 OA
BRANCH  13  14
ATOM     14  C   UNL d   1      32.086  17.455 -23.932  0.00  0.00     0.100 A 
ATOM     15  C   UNL d   1      32.653  16.945 -23.649  0.00  0.00     0.025 A 
ATOM     16  C   UNL d   1      32.479  16.159 -23.556  0.00  0.00     0.002 A 
ATOM     17  C   UNL d   1      31.723  15.872 -23.749  0.00  0.00     0.000 A 
ATOM     18  C   UNL d   1      31.158  16.397 -24.033  0.00  0.00     0.002 A 
ATOM     19  C   UNL d   1      31.344  17.188 -24.123  0.00  0.00     0.025 A 
ENDBRANCH  13  14
ENDBRANCH  12  13
ENDBRANCH  11  12
ENDBRANCH  10  11
ENDBRANCH   2  10
BRANCH   3  20
ATOM     20  C   UNL d   1      33.233  20.724 -21.498  0.00  0.00     0.154 C 
BRANCH  20  21
ATOM     21  O   UNL d   1      32.995  21.103 -20.812  0.00  0.00    -0.323 OA
ATOM     22  C   UNL d   1      33.104  20.943 -20.008  0.00  0.00     0.182 C 
ENDBRANCH  20  21
ENDBRANCH   3  20
TORSDOF 7
ENDMDL
MODEL 2
REMARK VINA RESULT:       1.0      2.128      3.534
REMARK  7 active torsions:
REMARK  status: ('A' for Active; 'I' for Inactive)
REMARK    1  A    between atoms: C_6  and  N_2 
REMARK    2  A    between atoms: C_7  and  C_3 
REMARK    3  A    between atoms: C_8  and  C_6 
REMARK    4  A    between atoms: O_13  and  C_7 
REMARK    5  A    between atoms: C_14  and  C_8 
REMARK    6  A    between atoms: C_9  and  O_12 
REMARK    7  A    between atoms: O_12  and  C_14 
ROOT
ATOM      1  N   UNL d   1      32.931  17.888 -22.469  0.00  0.00    -0.225 NA
ATOM      2  N   UNL d   1      32.280  18.120 -23.645  0.00  0.00    -0.287 N 
ATOM      3  C   UNL d   1      32.551  17.516 -23.123  0.00  0.00     0.172 A 
ATOM      4  C   UNL d   1      32.484  18.861 -23.325  0.00  0.00     0.083 A 
ATOM      5  C   UNL d   1      32.887  18.717 -22.597  0.00  0.00     0.099 A 
ATOM      6  C   UNL d   1      32.368  19.639 -23.581  0.00  0.00     0.019 A 
ATOM      7  C   UNL d   1      33.163  19.355 -22.143  0.00  0.00     0.021 A 
ATOM      8  C   UNL d   1      32.647  20.276 -23.120  0.00  0.00     0.002 A 
ATOM      9  C   UNL d   1      33.044  20.135 -22.404  0.00  0.00     0.002 A 
ENDROOT
BRANCH   2  10
ATOM     10  C   UNL d   1      31.893  17.832 -24.318  0.00  0.00     0.084 C 
BRANCH  10  11
ATOM     11  C   UNL d   1      31.072  17.746 -24.308  0.00  0.00     0.046 C 
BRANCH  11  12
ATOM     12  C   UNL d   1      30.732  17.068 -24.605  0.00  0.00     0.124 C 
BRANCH  12  13
ATOM     13  O   UNL d   1      30.035  17.120 -25.037  0.00  0.00    -0.305 OA
BRANCH  13  14
ATOM     14  C   UNL d   1      29.356  16.742 -24.766  0.00  0.00     0.100 A 
ATOM     15  C   UNL d   1      28.809  17.159 -24.331  0.00  0.00     0.025 A 
ATOM     16  C   UNL d   1      28.139  16.789 -24.064  0.00  0.00     0.002 A 
ATOM     17  C   UNL d   1      28.009  15.985 -24.232  0.00  0.00     0.000 A 
ATOM     18  C   UNL d   1      28.569  15.575 -24.672  0.00  0.00     0.002 A 
ATOM     19  C   UNL d   1      29.241  15.958 -24.937  0.00  0.00     0.025 A 
ENDBRANCH  13  14
ENDBRANCH  12  13
ENDBRANCH  11  12
ENDBRANCH  10  11
ENDBRANCH   2  10
BRANCH   3  20
ATOM     20  C   UNL d   1      32.519  16.782 -23.136  0.00  0.00     0.154 C 
BRANCH  20  21
ATOM     21  O   UNL d   1      33.063  16.275 -22.790  0.00  0.00    -0.323 OA
ATOM     22  C   UNL d   1      33.150  15.453 -22.789  0.00  0.00     0.182 C 
ENDBRANCH  20  21
ENDBRANCH   3  20
TORSDOF 7
ENDMDL
