MODEL 1
REMARK VINA RESULT:     105.3      0.000      0.000
REMARK  6 active torsions:
REMARK  status: ('A' for Active; 'I' for Inactive)
REMARK    1  A    between atoms: N_2  and  C_1 
REMARK       I    between atoms: C_4  and  N_2 
REMARK    2  A    between atoms: C_21  and  N_2 
REMARK    3  A    between atoms: C_6  and  C_4 
REMARK    4  A    between atoms: C_23  and  C_21 
REMARK    5  A    between atoms: C_25  and  C_23 
REMARK    6  A    between atoms: N_24  and  C_25 
ROOT
ATOM      1  N   UNL d   1      59.276  48.305  50.677  0.00  0.00    -0.252 N 
ATOM      2  C   UNL d   1      58.501  48.108  50.462  0.00  0.00     0.272 C 
ATOM      3  O   UNL d   1      58.348  47.429  50.035  0.00  0.00    -0.266 OA
ENDROOT
BRANCH   1   4
ATOM      4  C   UNL d   1      59.901  47.799  50.452  0.00  0.00     0.182 A 
ATOM      5  N   UNL d   1      60.020  47.028  50.727  0.00  0.00    -0.222 NA
ATOM      6  C   UNL d   1      60.701  46.726  50.364  0.00  0.00     0.092 A 
ATOM      7  C   UNL d   1      61.074  46.006  50.427  0.00  0.00     0.046 A 
ATOM      8  C   UNL d   1      60.999  47.311  49.867  0.00  0.00     0.052 A 
ATOM      9  C   UNL d   1      61.759  45.850  49.992  0.00  0.00     0.121 A 
ATOM     10  O   UNL d   1      62.245  45.199  49.939  0.00  0.00    -0.299 OA
ATOM     11  C   UNL d   1      62.054  46.434  49.497  0.00  0.00     0.120 A 
ATOM     12  C   UNL d   1      62.846  45.375  49.409  0.00  0.00     0.304 A 
ATOM     13  O   UNL d   1      62.733  46.135  49.134  0.00  0.00    -0.300 OA
ATOM     14  C   UNL d   1      61.679  47.166  49.430  0.00  0.00     0.034 A 
ATOM     15  S   UNL d   1      60.509  47.977  49.916  0.00  0.00    -0.048 SA
ENDBRANCH   1   4
BRANCH   1  16
ATOM     16  C   UNL d   1      59.431  48.991  51.109  0.00  0.00     0.086 C 
BRANCH  16  17
ATOM     17  C   UNL d   1      60.040  48.994  51.674  0.00  0.00     0.038 C 
BRANCH  17  18
ATOM     18  C   UNL d   1      60.469  49.687  51.811  0.00  0.00     0.082 C 
BRANCH  18  19
ATOM     19  N   UNL d   1      61.078  49.693  52.365  0.00  0.00    -0.300 N 
ATOM     20  C   UNL d   1      60.900  49.708  53.170  0.00  0.00     0.100 C 
ATOM     21  C   UNL d   1      61.864  49.683  52.115  0.00  0.00     0.100 C 
ENDBRANCH  18  19
ENDBRANCH  17  18
ENDBRANCH  16  17
ENDBRANCH   1  16
BRANCH   2  22
ATOM     22  C   UNL d   1      57.884  48.612  50.688  0.00  0.00     0.087 A 
ATOM     23  S   UNL d   1      57.255  48.433  51.207  0.00  0.00    -0.071 SA
ATOM     24  C   UNL d   1      56.776  49.108  51.263  0.00  0.00     0.087 A 
ATOM     25 CL   UNL d   1      56.076  49.188  51.725  0.00  0.00    -0.075 Cl
ATOM     26  C   UNL d   1      57.105  49.691  50.787  0.00  0.00     0.019 A 
ATOM     27  C   UNL d   1      57.782  49.391  50.434  0.00  0.00     0.013 A 
ENDBRANCH   2  22
TORSDOF 6
ENDMDL
