MODEL 1
REMARK VINA RESULT:      39.1      0.000      0.000
REMARK  5 active torsions:
REMARK  status: ('A' for Active; 'I' for Inactive)
REMARK    1  A    between atoms: C_2  and  C_1 
REMARK    2  A    between atoms: C_5  and  C_2 
REMARK    3  A    between atoms: C_9  and  C_5 
REMARK    4  A    between atoms: O_18  and  C_12 
REMARK    5  A    between atoms: O_19  and  C_14 
ROOT
ATOM      1  C   UNL d   1      14.686  13.014  -1.572  0.00  0.00     0.141 C 
ATOM      2  C   UNL d   1      15.274  12.432  -1.523  0.00  0.00     0.107 C 
ATOM      3  N   UNL d   1      15.878  11.845  -1.470  0.00  0.00    -0.191 NA
ENDROOT
BRANCH   1   4
ATOM      4  C   UNL d   1      14.853  13.786  -1.367  0.00  0.00     0.161 A 
ATOM      5  N   UNL d   1      15.190  14.026  -0.633  0.00  0.00    -0.287 N 
ATOM      6  C   UNL d   1      15.265  14.859  -0.657  0.00  0.00     0.083 A 
ATOM      7  C   UNL d   1      15.401  13.530  -0.017  0.00  0.00     0.101 C 
ATOM      8  C   UNL d   1      15.547  15.409  -0.126  0.00  0.00     0.019 A 
ATOM      9  C   UNL d   1      14.976  15.118  -1.398  0.00  0.00     0.099 A 
ATOM     10  C   UNL d   1      15.556  16.208  -0.299  0.00  0.00     0.002 A 
ATOM     11  C   UNL d   1      15.267  16.467  -1.040  0.00  0.00     0.002 A 
ATOM     12  C   UNL d   1      14.976  15.920  -1.591  0.00  0.00     0.021 A 
ATOM     13  N   UNL d   1      14.728  14.440  -1.819  0.00  0.00    -0.226 NA
ENDBRANCH   1   4
BRANCH   1  14
ATOM     14  C   UNL d   1      13.932  12.803  -1.830  0.00  0.00     0.208 C 
ATOM     15  O   UNL d   1      13.346  12.662  -1.273  0.00  0.00    -0.286 OA
BRANCH  14  16
ATOM     16  C   UNL d   1      13.771  12.735  -2.632  0.00  0.00     0.042 A 
ATOM     17  C   UNL d   1      13.677  13.405  -3.098  0.00  0.00     0.029 A 
ATOM     18  C   UNL d   1      13.517  13.338  -3.895  0.00  0.00     0.116 A 
ATOM     19  C   UNL d   1      13.446  12.599  -4.247  0.00  0.00     0.116 A 
ATOM     20  C   UNL d   1      13.540  11.925  -3.780  0.00  0.00     0.026 A 
ATOM     21  C   UNL d   1      13.700  11.992  -2.983  0.00  0.00     0.005 A 
BRANCH  18  22
ATOM     22  O   UNL d   1      13.428  14.018  -4.336  0.00  0.00    -0.326 OA
ATOM     23  C   UNL d   1      12.771  14.525  -4.219  0.00  0.00     0.181 C 
ENDBRANCH  18  22
BRANCH  19  24
ATOM     24  O   UNL d   1      13.287  12.532  -5.039  0.00  0.00    -0.326 OA
ATOM     25  C   UNL d   1      13.238  11.780  -5.395  0.00  0.00     0.181 C 
ENDBRANCH  19  24
ENDBRANCH  14  16
ENDBRANCH   1  14
TORSDOF 5
ENDMDL
