MODEL 1
REMARK VINA RESULT:      -3.4      0.000      0.000
REMARK  2 active torsions:
REMARK  status: ('A' for Active; 'I' for Inactive)
REMARK    1  A    between atoms: C_7  and  C_2 
REMARK    2  A    between atoms: C_6  and  N_3 
ROOT
ATOM      1  C   UNL d   1      32.967  20.523 -22.180  0.00  0.00     0.085 A 
ATOM      2  C   UNL d   1      32.888  20.292 -22.956  0.00  0.00     0.019 A 
ATOM      3  C   UNL d   1      32.978  19.499 -23.166  0.00  0.00     0.002 A 
ATOM      4  C   UNL d   1      33.144  19.939 -21.591  0.00  0.00     0.019 A 
ATOM      5  C   UNL d   1      33.150  18.931 -22.592  0.00  0.00     0.000 A 
ATOM      6  C   UNL d   1      33.235  19.143 -21.796  0.00  0.00     0.002 A 
ATOM      7  C   UNL d   1      32.893  19.294 -23.945  0.00  0.00     0.000 A 
ATOM      8  C   UNL d   1      33.241  18.146 -22.785  0.00  0.00     0.000 A 
ATOM      9  C   UNL d   1      32.978  18.518 -24.170  0.00  0.00     0.000 A 
ATOM     10  C   UNL d   1      33.155  17.934 -23.581  0.00  0.00     0.000 A 
ENDROOT
BRANCH   1  11
ATOM     11  N   UNL d   1      32.882  21.308 -21.947  0.00  0.00    -0.210 N 
ATOM     12  C   UNL d   1      32.469  21.638 -21.324  0.00  0.00     0.191 A 
ATOM     13  C   UNL d   1      32.573  22.430 -21.353  0.00  0.00     0.118 A 
ATOM     14  N   UNL d   1      32.030  21.218 -20.773  0.00  0.00    -0.127 N 
ATOM     15  C   UNL d   1      33.055  22.614 -21.997  0.00  0.00     0.129 A 
ATOM     16  N   UNL d   1      33.239  21.927 -22.354  0.00  0.00    -0.162 NA
BRANCH  13  17
ATOM     17  C   UNL d   1      32.246  22.970 -20.818  0.00  0.00     0.301 C 
ATOM     18  O   UNL d   1      31.542  23.298 -21.006  0.00  0.00    -0.263 OA
ATOM     19  N   UNL d   1      32.626  23.152 -20.141  0.00  0.00    -0.102 N 
ENDBRANCH  13  17
ENDBRANCH   1  11
TORSDOF 2
ENDMDL
MODEL 2
REMARK VINA RESULT:      -3.3      4.308      5.710
REMARK  2 active torsions:
REMARK  status: ('A' for Active; 'I' for Inactive)
REMARK    1  A    between atoms: C_7  and  C_2 
REMARK    2  A    between atoms: C_6  and  N_3 
ROOT
ATOM      1  C   UNL d   1      30.801  17.016 -24.108  0.00  0.00     0.085 A 
ATOM      2  C   UNL d   1      31.319  17.249 -23.527  0.00  0.00     0.019 A 
ATOM      3  C   UNL d   1      31.964  17.729 -23.711  0.00  0.00     0.002 A 
ATOM      4  C   UNL d   1      30.932  17.271 -24.906  0.00  0.00     0.019 A 
ATOM      5  C   UNL d   1      32.092  17.978 -24.488  0.00  0.00     0.000 A 
ATOM      6  C   UNL d   1      31.578  17.753 -25.097  0.00  0.00     0.002 A 
ATOM      7  C   UNL d   1      32.466  17.948 -23.114  0.00  0.00     0.000 A 
ATOM      8  C   UNL d   1      32.725  18.451 -24.684  0.00  0.00     0.000 A 
ATOM      9  C   UNL d   1      33.107  18.420 -23.278  0.00  0.00     0.000 A 
ATOM     10  C   UNL d   1      33.239  18.676 -24.075  0.00  0.00     0.000 A 
ENDROOT
BRANCH   1  11
ATOM     11  N   UNL d   1      30.150  16.537 -23.948  0.00  0.00    -0.210 N 
ATOM     12  C   UNL d   1      29.350  16.683 -24.022  0.00  0.00     0.191 A 
ATOM     13  C   UNL d   1      28.959  16.025 -23.789  0.00  0.00     0.118 A 
ATOM     14  N   UNL d   1      29.019  17.384 -24.290  0.00  0.00    -0.127 N 
ATOM     15  C   UNL d   1      29.508  15.453 -23.563  0.00  0.00     0.129 A 
ATOM     16  N   UNL d   1      30.230  15.770 -23.662  0.00  0.00    -0.162 NA
BRANCH  13  17
ATOM     17  C   UNL d   1      28.135  15.943 -23.779  0.00  0.00     0.301 C 
ATOM     18  O   UNL d   1      27.730  16.333 -23.213  0.00  0.00    -0.263 OA
ATOM     19  N   UNL d   1      27.766  15.489 -24.321  0.00  0.00    -0.102 N 
ENDBRANCH  13  17
ENDBRANCH   1  11
TORSDOF 2
ENDMDL
MODEL 3
REMARK VINA RESULT:      -3.2      3.081      4.787
REMARK  2 active torsions:
REMARK  status: ('A' for Active; 'I' for Inactive)
REMARK    1  A    between atoms: C_7  and  C_2 
REMARK    2  A    between atoms: C_6  and  N_3 
ROOT
ATOM      1  C   UNL d   1      32.757  18.488 -23.443  0.00  0.00     0.085 A 
ATOM      2  C   UNL d   1      32.739  18.785 -22.686  0.00  0.00     0.019 A 
ATOM      3  C   UNL d   1      32.900  19.582 -22.548  0.00  0.00     0.002 A 
ATOM      4  C   UNL d   1      32.942  19.007 -24.087  0.00  0.00     0.019 A 
ATOM      5  C   UNL d   1      33.080  20.089 -23.175  0.00  0.00     0.000 A 
ATOM      6  C   UNL d   1      33.104  19.808 -23.954  0.00  0.00     0.002 A 
ATOM      7  C   UNL d   1      32.876  19.854 -21.785  0.00  0.00     0.000 A 
ATOM      8  C   UNL d   1      33.240  20.877 -23.053  0.00  0.00     0.000 A 
ATOM      9  C   UNL d   1      33.031  20.637 -21.630  0.00  0.00     0.000 A 
ATOM     10  C   UNL d   1      33.216  21.157 -22.274  0.00  0.00     0.000 A 
ENDROOT
BRANCH   1  11
ATOM     11  N   UNL d   1      32.601  17.696 -23.605  0.00  0.00    -0.210 N 
ATOM     12  C   UNL d   1      31.917  17.329 -23.862  0.00  0.00     0.191 A 
ATOM     13  C   UNL d   1      32.071  16.547 -23.931  0.00  0.00     0.118 A 
ATOM     14  N   UNL d   1      31.207  17.707 -24.018  0.00  0.00    -0.127 N 
ATOM     15  C   UNL d   1      32.856  16.408 -23.718  0.00  0.00     0.129 A 
ATOM     16  N   UNL d   1      33.172  17.110 -23.521  0.00  0.00    -0.162 NA
BRANCH  13  17
ATOM     17  C   UNL d   1      31.523  15.977 -24.177  0.00  0.00     0.301 C 
ATOM     18  O   UNL d   1      30.984  15.726 -23.644  0.00  0.00    -0.263 OA
ATOM     19  N   UNL d   1      31.539  15.694 -24.923  0.00  0.00    -0.102 N 
ENDBRANCH  13  17
ENDBRANCH   1  11
TORSDOF 2
ENDMDL
MODEL 4
REMARK VINA RESULT:      -3.1      3.943      5.197
REMARK  2 active torsions:
REMARK  status: ('A' for Active; 'I' for Inactive)
REMARK    1  A    between atoms: C_7  and  C_2 
REMARK    2  A    between atoms: C_6  and  N_3 
ROOT
ATOM      1  C   UNL d   1      30.852  16.703 -23.987  0.00  0.00     0.085 A 
ATOM      2  C   UNL d   1      30.100  16.919 -24.209  0.00  0.00     0.019 A 
ATOM      3  C   UNL d   1      29.446  16.506 -23.922  0.00  0.00     0.002 A 
ATOM      4  C   UNL d   1      30.955  16.049 -23.458  0.00  0.00     0.019 A 
ATOM      5  C   UNL d   1      29.546  15.869 -23.407  0.00  0.00     0.000 A 
ATOM      6  C   UNL d   1      30.302  15.631 -23.167  0.00  0.00     0.002 A 
ATOM      7  C   UNL d   1      28.707  16.741 -24.158  0.00  0.00     0.000 A 
ATOM      8  C   UNL d   1      28.910  15.453 -23.117  0.00  0.00     0.000 A 
ATOM      9  C   UNL d   1      28.051  16.345 -23.886  0.00  0.00     0.000 A 
ATOM     10  C   UNL d   1      28.154  15.691 -23.357  0.00  0.00     0.000 A 
ENDROOT
BRANCH   1  11
ATOM     11  N   UNL d   1      31.519  17.101 -24.260  0.00  0.00    -0.210 N 
ATOM     12  C   UNL d   1      31.836  17.822 -24.045  0.00  0.00     0.191 A 
ATOM     13  C   UNL d   1      32.492  17.943 -24.487  0.00  0.00     0.118 A 
ATOM     14  N   UNL d   1      31.526  18.324 -23.475  0.00  0.00    -0.127 N 
ATOM     15  C   UNL d   1      32.600  17.298 -24.990  0.00  0.00     0.129 A 
ATOM     16  N   UNL d   1      32.005  16.789 -24.847  0.00  0.00    -0.162 NA
BRANCH  13  17
ATOM     17  C   UNL d   1      32.977  18.612 -24.440  0.00  0.00     0.301 C 
ATOM     18  O   UNL d   1      33.241  18.829 -23.718  0.00  0.00    -0.263 OA
ATOM     19  N   UNL d   1      33.170  19.021 -25.097  0.00  0.00    -0.102 N 
ENDBRANCH  13  17
ENDBRANCH   1  11
TORSDOF 2
ENDMDL
MODEL 5
REMARK VINA RESULT:      -2.5      0.734      1.318
REMARK  2 active torsions:
REMARK  status: ('A' for Active; 'I' for Inactive)
REMARK    1  A    between atoms: C_7  and  C_2 
REMARK    2  A    between atoms: C_6  and  N_3 
ROOT
ATOM      1  C   UNL d   1      33.053  20.298 -22.243  0.00  0.00     0.085 A 
ATOM      2  C   UNL d   1      32.946  19.494 -22.198  0.00  0.00     0.019 A 
ATOM      3  C   UNL d   1      32.983  19.029 -22.878  0.00  0.00     0.002 A 
ATOM      4  C   UNL d   1      33.203  20.653 -22.999  0.00  0.00     0.019 A 
ATOM      5  C   UNL d   1      33.129  19.375 -23.614  0.00  0.00     0.000 A 
ATOM      6  C   UNL d   1      33.241  20.193 -23.685  0.00  0.00     0.002 A 
ATOM      7  C   UNL d   1      32.872  18.230 -22.807  0.00  0.00     0.000 A 
ATOM      8  C   UNL d   1      33.168  18.928 -24.293  0.00  0.00     0.000 A 
ATOM      9  C   UNL d   1      32.906  17.757 -23.467  0.00  0.00     0.000 A 
ATOM     10  C   UNL d   1      33.056  18.112 -24.222  0.00  0.00     0.000 A 
ENDROOT
BRANCH   1  11
ATOM     11  N   UNL d   1      33.020  20.782 -21.578  0.00  0.00    -0.210 N 
ATOM     12  C   UNL d   1      32.788  21.561 -21.495  0.00  0.00     0.191 A 
ATOM     13  C   UNL d   1      32.865  21.759 -20.724  0.00  0.00     0.118 A 
ATOM     14  N   UNL d   1      32.523  22.043 -22.104  0.00  0.00    -0.127 N 
ATOM     15  C   UNL d   1      33.149  21.106 -20.307  0.00  0.00     0.129 A 
ATOM     16  N   UNL d   1      33.241  20.516 -20.832  0.00  0.00    -0.162 NA
BRANCH  13  17
ATOM     17  C   UNL d   1      32.687  22.502 -20.407  0.00  0.00     0.301 C 
ATOM     18  O   UNL d   1      31.965  22.603 -20.082  0.00  0.00    -0.263 OA
ATOM     19  N   UNL d   1      33.223  23.093 -20.428  0.00  0.00    -0.102 N 
ENDBRANCH  13  17
ENDBRANCH   1  11
TORSDOF 2
ENDMDL
MODEL 6
REMARK VINA RESULT:      -2.4      1.813      2.702
REMARK  2 active torsions:
REMARK  status: ('A' for Active; 'I' for Inactive)
REMARK    1  A    between atoms: C_7  and  C_2 
REMARK    2  A    between atoms: C_6  and  N_3 
ROOT
ATOM      1  C   UNL d   1      32.659  18.344 -23.448  0.00  0.00     0.085 A 
ATOM      2  C   UNL d   1      31.970  18.114 -23.814  0.00  0.00     0.019 A 
ATOM      3  C   UNL d   1      31.795  17.313 -23.906  0.00  0.00     0.002 A 
ATOM      4  C   UNL d   1      33.194  17.751 -23.163  0.00  0.00     0.019 A 
ATOM      5  C   UNL d   1      32.316  16.736 -23.628  0.00  0.00     0.000 A 
ATOM      6  C   UNL d   1      33.023  16.947 -23.252  0.00  0.00     0.002 A 
ATOM      7  C   UNL d   1      31.103  17.109 -24.274  0.00  0.00     0.000 A 
ATOM      8  C   UNL d   1      32.156  15.942 -23.713  0.00  0.00     0.000 A 
ATOM      9  C   UNL d   1      30.914  16.325 -24.374  0.00  0.00     0.000 A 
ATOM     10  C   UNL d   1      31.449  15.732 -24.089  0.00  0.00     0.000 A 
ENDROOT
BRANCH   1  11
ATOM     11  N   UNL d   1      32.855  19.137 -23.344  0.00  0.00    -0.210 N 
ATOM     12  C   UNL d   1      32.865  19.601 -22.672  0.00  0.00     0.191 A 
ATOM     13  C   UNL d   1      33.099  20.336 -22.885  0.00  0.00     0.118 A 
ATOM     14  N   UNL d   1      32.667  19.346 -21.918  0.00  0.00    -0.127 N 
ATOM     15  C   UNL d   1      33.241  20.347 -23.697  0.00  0.00     0.129 A 
ATOM     16  N   UNL d   1      33.090  19.615 -23.971  0.00  0.00    -0.162 NA
BRANCH  13  17
ATOM     17  C   UNL d   1      33.182  20.974 -22.365  0.00  0.00     0.301 C 
ATOM     18  O   UNL d   1      33.229  20.814 -21.584  0.00  0.00    -0.263 OA
ATOM     19  N   UNL d   1      33.215  21.722 -22.642  0.00  0.00    -0.102 N 
ENDBRANCH  13  17
ENDBRANCH   1  11
TORSDOF 2
ENDMDL
MODEL 7
REMARK VINA RESULT:      -2.0      2.193      4.835
REMARK  2 active torsions:
REMARK  status: ('A' for Active; 'I' for Inactive)
REMARK    1  A    between atoms: C_7  and  C_2 
REMARK    2  A    between atoms: C_6  and  N_3 
ROOT
ATOM      1  C   UNL d   1      32.602  22.849 -19.733  0.00  0.00     0.085 A 
ATOM      2  C   UNL d   1      33.009  22.585 -19.081  0.00  0.00     0.019 A 
ATOM      3  C   UNL d   1      32.820  22.864 -18.329  0.00  0.00     0.002 A 
ATOM      4  C   UNL d   1      31.980  23.416 -19.629  0.00  0.00     0.019 A 
ATOM      5  C   UNL d   1      32.214  23.416 -18.227  0.00  0.00     0.000 A 
ATOM      6  C   UNL d   1      31.785  23.701 -18.877  0.00  0.00     0.002 A 
ATOM      7  C   UNL d   1      33.241  22.585 -17.695  0.00  0.00     0.000 A 
ATOM      8  C   UNL d   1      32.016  23.701 -17.491  0.00  0.00     0.000 A 
ATOM      9  C   UNL d   1      33.067  22.850 -16.946  0.00  0.00     0.000 A 
ATOM     10  C   UNL d   1      32.445  23.417 -16.843  0.00  0.00     0.000 A 
ENDROOT
BRANCH   1  11
ATOM     11  N   UNL d   1      32.773  22.585 -20.493  0.00  0.00    -0.210 N 
ATOM     12  C   UNL d   1      32.638  21.862 -20.850  0.00  0.00     0.191 A 
ATOM     13  C   UNL d   1      32.916  21.903 -21.599  0.00  0.00     0.118 A 
ATOM     14  N   UNL d   1      32.281  21.217 -20.491  0.00  0.00    -0.127 N 
ATOM     15  C   UNL d   1      33.231  22.655 -21.728  0.00  0.00     0.129 A 
ATOM     16  N   UNL d   1      33.141  23.064 -21.051  0.00  0.00    -0.162 NA
BRANCH  13  17
ATOM     17  C   UNL d   1      32.887  21.285 -22.149  0.00  0.00     0.301 C 
ATOM     18  O   UNL d   1      32.839  21.478 -22.922  0.00  0.00    -0.263 OA
ATOM     19  N   UNL d   1      32.906  20.525 -21.906  0.00  0.00    -0.102 N 
ENDBRANCH  13  17
ENDBRANCH   1  11
TORSDOF 2
ENDMDL
MODEL 8
REMARK VINA RESULT:      -1.8      1.978      3.966
REMARK  2 active torsions:
REMARK  status: ('A' for Active; 'I' for Inactive)
REMARK    1  A    between atoms: C_7  and  C_2 
REMARK    2  A    between atoms: C_6  and  N_3 
ROOT
ATOM      1  C   UNL d   1      33.008  20.575 -21.959  0.00  0.00     0.085 A 
ATOM      2  C   UNL d   1      32.732  21.337 -22.028  0.00  0.00     0.019 A 
ATOM      3  C   UNL d   1      32.680  21.824 -21.365  0.00  0.00     0.002 A 
ATOM      4  C   UNL d   1      33.241  20.288 -21.196  0.00  0.00     0.019 A 
ATOM      5  C   UNL d   1      32.907  21.544 -20.622  0.00  0.00     0.000 A 
ATOM      6  C   UNL d   1      33.191  20.772 -20.526  0.00  0.00     0.002 A 
ATOM      7  C   UNL d   1      32.402  22.579 -21.461  0.00  0.00     0.000 A 
ATOM      8  C   UNL d   1      32.860  22.014 -19.959  0.00  0.00     0.000 A 
ATOM      9  C   UNL d   1      32.344  23.072 -20.817  0.00  0.00     0.000 A 
ATOM     10  C   UNL d   1      32.577  22.785 -20.054  0.00  0.00     0.000 A 
ENDROOT
BRANCH   1  11
ATOM     11  N   UNL d   1      33.069  20.071 -22.607  0.00  0.00    -0.210 N 
ATOM     12  C   UNL d   1      33.010  19.258 -22.658  0.00  0.00     0.191 A 
ATOM     13  C   UNL d   1      33.114  19.052 -23.424  0.00  0.00     0.118 A 
ATOM     14  N   UNL d   1      32.869  18.753 -22.027  0.00  0.00    -0.127 N 
ATOM     15  C   UNL d   1      33.241  19.734 -23.870  0.00  0.00     0.129 A 
ATOM     16  N   UNL d   1      33.212  20.350 -23.367  0.00  0.00    -0.162 NA
BRANCH  13  17
ATOM     17  C   UNL d   1      33.096  18.276 -23.712  0.00  0.00     0.301 C 
ATOM     18  O   UNL d   1      33.160  17.683 -23.182  0.00  0.00    -0.263 OA
ATOM     19  N   UNL d   1      33.017  18.135 -24.493  0.00  0.00    -0.102 N 
ENDBRANCH  13  17
ENDBRANCH   1  11
TORSDOF 2
ENDMDL
MODEL 9
REMARK VINA RESULT:      -1.5      4.568      5.810
REMARK  2 active torsions:
REMARK  status: ('A' for Active; 'I' for Inactive)
REMARK    1  A    between atoms: C_7  and  C_2 
REMARK    2  A    between atoms: C_6  and  N_3 
ROOT
ATOM      1  C   UNL d   1      30.291  17.556 -24.364  0.00  0.00     0.085 A 
ATOM      2  C   UNL d   1      30.943  17.248 -23.989  0.00  0.00     0.019 A 
ATOM      3  C   UNL d   1      31.691  17.566 -24.125  0.00  0.00     0.002 A 
ATOM      4  C   UNL d   1      30.390  18.210 -24.896  0.00  0.00     0.019 A 
ATOM      5  C   UNL d   1      31.789  18.202 -24.643  0.00  0.00     0.000 A 
ATOM      6  C   UNL d   1      31.139  18.533 -25.036  0.00  0.00     0.002 A 
ATOM      7  C   UNL d   1      32.325  17.240 -23.740  0.00  0.00     0.000 A 
ATOM      8  C   UNL d   1      32.521  18.526 -24.786  0.00  0.00     0.000 A 
ATOM      9  C   UNL d   1      33.070  17.541 -23.861  0.00  0.00     0.000 A 
ATOM     10  C   UNL d   1      33.170  18.194 -24.393  0.00  0.00     0.000 A 
ENDROOT
BRANCH   1  11
ATOM     11  N   UNL d   1      29.534  17.255 -24.244  0.00  0.00    -0.210 N 
ATOM     12  C   UNL d   1      29.244  16.496 -24.321  0.00  0.00     0.191 A 
ATOM     13  C   UNL d   1      28.465  16.511 -24.136  0.00  0.00     0.118 A 
ATOM     14  N   UNL d   1      29.683  15.842 -24.548  0.00  0.00    -0.127 N 
ATOM     15  C   UNL d   1      28.251  17.283 -23.939  0.00  0.00     0.129 A 
ATOM     16  N   UNL d   1      28.906  17.731 -24.007  0.00  0.00    -0.162 NA
BRANCH  13  17
ATOM     17  C   UNL d   1      27.964  15.853 -24.144  0.00  0.00     0.301 C 
ATOM     18  O   UNL d   1      27.638  15.626 -23.452  0.00  0.00    -0.263 OA
ATOM     19  N   UNL d   1      27.817  15.463 -24.825  0.00  0.00    -0.102 N 
ENDBRANCH  13  17
ENDBRANCH   1  11
TORSDOF 2
ENDMDL
