MODEL 1
REMARK VINA RESULT:      -7.7      0.000      0.000
REMARK  7 active torsions:
REMARK  status: ('A' for Active; 'I' for Inactive)
REMARK    1  A    between atoms: N_3  and  C_1 
REMARK       I    between atoms: C_7  and  N_3 
REMARK    2  A    between atoms: C_11  and  N_3 
REMARK    3  A    between atoms: S_5  and  C_10 
REMARK    4  A    between atoms: C_14  and  S_5 
REMARK    5  A    between atoms: C_9  and  C_7 
REMARK    6  A    between atoms: C_10  and  C_9 
REMARK    7  A    between atoms: C_18  and  C_11 
ROOT
ATOM      1  N   UNL d   1      51.743  33.674  53.019  0.00  0.00    -0.253 N 
ATOM      2  C   UNL d   1      50.910  33.627  53.096  0.00  0.00     0.267 C 
ATOM      3  O   UNL d   1      50.564  32.915  53.317  0.00  0.00    -0.267 OA
ENDROOT
BRANCH   1   4
ATOM      4  C   UNL d   1      52.204  33.007  53.166  0.00  0.00     0.182 A 
ATOM      5  N   UNL d   1      52.615  32.838  53.868  0.00  0.00    -0.219 NA
ATOM      6  C   UNL d   1      53.004  32.111  53.772  0.00  0.00     0.117 A 
ATOM      7  C   UNL d   1      53.481  31.688  54.283  0.00  0.00     0.158 A 
ATOM      8  C   UNL d   1      52.838  31.833  53.019  0.00  0.00     0.052 A 
ATOM      9  F   UNL d   1      53.649  31.963  55.034  0.00  0.00    -0.203 F 
ATOM     10  C   UNL d   1      53.795  30.976  54.034  0.00  0.00     0.031 A 
ATOM     11  C   UNL d   1      53.634  30.688  53.278  0.00  0.00     0.003 A 
ATOM     12  C   UNL d   1      53.152  31.121  52.771  0.00  0.00     0.008 A 
ATOM     13  S   UNL d   1      52.346  32.380  52.640  0.00  0.00    -0.048 SA
ENDBRANCH   1   4
BRANCH   1  14
ATOM     14  C   UNL d   1      52.097  34.384  52.798  0.00  0.00     0.086 C 
BRANCH  14  15
ATOM     15  C   UNL d   1      52.480  34.848  53.363  0.00  0.00     0.037 A 
ATOM     16  C   UNL d   1      52.093  35.052  54.060  0.00  0.00     0.100 A 
ATOM     17  N   UNL d   1      52.475  35.516  54.625  0.00  0.00    -0.242 NA
ATOM     18  C   UNL d   1      53.244  35.777  54.492  0.00  0.00     0.099 A 
ATOM     19  C   UNL d   1      53.635  35.574  53.792  0.00  0.00     0.021 A 
ATOM     20  C   UNL d   1      53.253  35.109  53.228  0.00  0.00     0.005 A 
ENDBRANCH  14  15
ENDBRANCH   1  14
BRANCH   2  21
ATOM     21  C   UNL d   1      50.453  34.292  52.950  0.00  0.00     0.073 C 
BRANCH  21  22
ATOM     22  C   UNL d   1      49.697  34.203  52.621  0.00  0.00     0.104 C 
BRANCH  22  23
ATOM     23  S   UNL d   1      49.156  34.829  52.654  0.00  0.00     0.211 S 
ATOM     24  O   UNL d   1      49.154  34.875  51.817  0.00  0.00    -0.217 OA
ATOM     25  O   UNL d   1      49.158  34.785  53.486  0.00  0.00    -0.217 OA
BRANCH  23  26
ATOM     26  C   UNL d   1      48.614  35.457  52.685  0.00  0.00     0.088 A 
ATOM     27  C   UNL d   1      48.148  35.627  52.026  0.00  0.00     0.011 A 
ATOM     28  C   UNL d   1      47.609  36.249  52.051  0.00  0.00     0.001 A 
ATOM     29  C   UNL d   1      47.536  36.701  52.736  0.00  0.00     0.000 A 
ATOM     30  C   UNL d   1      47.996  36.536  53.390  0.00  0.00     0.001 A 
ATOM     31  C   UNL d   1      48.540  35.912  53.371  0.00  0.00     0.011 A 
ENDBRANCH  23  26
ENDBRANCH  22  23
ENDBRANCH  21  22
ENDBRANCH   2  21
TORSDOF 7
ENDMDL
MODEL 2
REMARK VINA RESULT:      -7.5      1.738      2.895
REMARK  7 active torsions:
REMARK  status: ('A' for Active; 'I' for Inactive)
REMARK    1  A    between atoms: N_3  and  C_1 
REMARK       I    between atoms: C_7  and  N_3 
REMARK    2  A    between atoms: C_11  and  N_3 
REMARK    3  A    between atoms: S_5  and  C_10 
REMARK    4  A    between atoms: C_14  and  S_5 
REMARK    5  A    between atoms: C_9  and  C_7 
REMARK    6  A    between atoms: C_10  and  C_9 
REMARK    7  A    between atoms: C_18  and  C_11 
ROOT
ATOM      1  N   UNL d   1      52.403  33.278  53.498  0.00  0.00    -0.253 N 
ATOM      2  C   UNL d   1      52.140  33.894  52.995  0.00  0.00     0.267 C 
ATOM      3  O   UNL d   1      52.586  34.581  52.929  0.00  0.00    -0.267 OA
ENDROOT
BRANCH   1   4
ATOM      4  C   UNL d   1      53.104  33.368  53.921  0.00  0.00     0.182 A 
ATOM      5  N   UNL d   1      53.874  33.310  53.614  0.00  0.00    -0.219 NA
ATOM      6  C   UNL d   1      54.411  33.440  54.234  0.00  0.00     0.117 A 
ATOM      7  C   UNL d   1      55.228  33.446  54.242  0.00  0.00     0.158 A 
ATOM      8  C   UNL d   1      53.980  33.576  54.917  0.00  0.00     0.052 A 
ATOM      9  F   UNL d   1      55.661  33.311  53.562  0.00  0.00    -0.203 F 
ATOM     10  C   UNL d   1      55.617  33.592  54.945  0.00  0.00     0.031 A 
ATOM     11  C   UNL d   1      55.191  33.730  55.639  0.00  0.00     0.003 A 
ATOM     12  C   UNL d   1      54.369  33.721  55.621  0.00  0.00     0.008 A 
ATOM     13  S   UNL d   1      53.173  33.533  54.732  0.00  0.00    -0.048 SA
ENDBRANCH   1   4
BRANCH   1  14
ATOM     14  C   UNL d   1      51.961  32.587  53.569  0.00  0.00     0.086 C 
BRANCH  14  15
ATOM     15  C   UNL d   1      52.257  31.875  53.274  0.00  0.00     0.037 A 
ATOM     16  C   UNL d   1      52.565  31.841  52.512  0.00  0.00     0.100 A 
ATOM     17  N   UNL d   1      52.861  31.130  52.217  0.00  0.00    -0.242 NA
ATOM     18  C   UNL d   1      52.849  30.453  52.684  0.00  0.00     0.099 A 
ATOM     19  C   UNL d   1      52.540  30.484  53.451  0.00  0.00     0.021 A 
ATOM     20  C   UNL d   1      52.244  31.196  53.746  0.00  0.00     0.005 A 
ENDBRANCH  14  15
ENDBRANCH   1  14
BRANCH   2  21
ATOM     21  C   UNL d   1      51.442  33.802  52.575  0.00  0.00     0.073 C 
BRANCH  21  22
ATOM     22  C   UNL d   1      51.211  34.386  52.033  0.00  0.00     0.104 C 
BRANCH  22  23
ATOM     23  S   UNL d   1      50.413  34.472  51.833  0.00  0.00     0.211 S 
ATOM     24  O   UNL d   1      50.262  34.829  52.576  0.00  0.00    -0.217 OA
ATOM     25  O   UNL d   1      50.561  34.116  51.095  0.00  0.00    -0.217 OA
BRANCH  23  26
ATOM     26  C   UNL d   1      49.611  34.559  51.635  0.00  0.00     0.088 A 
ATOM     27  C   UNL d   1      49.355  34.374  50.873  0.00  0.00     0.011 A 
ATOM     28  C   UNL d   1      48.562  34.459  50.672  0.00  0.00     0.001 A 
ATOM     29  C   UNL d   1      48.024  34.730  51.234  0.00  0.00     0.000 A 
ATOM     30  C   UNL d   1      48.273  34.914  51.989  0.00  0.00     0.001 A 
ATOM     31  C   UNL d   1      49.070  34.831  52.197  0.00  0.00     0.011 A 
ENDBRANCH  23  26
ENDBRANCH  22  23
ENDBRANCH  21  22
ENDBRANCH   2  21
TORSDOF 7
ENDMDL
MODEL 3
REMARK VINA RESULT:      -6.9      2.277      5.494
REMARK  7 active torsions:
REMARK  status: ('A' for Active; 'I' for Inactive)
REMARK    1  A    between atoms: N_3  and  C_1 
REMARK       I    between atoms: C_7  and  N_3 
REMARK    2  A    between atoms: C_11  and  N_3 
REMARK    3  A    between atoms: S_5  and  C_10 
REMARK    4  A    between atoms: C_14  and  S_5 
REMARK    5  A    between atoms: C_9  and  C_7 
REMARK    6  A    between atoms: C_10  and  C_9 
REMARK    7  A    between atoms: C_18  and  C_11 
ROOT
ATOM      1  N   UNL d   1      52.491  32.404  53.454  0.00  0.00    -0.253 N 
ATOM      2  C   UNL d   1      52.653  31.697  53.033  0.00  0.00     0.267 C 
ATOM      3  O   UNL d   1      52.287  31.565  52.309  0.00  0.00    -0.267 OA
ENDROOT
BRANCH   1   4
ATOM      4  C   UNL d   1      51.968  32.956  53.137  0.00  0.00     0.182 A 
ATOM      5  N   UNL d   1      52.043  33.341  52.405  0.00  0.00    -0.219 NA
ATOM      6  C   UNL d   1      51.394  33.849  52.310  0.00  0.00     0.117 A 
ATOM      7  C   UNL d   1      51.193  34.353  51.700  0.00  0.00     0.158 A 
ATOM      8  C   UNL d   1      50.921  33.780  52.976  0.00  0.00     0.052 A 
ATOM      9  F   UNL d   1      51.662  34.424  51.035  0.00  0.00    -0.203 F 
ATOM     10  C   UNL d   1      50.507  34.794  51.759  0.00  0.00     0.031 A 
ATOM     11  C   UNL d   1      50.024  34.732  52.426  0.00  0.00     0.003 A 
ATOM     12  C   UNL d   1      50.235  34.221  53.035  0.00  0.00     0.008 A 
ATOM     13  S   UNL d   1      51.269  33.231  53.490  0.00  0.00    -0.048 SA
ENDBRANCH   1   4
BRANCH   1  14
ATOM     14  C   UNL d   1      52.854  32.544  54.180  0.00  0.00     0.086 C 
BRANCH  14  15
ATOM     15  C   UNL d   1      53.541  32.999  54.217  0.00  0.00     0.037 A 
ATOM     16  C   UNL d   1      54.082  32.982  53.598  0.00  0.00     0.100 A 
ATOM     17  N   UNL d   1      54.769  33.438  53.635  0.00  0.00    -0.242 NA
ATOM     18  C   UNL d   1      54.914  33.910  54.293  0.00  0.00     0.099 A 
ATOM     19  C   UNL d   1      54.372  33.930  54.917  0.00  0.00     0.021 A 
ATOM     20  C   UNL d   1      53.685  33.474  54.879  0.00  0.00     0.005 A 
ENDBRANCH  14  15
ENDBRANCH   1  14
BRANCH   2  21
ATOM     21  C   UNL d   1      53.174  31.149  53.350  0.00  0.00     0.073 C 
BRANCH  21  22
ATOM     22  C   UNL d   1      53.094  30.348  53.151  0.00  0.00     0.104 C 
BRANCH  22  23
ATOM     23  S   UNL d   1      53.228  29.765  53.723  0.00  0.00     0.211 S 
ATOM     24  O   UNL d   1      52.415  29.563  53.711  0.00  0.00    -0.217 OA
ATOM     25  O   UNL d   1      54.036  29.966  53.736  0.00  0.00    -0.217 OA
BRANCH  23  26
ATOM     26  C   UNL d   1      53.359  29.180  54.297  0.00  0.00     0.088 A 
ATOM     27  C   UNL d   1      53.113  29.306  55.075  0.00  0.00     0.011 A 
ATOM     28  C   UNL d   1      53.241  28.729  55.647  0.00  0.00     0.001 A 
ATOM     29  C   UNL d   1      53.616  28.025  55.442  0.00  0.00     0.000 A 
ATOM     30  C   UNL d   1      53.861  27.896  54.674  0.00  0.00     0.001 A 
ATOM     31  C   UNL d   1      53.735  28.473  54.094  0.00  0.00     0.011 A 
ENDBRANCH  23  26
ENDBRANCH  22  23
ENDBRANCH  21  22
ENDBRANCH   2  21
TORSDOF 7
ENDMDL
MODEL 4
REMARK VINA RESULT:      -6.5      1.454      1.972
REMARK  7 active torsions:
REMARK  status: ('A' for Active; 'I' for Inactive)
REMARK    1  A    between atoms: N_3  and  C_1 
REMARK       I    between atoms: C_7  and  N_3 
REMARK    2  A    between atoms: C_11  and  N_3 
REMARK    3  A    between atoms: S_5  and  C_10 
REMARK    4  A    between atoms: C_14  and  S_5 
REMARK    5  A    between atoms: C_9  and  C_7 
REMARK    6  A    between atoms: C_10  and  C_9 
REMARK    7  A    between atoms: C_18  and  C_11 
ROOT
ATOM      1  N   UNL d   1      52.793  32.220  53.311  0.00  0.00    -0.253 N 
ATOM      2  C   UNL d   1      51.990  32.436  53.214  0.00  0.00     0.267 C 
ATOM      3  O   UNL d   1      51.403  31.870  53.317  0.00  0.00    -0.267 OA
ENDROOT
BRANCH   1   4
ATOM      4  C   UNL d   1      52.986  31.444  53.509  0.00  0.00     0.182 A 
ATOM      5  N   UNL d   1      52.956  31.108  54.268  0.00  0.00    -0.219 NA
ATOM      6  C   UNL d   1      53.196  30.315  54.211  0.00  0.00     0.117 A 
ATOM      7  C   UNL d   1      53.268  29.736  54.782  0.00  0.00     0.158 A 
ATOM      8  C   UNL d   1      53.372  30.161  53.426  0.00  0.00     0.052 A 
ATOM      9  F   UNL d   1      53.093  29.886  55.566  0.00  0.00    -0.203 F 
ATOM     10  C   UNL d   1      53.522  28.991  54.561  0.00  0.00     0.031 A 
ATOM     11  C   UNL d   1      53.702  28.826  53.773  0.00  0.00     0.003 A 
ATOM     12  C   UNL d   1      53.626  29.416  53.205  0.00  0.00     0.008 A 
ATOM     13  S   UNL d   1      53.245  30.852  52.987  0.00  0.00    -0.048 SA
ENDBRANCH   1   4
BRANCH   1  14
ATOM     14  C   UNL d   1      53.386  32.782  53.209  0.00  0.00     0.086 C 
BRANCH  14  15
ATOM     15  C   UNL d   1      53.768  33.104  53.866  0.00  0.00     0.037 A 
ATOM     16  C   UNL d   1      53.329  33.463  54.464  0.00  0.00     0.100 A 
ATOM     17  N   UNL d   1      53.711  33.784  55.121  0.00  0.00    -0.242 NA
ATOM     18  C   UNL d   1      54.530  33.747  55.181  0.00  0.00     0.099 A 
ATOM     19  C   UNL d   1      54.973  33.387  54.582  0.00  0.00     0.021 A 
ATOM     20  C   UNL d   1      54.592  33.065  53.925  0.00  0.00     0.005 A 
ENDBRANCH  14  15
ENDBRANCH   1  14
BRANCH   2  21
ATOM     21  C   UNL d   1      51.800  33.209  53.017  0.00  0.00     0.073 C 
BRANCH  21  22
ATOM     22  C   UNL d   1      51.254  33.354  52.410  0.00  0.00     0.104 C 
BRANCH  22  23
ATOM     23  S   UNL d   1      50.651  33.910  52.521  0.00  0.00     0.211 S 
ATOM     24  O   UNL d   1      50.211  33.348  52.961  0.00  0.00    -0.217 OA
ATOM     25  O   UNL d   1      51.087  34.468  52.084  0.00  0.00    -0.217 OA
BRANCH  23  26
ATOM     26  C   UNL d   1      50.044  34.465  52.634  0.00  0.00     0.088 A 
ATOM     27  C   UNL d   1      49.508  34.615  52.025  0.00  0.00     0.011 A 
ATOM     28  C   UNL d   1      48.905  35.165  52.132  0.00  0.00     0.001 A 
ATOM     29  C   UNL d   1      48.838  35.565  52.849  0.00  0.00     0.000 A 
ATOM     30  C   UNL d   1      49.367  35.419  53.454  0.00  0.00     0.001 A 
ATOM     31  C   UNL d   1      49.975  34.868  53.352  0.00  0.00     0.011 A 
ENDBRANCH  23  26
ENDBRANCH  22  23
ENDBRANCH  21  22
ENDBRANCH   2  21
TORSDOF 7
ENDMDL
MODEL 5
REMARK VINA RESULT:      -6.4      1.744      5.094
REMARK  7 active torsions:
REMARK  status: ('A' for Active; 'I' for Inactive)
REMARK    1  A    between atoms: N_3  and  C_1 
REMARK       I    between atoms: C_7  and  N_3 
REMARK    2  A    between atoms: C_11  and  N_3 
REMARK    3  A    between atoms: S_5  and  C_10 
REMARK    4  A    between atoms: C_14  and  S_5 
REMARK    5  A    between atoms: C_9  and  C_7 
REMARK    6  A    between atoms: C_10  and  C_9 
REMARK    7  A    between atoms: C_18  and  C_11 
ROOT
ATOM      1  N   UNL d   1      51.908  33.262  52.858  0.00  0.00    -0.253 N 
ATOM      2  C   UNL d   1      51.846  32.445  53.034  0.00  0.00     0.267 C 
ATOM      3  O   UNL d   1      51.109  32.082  53.010  0.00  0.00    -0.267 OA
ENDROOT
BRANCH   1   4
ATOM      4  C   UNL d   1      51.232  33.691  52.664  0.00  0.00     0.182 A 
ATOM      5  N   UNL d   1      50.690  34.023  53.198  0.00  0.00    -0.219 NA
ATOM      6  C   UNL d   1      50.095  34.404  52.761  0.00  0.00     0.117 A 
ATOM      7  C   UNL d   1      49.434  34.816  53.005  0.00  0.00     0.158 A 
ATOM      8  C   UNL d   1      50.266  34.309  51.966  0.00  0.00     0.052 A 
ATOM      9  F   UNL d   1      49.260  34.913  53.798  0.00  0.00    -0.203 F 
ATOM     10  C   UNL d   1      48.937  35.138  52.441  0.00  0.00     0.031 A 
ATOM     11  C   UNL d   1      49.101  35.047  51.637  0.00  0.00     0.003 A 
ATOM     12  C   UNL d   1      49.769  34.630  51.402  0.00  0.00     0.008 A 
ATOM     13  S   UNL d   1      50.966  33.870  51.898  0.00  0.00    -0.048 SA
ENDBRANCH   1   4
BRANCH   1  14
ATOM     14  C   UNL d   1      52.643  33.633  52.881  0.00  0.00     0.086 C 
BRANCH  14  15
ATOM     15  C   UNL d   1      52.842  34.118  53.518  0.00  0.00     0.037 A 
ATOM     16  C   UNL d   1      52.851  33.811  54.282  0.00  0.00     0.100 A 
ATOM     17  N   UNL d   1      53.049  34.296  54.920  0.00  0.00    -0.242 NA
ATOM     18  C   UNL d   1      53.240  35.086  54.794  0.00  0.00     0.099 A 
ATOM     19  C   UNL d   1      53.232  35.396  54.027  0.00  0.00     0.021 A 
ATOM     20  C   UNL d   1      53.033  34.912  53.390  0.00  0.00     0.005 A 
ENDBRANCH  14  15
ENDBRANCH   1  14
BRANCH   2  21
ATOM     21  C   UNL d   1      52.520  32.021  53.227  0.00  0.00     0.073 C 
BRANCH  21  22
ATOM     22  C   UNL d   1      52.635  31.267  52.903  0.00  0.00     0.104 C 
BRANCH  22  23
ATOM     23  S   UNL d   1      52.873  30.640  53.388  0.00  0.00     0.211 S 
ATOM     24  O   UNL d   1      52.115  30.291  53.316  0.00  0.00    -0.217 OA
ATOM     25  O   UNL d   1      53.627  30.986  53.461  0.00  0.00    -0.217 OA
BRANCH  23  26
ATOM     26  C   UNL d   1      53.110  30.011  53.875  0.00  0.00     0.088 A 
ATOM     27  C   UNL d   1      53.385  29.311  53.535  0.00  0.00     0.011 A 
ATOM     28  C   UNL d   1      53.622  28.684  54.013  0.00  0.00     0.001 A 
ATOM     29  C   UNL d   1      53.582  28.757  54.833  0.00  0.00     0.000 A 
ATOM     30  C   UNL d   1      53.310  29.447  55.173  0.00  0.00     0.001 A 
ATOM     31  C   UNL d   1      53.072  30.081  54.697  0.00  0.00     0.011 A 
ENDBRANCH  23  26
ENDBRANCH  22  23
ENDBRANCH  21  22
ENDBRANCH   2  21
TORSDOF 7
ENDMDL
