MODEL 1
REMARK VINA RESULT:      43.8      0.000      0.000
REMARK  1 active torsions:
REMARK  status: ('A' for Active; 'I' for Inactive)
REMARK    1  A    between atoms: N_9  and  C_4 
ROOT
ATOM      1  N   UNL d   1      59.095  49.695  50.916  0.00  0.00    -0.195 N 
ATOM      2  C   UNL d   1      59.924  49.699  50.964  0.00  0.00     0.168 A 
ATOM      3  C   UNL d   1      60.299  49.701  51.691  0.00  0.00     0.073 A 
ATOM      4  C   UNL d   1      58.738  49.692  50.181  0.00  0.00     0.154 A 
ATOM      5  N   UNL d   1      59.013  49.696  52.321  0.00  0.00    -0.143 NA
ATOM      6  C   UNL d   1      59.842  49.699  52.369  0.00  0.00     0.185 A 
ATOM      7  N   UNL d   1      60.372  49.700  50.276  0.00  0.00    -0.227 NA
ATOM      8  C   UNL d   1      61.119  49.705  51.739  0.00  0.00     0.007 A 
ATOM      9  N   UNL d   1      60.208  49.702  53.112  0.00  0.00    -0.225 NA
ATOM     10  C   UNL d   1      59.178  49.694  49.498  0.00  0.00     0.057 A 
ATOM     11  C   UNL d   1      61.494  49.707  52.465  0.00  0.00     0.019 A 
ATOM     12  C   UNL d   1      60.006  49.698  49.546  0.00  0.00     0.086 A 
ATOM     13  C   UNL d   1      61.036  49.706  53.161  0.00  0.00     0.083 A 
ATOM     14  C   UNL d   1      61.569  49.706  51.047  0.00  0.00     0.000 C 
ATOM     15  C   UNL d   1      60.470  49.699  48.828  0.00  0.00     0.021 C 
ATOM     16  C   UNL d   1      61.404  49.708  53.887  0.00  0.00     0.021 C 
ENDROOT
BRANCH   4  17
ATOM     17  N   UNL d   1      57.883  49.689  50.140  0.00  0.00    -0.271 N 
ATOM     18  C   UNL d   1      57.344  49.667  50.801  0.00  0.00     0.184 A 
ATOM     19  N   UNL d   1      56.557  49.671  50.494  0.00  0.00    -0.222 NA
ATOM     20  C   UNL d   1      56.602  49.695  49.635  0.00  0.00     0.120 A 
ATOM     21  C   UNL d   1      57.424  49.706  49.422  0.00  0.00     0.104 A 
ENDBRANCH   4  17
TORSDOF 1
ENDMDL
