MODEL 1
REMARK VINA RESULT:       2.2      0.000      0.000
REMARK  0 active torsions:
REMARK  status: ('A' for Active; 'I' for Inactive)
ROOT
ATOM      1  N   UNL d   1     -52.572  24.467  33.308  0.00  0.00    -0.219 NA
ATOM      2  C   UNL d   1     -52.624  23.643  33.309  0.00  0.00     0.215 A 
ATOM      3  S   UNL d   1     -51.865  23.335  33.308  0.00  0.00    -0.045 SA
ATOM      4  C   UNL d   1     -51.772  24.666  33.308  0.00  0.00     0.090 A 
ATOM      5  C   UNL d   1     -51.327  23.966  33.308  0.00  0.00     0.050 A 
ATOM      6  N   UNL d   1     -53.325  23.203  33.309  0.00  0.00    -0.120 N 
ATOM      7  C   UNL d   1     -51.460  25.430  33.308  0.00  0.00     0.021 C 
ATOM      8  C   UNL d   1     -50.510  23.903  33.307  0.00  0.00     0.009 C 
ENDROOT
TORSDOF 0
ENDMDL
