MODEL 1
REMARK VINA RESULT:       1.1      0.000      0.000
REMARK  5 active torsions:
REMARK  status: ('A' for Active; 'I' for Inactive)
REMARK    1  A    between atoms: C_11  and  C_3 
REMARK    2  A    between atoms: C_12  and  N_5 
REMARK    3  A    between atoms: C_10  and  C_14 
REMARK    4  A    between atoms: O_24  and  C_11 
REMARK    5  A    between atoms: C_25  and  O_24 
ROOT
ATOM      1  C   UNL d   1     -41.391-121.246 -51.890  0.00  0.00     0.086 A 
ATOM      2  C   UNL d   1     -41.401-121.748 -52.540  0.00  0.00     0.038 A 
ATOM      3  C   UNL d   1     -41.560-122.551 -52.441  0.00  0.00     0.165 A 
ATOM      4  C   UNL d   1     -41.540-121.547 -51.133  0.00  0.00     0.282 A 
ATOM      5  N   UNL d   1     -41.698-122.346 -51.032  0.00  0.00    -0.194 N 
ATOM      6  N   UNL d   1     -41.709-122.851 -51.684  0.00  0.00    -0.157 NA
ATOM      7  C   UNL d   1     -41.218-120.485 -52.163  0.00  0.00     0.137 A 
ATOM      8  C   UNL d   1     -41.235-121.295 -53.211  0.00  0.00     0.039 A 
ATOM      9  S   UNL d   1     -41.123-120.522 -52.977  0.00  0.00    -0.066 SA
ATOM     10  O   UNL d   1     -41.531-121.041 -50.472  0.00  0.00    -0.265 OA
ATOM     11  N   UNL d   1     -41.148-119.791 -51.710  0.00  0.00    -0.141 N 
ENDROOT
BRANCH   5  12
ATOM     12  C   UNL d   1     -41.847-122.645 -50.279  0.00  0.00     0.086 A 
ATOM     13  C   UNL d   1     -42.609-122.631 -49.974  0.00  0.00     0.019 A 
ATOM     14  C   UNL d   1     -42.759-122.933 -49.214  0.00  0.00     0.005 A 
ATOM     15  C   UNL d   1     -42.145-123.245 -48.766  0.00  0.00     0.072 A 
ATOM     16  C   UNL d   1     -41.379-123.260 -49.072  0.00  0.00     0.005 A 
ATOM     17  C   UNL d   1     -41.229-122.959 -49.831  0.00  0.00     0.019 A 
BRANCH  15  18
ATOM     18  C   UNL d   1     -42.293-123.544 -48.014  0.00  0.00     0.419 C 
ATOM     19  F   UNL d   1     -42.433-123.817 -47.327  0.00  0.00    -0.166 F 
ATOM     20  F   UNL d   1     -43.044-123.729 -47.644  0.00  0.00    -0.166 F 
ATOM     21  F   UNL d   1     -41.741-123.751 -47.397  0.00  0.00    -0.166 F 
ENDBRANCH  15  18
ENDBRANCH   5  12
BRANCH   3  22
ATOM     22  C   UNL d   1     -41.569-123.057 -53.102  0.00  0.00     0.320 C 
ATOM     23  O   UNL d   1     -41.123-123.746 -53.093  0.00  0.00    -0.257 OA
BRANCH  22  24
ATOM     24  O   UNL d   1     -42.026-122.866 -53.766  0.00  0.00    -0.270 OA
BRANCH  24  25
ATOM     25  C   UNL d   1     -41.972-123.323 -54.446  0.00  0.00     0.126 C 
ATOM     26  C   UNL d   1     -42.476-123.171 -55.090  0.00  0.00     0.029 C 
ENDBRANCH  24  25
ENDBRANCH  22  24
ENDBRANCH   3  22
TORSDOF 5
ENDMDL
MODEL 2
REMARK VINA RESULT:       4.0      1.091      2.492
REMARK  5 active torsions:
REMARK  status: ('A' for Active; 'I' for Inactive)
REMARK    1  A    between atoms: C_11  and  C_3 
REMARK    2  A    between atoms: C_12  and  N_5 
REMARK    3  A    between atoms: C_10  and  C_14 
REMARK    4  A    between atoms: O_24  and  C_11 
REMARK    5  A    between atoms: C_25  and  O_24 
ROOT
ATOM      1  C   UNL d   1     -41.817-122.518 -52.448  0.00  0.00     0.086 A 
ATOM      2  C   UNL d   1     -41.647-121.728 -52.591  0.00  0.00     0.038 A 
ATOM      3  C   UNL d   1     -41.529-121.210 -51.960  0.00  0.00     0.165 A 
ATOM      4  C   UNL d   1     -41.870-122.797 -51.670  0.00  0.00     0.282 A 
ATOM      5  N   UNL d   1     -41.752-122.283 -51.040  0.00  0.00    -0.194 N 
ATOM      6  N   UNL d   1     -41.581-121.489 -51.182  0.00  0.00    -0.157 NA
ATOM      7  C   UNL d   1     -41.905-122.892 -53.180  0.00  0.00     0.137 A 
ATOM      8  C   UNL d   1     -41.631-121.617 -53.409  0.00  0.00     0.039 A 
ATOM      9  S   UNL d   1     -41.789-122.331 -53.768  0.00  0.00    -0.066 SA
ATOM     10  O   UNL d   1     -42.042-123.598 -51.522  0.00  0.00    -0.265 OA
ATOM     11  N   UNL d   1     -42.080-123.694 -53.320  0.00  0.00    -0.141 N 
ENDROOT
BRANCH   5  12
ATOM     12  C   UNL d   1     -41.804-122.560 -50.267  0.00  0.00     0.086 A 
ATOM     13  C   UNL d   1     -41.217-123.049 -49.964  0.00  0.00     0.019 A 
ATOM     14  C   UNL d   1     -41.270-123.328 -49.183  0.00  0.00     0.005 A 
ATOM     15  C   UNL d   1     -41.909-123.117 -48.712  0.00  0.00     0.072 A 
ATOM     16  C   UNL d   1     -42.500-122.626 -49.015  0.00  0.00     0.005 A 
ATOM     17  C   UNL d   1     -42.447-122.346 -49.796  0.00  0.00     0.019 A 
BRANCH  15  18
ATOM     18  C   UNL d   1     -41.962-123.394 -47.939  0.00  0.00     0.419 C 
ATOM     19  F   UNL d   1     -42.006-123.646 -47.232  0.00  0.00    -0.166 F 
ATOM     20  F   UNL d   1     -41.338-123.507 -47.363  0.00  0.00    -0.166 F 
ATOM     21  F   UNL d   1     -42.650-123.643 -47.500  0.00  0.00    -0.166 F 
ENDBRANCH  15  18
ENDBRANCH   5  12
BRANCH   3  22
ATOM     22  C   UNL d   1     -41.357-120.409 -52.107  0.00  0.00     0.320 C 
ATOM     23  O   UNL d   1     -41.232-120.155 -52.878  0.00  0.00    -0.257 OA
BRANCH  22  24
ATOM     24  O   UNL d   1     -41.311-119.870 -51.480  0.00  0.00    -0.270 OA
BRANCH  24  25
ATOM     25  C   UNL d   1     -41.123-119.084 -51.627  0.00  0.00     0.126 C 
ATOM     26  C   UNL d   1     -41.165-118.525 -51.013  0.00  0.00     0.029 C 
ENDBRANCH  24  25
ENDBRANCH  22  24
ENDBRANCH   3  22
TORSDOF 5
ENDMDL
