MODEL 1
REMARK VINA RESULT:      48.4      0.000      0.000
REMARK  7 active torsions:
REMARK  status: ('A' for Active; 'I' for Inactive)
REMARK    1  A    between atoms: C_6  and  C_1 
REMARK    2  A    between atoms: C_8  and  N_3 
REMARK    3  A    between atoms: O_7  and  C_6 
REMARK    4  A    between atoms: C_9  and  O_7 
REMARK    5  A    between atoms: C_19  and  C_8 
REMARK    6  A    between atoms: O_16  and  C_10 
REMARK    7  A    between atoms: O_18  and  C_19 
ROOT
ATOM      1  C   UNL d   1     -50.016  25.826  33.434  0.00  0.00     0.173 A 
ATOM      2  N   UNL d   1     -49.652  25.077  33.459  0.00  0.00    -0.225 NA
ATOM      3  N   UNL d   1     -50.844  25.711  33.372  0.00  0.00    -0.286 N 
ATOM      4  C   UNL d   1     -50.989  24.884  33.359  0.00  0.00     0.083 A 
ATOM      5  C   UNL d   1     -50.249  24.500  33.413  0.00  0.00     0.099 A 
ATOM      6  C   UNL d   1     -51.676  24.433  33.306  0.00  0.00     0.019 A 
ATOM      7  C   UNL d   1     -50.212  23.673  33.413  0.00  0.00     0.021 A 
ATOM      8  C   UNL d   1     -51.638  23.609  33.306  0.00  0.00     0.002 A 
ATOM      9  C   UNL d   1     -50.905  23.229  33.360  0.00  0.00     0.002 A 
ENDROOT
BRANCH   1  10
ATOM     10  C   UNL d   1     -49.464  26.432  33.478  0.00  0.00     0.160 C 
BRANCH  10  11
ATOM     11  O   UNL d   1     -49.699  27.194  33.703  0.00  0.00    -0.302 OA
BRANCH  11  12
ATOM     12  C   UNL d   1     -49.220  27.648  34.198  0.00  0.00     0.100 A 
ATOM     13  C   UNL d   1     -49.231  27.508  35.009  0.00  0.00     0.027 A 
ATOM     14  C   UNL d   1     -48.752  27.961  35.505  0.00  0.00     0.026 A 
ATOM     15  C   UNL d   1     -48.265  28.552  35.188  0.00  0.00     0.094 A 
ATOM     16  C   UNL d   1     -48.259  28.686  34.378  0.00  0.00     0.026 A 
ATOM     17  C   UNL d   1     -48.738  28.233  33.882  0.00  0.00     0.027 A 
BRANCH  15  18
ATOM     18  O   UNL d   1     -47.788  29.004  35.682  0.00  0.00    -0.328 OA
ATOM     19  C   UNL d   1     -47.649  29.801  35.515  0.00  0.00     0.181 C 
ENDBRANCH  15  18
ENDBRANCH  11  12
ENDBRANCH  10  11
ENDBRANCH   1  10
BRANCH   3  20
ATOM     20  C   UNL d   1     -51.416  26.300  33.331  0.00  0.00     0.108 C 
BRANCH  20  21
ATOM     21  C   UNL d   1     -52.186  26.154  33.600  0.00  0.00     0.135 C 
BRANCH  21  22
ATOM     22  O   UNL d   1     -52.674  26.780  33.803  0.00  0.00    -0.325 OA
ATOM     23  C   UNL d   1     -52.712  27.444  33.320  0.00  0.00     0.182 C 
ENDBRANCH  21  22
ENDBRANCH  20  21
ENDBRANCH   3  20
TORSDOF 7
ENDMDL
MODEL 2
REMARK VINA RESULT:      50.8      1.200      2.306
REMARK  7 active torsions:
REMARK  status: ('A' for Active; 'I' for Inactive)
REMARK    1  A    between atoms: C_6  and  C_1 
REMARK    2  A    between atoms: C_8  and  N_3 
REMARK    3  A    between atoms: O_7  and  C_6 
REMARK    4  A    between atoms: C_9  and  O_7 
REMARK    5  A    between atoms: C_19  and  C_8 
REMARK    6  A    between atoms: O_16  and  C_10 
REMARK    7  A    between atoms: O_18  and  C_19 
ROOT
ATOM      1  C   UNL d   1     -49.996  26.966  33.788  0.00  0.00     0.173 A 
ATOM      2  N   UNL d   1     -50.731  27.356  33.797  0.00  0.00    -0.225 NA
ATOM      3  N   UNL d   1     -50.133  26.155  33.623  0.00  0.00    -0.286 N 
ATOM      4  C   UNL d   1     -50.961  26.048  33.530  0.00  0.00     0.083 A 
ATOM      5  C   UNL d   1     -51.322  26.793  33.638  0.00  0.00     0.099 A 
ATOM      6  C   UNL d   1     -51.429  25.390  33.364  0.00  0.00     0.019 A 
ATOM      7  C   UNL d   1     -52.145  26.864  33.580  0.00  0.00     0.021 A 
ATOM      8  C   UNL d   1     -52.249  25.464  33.306  0.00  0.00     0.002 A 
ATOM      9  C   UNL d   1     -52.607  26.201  33.414  0.00  0.00     0.002 A 
ENDROOT
BRANCH   1  10
ATOM     10  C   UNL d   1     -49.377  27.483  33.940  0.00  0.00     0.160 C 
BRANCH  10  11
ATOM     11  O   UNL d   1     -49.112  27.599  34.717  0.00  0.00    -0.302 OA
BRANCH  11  12
ATOM     12  C   UNL d   1     -48.681  28.274  34.914  0.00  0.00     0.100 A 
ATOM     13  C   UNL d   1     -49.011  29.016  34.782  0.00  0.00     0.027 A 
ATOM     14  C   UNL d   1     -48.580  29.691  34.978  0.00  0.00     0.026 A 
ATOM     15  C   UNL d   1     -47.822  29.622  35.305  0.00  0.00     0.094 A 
ATOM     16  C   UNL d   1     -47.499  28.879  35.433  0.00  0.00     0.026 A 
ATOM     17  C   UNL d   1     -47.930  28.203  35.237  0.00  0.00     0.027 A 
BRANCH  15  18
ATOM     18  O   UNL d   1     -47.393  30.296  35.500  0.00  0.00    -0.328 OA
ATOM     19  C   UNL d   1     -46.571  30.307  35.416  0.00  0.00     0.181 C 
ENDBRANCH  15  18
ENDBRANCH  11  12
ENDBRANCH  10  11
ENDBRANCH   1  10
BRANCH   3  20
ATOM     20  C   UNL d   1     -49.563  25.566  33.562  0.00  0.00     0.108 C 
BRANCH  20  21
ATOM     21  C   UNL d   1     -49.772  24.807  33.306  0.00  0.00     0.135 C 
BRANCH  21  22
ATOM     22  O   UNL d   1     -49.241  24.188  33.386  0.00  0.00    -0.325 OA
ATOM     23  C   UNL d   1     -49.497  23.462  33.678  0.00  0.00     0.182 C 
ENDBRANCH  21  22
ENDBRANCH  20  21
ENDBRANCH   3  20
TORSDOF 7
ENDMDL
