MODEL 1
REMARK VINA RESULT:      -7.1      0.000      0.000
REMARK  4 active torsions:
REMARK  status: ('A' for Active; 'I' for Inactive)
REMARK    1  A    between atoms: C_3  and  C_1 
REMARK    2  A    between atoms: C_5  and  C_1 
REMARK    3  A    between atoms: C_2  and  C_3 
REMARK       I    between atoms: N_4  and  C_2 
REMARK    4  A    between atoms: C_6  and  N_4 
ROOT
ATOM      1  C   UNL d   1     -47.758  13.809  22.688  0.00  0.00     0.279 C 
ATOM      2  N   UNL d   1     -47.053  13.822  23.122  0.00  0.00    -0.208 NA
ATOM      3  O   UNL d   1     -47.841  13.258  22.080  0.00  0.00    -0.265 OA
ENDROOT
BRANCH   1   4
ATOM      4  C   UNL d   1     -48.385  14.330  22.841  0.00  0.00     0.063 C 
BRANCH   4   5
ATOM      5  C   UNL d   1     -49.142  14.069  22.903  0.00  0.00     0.006 C 
BRANCH   5   6
ATOM      6  C   UNL d   1     -49.757  14.566  23.170  0.00  0.00     0.011 A 
ATOM      7  C   UNL d   1     -50.476  14.272  23.441  0.00  0.00     0.058 A 
ATOM      8 CL   UNL d   1     -50.602  13.457  23.453  0.00  0.00    -0.082 Cl
ATOM      9  C   UNL d   1     -51.064  14.765  23.698  0.00  0.00     0.011 A 
ATOM     10  C   UNL d   1     -50.941  15.597  23.688  0.00  0.00     0.001 A 
ATOM     11  C   UNL d   1     -50.234  15.914  23.422  0.00  0.00     0.000 A 
ATOM     12  C   UNL d   1     -49.634  15.398  23.160  0.00  0.00     0.001 A 
ENDBRANCH   5   6
ENDBRANCH   4   5
ENDBRANCH   1   4
BRANCH   2  13
ATOM     13  C   UNL d   1     -46.427  13.302  22.968  0.00  0.00     0.088 A 
ATOM     14  C   UNL d   1     -46.387  12.594  23.390  0.00  0.00     0.061 A 
ATOM     15  C   UNL d   1     -45.792  12.067  23.264  0.00  0.00     0.197 A 
ATOM     16  O   UNL d   1     -45.752  11.361  23.684  0.00  0.00    -0.286 OA
ATOM     17  C   UNL d   1     -45.206  12.247  22.693  0.00  0.00     0.042 A 
ATOM     18  C   UNL d   1     -45.247  12.955  22.272  0.00  0.00     0.005 A 
ATOM     19  C   UNL d   1     -45.872  13.475  22.426  0.00  0.00     0.019 A 
ENDBRANCH   2  13
TORSDOF 4
ENDMDL
MODEL 2
REMARK VINA RESULT:      -6.6      1.549      4.684
REMARK  4 active torsions:
REMARK  status: ('A' for Active; 'I' for Inactive)
REMARK    1  A    between atoms: C_3  and  C_1 
REMARK    2  A    between atoms: C_5  and  C_1 
REMARK    3  A    between atoms: C_2  and  C_3 
REMARK       I    between atoms: N_4  and  C_2 
REMARK    4  A    between atoms: C_6  and  N_4 
ROOT
ATOM      1  C   UNL d   1     -48.136  14.136  23.014  0.00  0.00     0.279 C 
ATOM      2  N   UNL d   1     -48.448  14.860  22.759  0.00  0.00    -0.208 NA
ATOM      3  O   UNL d   1     -48.644  13.581  23.351  0.00  0.00    -0.265 OA
ENDROOT
BRANCH   1   4
ATOM      4  C   UNL d   1     -47.331  13.949  22.943  0.00  0.00     0.063 C 
BRANCH   4   5
ATOM      5  C   UNL d   1     -47.054  13.215  23.117  0.00  0.00     0.006 C 
BRANCH   5   6
ATOM      6  C   UNL d   1     -46.304  12.957  22.859  0.00  0.00     0.011 A 
ATOM      7  C   UNL d   1     -45.980  12.237  23.090  0.00  0.00     0.058 A 
ATOM      8 CL   UNL d   1     -46.408  11.745  23.597  0.00  0.00    -0.082 Cl
ATOM      9  C   UNL d   1     -45.251  11.998  22.833  0.00  0.00     0.011 A 
ATOM     10  C   UNL d   1     -44.811  12.496  22.316  0.00  0.00     0.001 A 
ATOM     11  C   UNL d   1     -45.112  13.218  22.071  0.00  0.00     0.000 A 
ATOM     12  C   UNL d   1     -45.864  13.454  22.342  0.00  0.00     0.001 A 
ENDBRANCH   5   6
ENDBRANCH   4   5
ENDBRANCH   1   4
BRANCH   2  13
ATOM     13  C   UNL d   1     -49.252  15.046  22.830  0.00  0.00     0.088 A 
ATOM     14  C   UNL d   1     -49.765  14.828  22.222  0.00  0.00     0.061 A 
ATOM     15  C   UNL d   1     -50.551  14.995  22.261  0.00  0.00     0.197 A 
ATOM     16  O   UNL d   1     -51.063  14.777  21.656  0.00  0.00    -0.286 OA
ATOM     17  C   UNL d   1     -50.847  15.397  22.933  0.00  0.00     0.042 A 
ATOM     18  C   UNL d   1     -50.334  15.616  23.540  0.00  0.00     0.005 A 
ATOM     19  C   UNL d   1     -49.530  15.429  23.469  0.00  0.00     0.019 A 
ENDBRANCH   2  13
TORSDOF 4
ENDMDL
MODEL 3
REMARK VINA RESULT:      -5.8      2.440      5.169
REMARK  4 active torsions:
REMARK  status: ('A' for Active; 'I' for Inactive)
REMARK    1  A    between atoms: C_3  and  C_1 
REMARK    2  A    between atoms: C_5  and  C_1 
REMARK    3  A    between atoms: C_2  and  C_3 
REMARK       I    between atoms: N_4  and  C_2 
REMARK    4  A    between atoms: C_6  and  N_4 
ROOT
ATOM      1  C   UNL d   1     -47.769  11.787  23.186  0.00  0.00     0.279 C 
ATOM      2  N   UNL d   1     -48.372  11.549  22.670  0.00  0.00    -0.208 NA
ATOM      3  O   UNL d   1     -47.894  12.445  23.666  0.00  0.00    -0.265 OA
ENDROOT
BRANCH   1   4
ATOM      4  C   UNL d   1     -47.045  11.387  23.237  0.00  0.00     0.063 C 
BRANCH   4   5
ATOM      5  C   UNL d   1     -46.352  11.784  23.324  0.00  0.00     0.006 C 
BRANCH   5   6
ATOM      6  C   UNL d   1     -45.616  11.390  23.308  0.00  0.00     0.011 A 
ATOM      7  C   UNL d   1     -44.957  11.702  22.926  0.00  0.00     0.058 A 
ATOM      8 CL   UNL d   1     -45.017  12.430  22.543  0.00  0.00    -0.082 Cl
ATOM      9  C   UNL d   1     -44.249  11.310  22.918  0.00  0.00     0.011 A 
ATOM     10  C   UNL d   1     -44.182  10.567  23.308  0.00  0.00     0.001 A 
ATOM     11  C   UNL d   1     -44.824  10.236  23.695  0.00  0.00     0.000 A 
ATOM     12  C   UNL d   1     -45.549  10.648  23.697  0.00  0.00     0.001 A 
ENDBRANCH   5   6
ENDBRANCH   4   5
ENDBRANCH   1   4
BRANCH   2  13
ATOM     13  C   UNL d   1     -49.096  11.949  22.618  0.00  0.00     0.088 A 
ATOM     14  C   UNL d   1     -49.216  12.475  21.995  0.00  0.00     0.061 A 
ATOM     15  C   UNL d   1     -49.908  12.879  21.917  0.00  0.00     0.197 A 
ATOM     16  O   UNL d   1     -50.027  13.404  21.295  0.00  0.00    -0.286 OA
ATOM     17  C   UNL d   1     -50.513  12.758  22.482  0.00  0.00     0.042 A 
ATOM     18  C   UNL d   1     -50.393  12.232  23.106  0.00  0.00     0.005 A 
ATOM     19  C   UNL d   1     -49.669  11.832  23.157  0.00  0.00     0.019 A 
ENDBRANCH   2  13
TORSDOF 4
ENDMDL
MODEL 4
REMARK VINA RESULT:      -5.7      8.251     10.508
REMARK  4 active torsions:
REMARK  status: ('A' for Active; 'I' for Inactive)
REMARK    1  A    between atoms: C_3  and  C_1 
REMARK    2  A    between atoms: C_5  and  C_1 
REMARK    3  A    between atoms: C_2  and  C_3 
REMARK       I    between atoms: N_4  and  C_2 
REMARK    4  A    between atoms: C_6  and  N_4 
ROOT
ATOM      1  C   UNL d   1     -40.087  14.757  18.597  0.00  0.00     0.279 C 
ATOM      2  N   UNL d   1     -39.911  15.392  19.100  0.00  0.00    -0.208 NA
ATOM      3  O   UNL d   1     -40.652  14.206  18.837  0.00  0.00    -0.265 OA
ENDROOT
BRANCH   1   4
ATOM      4  C   UNL d   1     -39.715  14.654  17.863  0.00  0.00     0.063 C 
BRANCH   4   5
ATOM      5  C   UNL d   1     -39.367  13.959  17.663  0.00  0.00     0.006 C 
BRANCH   5   6
ATOM      6  C   UNL d   1     -38.883  13.890  16.987  0.00  0.00     0.011 A 
ATOM      7  C   UNL d   1     -38.404  13.234  16.851  0.00  0.00     0.058 A 
ATOM      8 CL   UNL d   1     -38.397  12.617  17.399  0.00  0.00    -0.082 Cl
ATOM      9  C   UNL d   1     -37.940  13.179  16.191  0.00  0.00     0.011 A 
ATOM     10  C   UNL d   1     -37.943  13.805  15.629  0.00  0.00     0.001 A 
ATOM     11  C   UNL d   1     -38.411  14.468  15.742  0.00  0.00     0.000 A 
ATOM     12  C   UNL d   1     -38.886  14.515  16.425  0.00  0.00     0.001 A 
ENDBRANCH   5   6
ENDBRANCH   4   5
ENDBRANCH   1   4
BRANCH   2  13
ATOM     13  C   UNL d   1     -40.283  15.494  19.833  0.00  0.00     0.088 A 
ATOM     14  C   UNL d   1     -39.888  15.250  20.515  0.00  0.00     0.061 A 
ATOM     15  C   UNL d   1     -40.222  15.336  21.243  0.00  0.00     0.197 A 
ATOM     16  O   UNL d   1     -39.829  15.093  21.923  0.00  0.00    -0.286 OA
ATOM     17  C   UNL d   1     -40.983  15.679  21.301  0.00  0.00     0.042 A 
ATOM     18  C   UNL d   1     -41.378  15.922  20.618  0.00  0.00     0.005 A 
ATOM     19  C   UNL d   1     -41.006  15.820  19.885  0.00  0.00     0.019 A 
ENDBRANCH   2  13
TORSDOF 4
ENDMDL
MODEL 5
REMARK VINA RESULT:      -5.5      8.917      9.343
REMARK  4 active torsions:
REMARK  status: ('A' for Active; 'I' for Inactive)
REMARK    1  A    between atoms: C_3  and  C_1 
REMARK    2  A    between atoms: C_5  and  C_1 
REMARK    3  A    between atoms: C_2  and  C_3 
REMARK       I    between atoms: N_4  and  C_2 
REMARK    4  A    between atoms: C_6  and  N_4 
ROOT
ATOM      1  C   UNL d   1     -39.943  14.571  20.505  0.00  0.00     0.279 C 
ATOM      2  N   UNL d   1     -39.194  14.664  20.846  0.00  0.00    -0.208 NA
ATOM      3  O   UNL d   1     -40.509  14.122  20.904  0.00  0.00    -0.265 OA
ENDROOT
BRANCH   1   4
ATOM      4  C   UNL d   1     -40.146  14.912  19.777  0.00  0.00     0.063 C 
BRANCH   4   5
ATOM      5  C   UNL d   1     -40.265  14.463  19.122  0.00  0.00     0.006 C 
BRANCH   5   6
ATOM      6  C   UNL d   1     -40.456  14.806  18.385  0.00  0.00     0.011 A 
ATOM      7  C   UNL d   1     -40.257  14.452  17.669  0.00  0.00     0.058 A 
ATOM      8 CL   UNL d   1     -39.853  13.733  17.671  0.00  0.00    -0.082 Cl
ATOM      9  C   UNL d   1     -40.448  14.794  16.961  0.00  0.00     0.011 A 
ATOM     10  C   UNL d   1     -40.860  15.528  16.953  0.00  0.00     0.001 A 
ATOM     11  C   UNL d   1     -41.069  15.899  17.653  0.00  0.00     0.000 A 
ATOM     12  C   UNL d   1     -40.868  15.539  18.377  0.00  0.00     0.001 A 
ENDBRANCH   5   6
ENDBRANCH   4   5
ENDBRANCH   1   4
BRANCH   2  13
ATOM     13  C   UNL d   1     -38.992  14.322  21.574  0.00  0.00     0.088 A 
ATOM     14  C   UNL d   1     -38.571  13.613  21.576  0.00  0.00     0.061 A 
ATOM     15  C   UNL d   1     -38.359  13.256  22.265  0.00  0.00     0.197 A 
ATOM     16  O   UNL d   1     -37.940  12.549  22.268  0.00  0.00    -0.286 OA
ATOM     17  C   UNL d   1     -38.574  13.616  22.990  0.00  0.00     0.042 A 
ATOM     18  C   UNL d   1     -38.995  14.325  22.987  0.00  0.00     0.005 A 
ATOM     19  C   UNL d   1     -39.197  14.667  22.260  0.00  0.00     0.019 A 
ENDBRANCH   2  13
TORSDOF 4
ENDMDL
MODEL 6
REMARK VINA RESULT:      -5.5      8.882      9.562
REMARK  4 active torsions:
REMARK  status: ('A' for Active; 'I' for Inactive)
REMARK    1  A    between atoms: C_3  and  C_1 
REMARK    2  A    between atoms: C_5  and  C_1 
REMARK    3  A    between atoms: C_2  and  C_3 
REMARK       I    between atoms: N_4  and  C_2 
REMARK    4  A    between atoms: C_6  and  N_4 
ROOT
ATOM      1  C   UNL d   1     -40.211  15.006  19.894  0.00  0.00     0.279 C 
ATOM      2  N   UNL d   1     -39.904  15.403  19.235  0.00  0.00    -0.208 NA
ATOM      3  O   UNL d   1     -40.739  14.384  19.772  0.00  0.00    -0.265 OA
ENDROOT
BRANCH   1   4
ATOM      4  C   UNL d   1     -40.007  15.210  20.671  0.00  0.00     0.063 C 
BRANCH   4   5
ATOM      5  C   UNL d   1     -39.745  14.660  21.194  0.00  0.00     0.006 C 
BRANCH   5   6
ATOM      6  C   UNL d   1     -39.386  14.877  21.915  0.00  0.00     0.011 A 
ATOM      7  C   UNL d   1     -38.997  14.334  22.396  0.00  0.00     0.058 A 
ATOM      8 CL   UNL d   1     -38.956  13.543  22.164  0.00  0.00    -0.082 Cl
ATOM      9  C   UNL d   1     -38.653  14.558  23.094  0.00  0.00     0.011 A 
ATOM     10  C   UNL d   1     -38.691  15.362  23.335  0.00  0.00     0.001 A 
ATOM     11  C   UNL d   1     -39.072  15.922  22.874  0.00  0.00     0.000 A 
ATOM     12  C   UNL d   1     -39.424  15.681  22.157  0.00  0.00     0.001 A 
ENDBRANCH   5   6
ENDBRANCH   4   5
ENDBRANCH   1   4
BRANCH   2  13
ATOM     13  C   UNL d   1     -40.107  15.199  18.458  0.00  0.00     0.088 A 
ATOM     14  C   UNL d   1     -40.678  15.647  18.066  0.00  0.00     0.061 A 
ATOM     15  C   UNL d   1     -40.898  15.475  17.312  0.00  0.00     0.197 A 
ATOM     16  O   UNL d   1     -41.466  15.922  16.921  0.00  0.00    -0.286 OA
ATOM     17  C   UNL d   1     -40.537  14.827  16.923  0.00  0.00     0.042 A 
ATOM     18  C   UNL d   1     -39.967  14.378  17.315  0.00  0.00     0.005 A 
ATOM     19  C   UNL d   1     -39.763  14.583  18.092  0.00  0.00     0.019 A 
ENDBRANCH   2  13
TORSDOF 4
ENDMDL
MODEL 7
REMARK VINA RESULT:      -5.2      8.588     10.320
REMARK  4 active torsions:
REMARK  status: ('A' for Active; 'I' for Inactive)
REMARK    1  A    between atoms: C_3  and  C_1 
REMARK    2  A    between atoms: C_5  and  C_1 
REMARK    3  A    between atoms: C_2  and  C_3 
REMARK       I    between atoms: N_4  and  C_2 
REMARK    4  A    between atoms: C_6  and  N_4 
ROOT
ATOM      1  C   UNL d   1     -39.308  14.051  18.090  0.00  0.00     0.279 C 
ATOM      2  N   UNL d   1     -38.563  14.240  17.783  0.00  0.00    -0.208 NA
ATOM      3  O   UNL d   1     -39.862  13.691  17.596  0.00  0.00    -0.265 OA
ENDROOT
BRANCH   1   4
ATOM      4  C   UNL d   1     -39.518  14.209  18.877  0.00  0.00     0.063 C 
BRANCH   4   5
ATOM      5  C   UNL d   1     -40.109  14.722  19.058  0.00  0.00     0.006 C 
BRANCH   5   6
ATOM      6  C   UNL d   1     -40.204  15.026  19.829  0.00  0.00     0.011 A 
ATOM      7  C   UNL d   1     -40.751  15.615  20.007  0.00  0.00     0.058 A 
ATOM      8 CL   UNL d   1     -41.227  15.921  19.407  0.00  0.00    -0.082 Cl
ATOM      9  C   UNL d   1     -40.833  15.901  20.760  0.00  0.00     0.011 A 
ATOM     10  C   UNL d   1     -40.350  15.593  21.376  0.00  0.00     0.001 A 
ATOM     11  C   UNL d   1     -39.798  15.007  21.223  0.00  0.00     0.000 A 
ATOM     12  C   UNL d   1     -39.721  14.718  20.445  0.00  0.00     0.001 A 
ENDBRANCH   5   6
ENDBRANCH   4   5
ENDBRANCH   1   4
BRANCH   2  13
ATOM     13  C   UNL d   1     -38.353  14.082  16.997  0.00  0.00     0.088 A 
ATOM     14  C   UNL d   1     -38.260  14.715  16.476  0.00  0.00     0.061 A 
ATOM     15  C   UNL d   1     -38.057  14.594  15.707  0.00  0.00     0.197 A 
ATOM     16  O   UNL d   1     -37.964  15.225  15.187  0.00  0.00    -0.286 OA
ATOM     17  C   UNL d   1     -37.940  13.811  15.437  0.00  0.00     0.042 A 
ATOM     18  C   UNL d   1     -38.033  13.178  15.958  0.00  0.00     0.005 A 
ATOM     19  C   UNL d   1     -38.242  13.336  16.744  0.00  0.00     0.019 A 
ENDBRANCH   2  13
TORSDOF 4
ENDMDL
