MODEL 1
REMARK VINA RESULT:      -7.7      0.000      0.000
REMARK  8 active torsions:
REMARK  status: ('A' for Active; 'I' for Inactive)
REMARK    1  A    between atoms: C_8  and  C_5 
REMARK    2  A    between atoms: S_22  and  C_6 
REMARK    3  A    between atoms: C_9  and  C_7 
REMARK    4  A    between atoms: C_12  and  C_9 
REMARK    5  A    between atoms: C_25  and  S_22 
REMARK    6  A    between atoms: O_24  and  C_26 
REMARK    7  A    between atoms: C_27  and  O_24 
REMARK    8  A    between atoms: C_26  and  C_25 
ROOT
ATOM      1  C   UNL d   1      53.126  32.399  53.490  0.00  0.00     0.082 A 
ATOM      2  N   UNL d   1      52.487  32.915  53.301  0.00  0.00    -0.238 NA
ATOM      3  C   UNL d   1      53.156  33.980  54.030  0.00  0.00     0.092 A 
ATOM      4  C   UNL d   1      53.757  32.682  53.940  0.00  0.00     0.019 A 
ATOM      5  C   UNL d   1      53.774  33.464  54.208  0.00  0.00     0.019 A 
ATOM      6  C   UNL d   1      52.503  33.695  53.567  0.00  0.00     0.120 A 
ATOM      7  C   UNL d   1      53.265  31.607  53.308  0.00  0.00     0.018 A 
ATOM      8  C   UNL d   1      53.183  34.780  54.308  0.00  0.00     0.103 C 
ATOM      9  N   UNL d   1      53.209  35.572  54.584  0.00  0.00    -0.191 NA
ATOM     10  C   UNL d   1      54.289  32.058  54.033  0.00  0.00     0.002 A 
ATOM     11  C   UNL d   1      53.988  31.386  53.642  0.00  0.00     0.002 A 
ENDROOT
BRANCH   5  12
ATOM     12  C   UNL d   1      54.422  33.734  54.662  0.00  0.00     0.030 A 
ATOM     13  S   UNL d   1      54.414  33.625  55.466  0.00  0.00    -0.086 SA
ATOM     14  C   UNL d   1      55.106  33.936  55.779  0.00  0.00     0.035 A 
ATOM     15  C   UNL d   1      55.533  34.235  55.148  0.00  0.00     0.007 A 
ATOM     16  C   UNL d   1      55.103  34.106  54.464  0.00  0.00     0.007 A 
ENDBRANCH   5  12
BRANCH   6  17
ATOM     17  S   UNL d   1      51.878  34.200  53.382  0.00  0.00    -0.065 SA
BRANCH  17  18
ATOM     18  C   UNL d   1      51.280  33.954  52.858  0.00  0.00     0.064 C 
BRANCH  18  19
ATOM     19  C   UNL d   1      50.565  34.400  52.786  0.00  0.00     0.130 C 
BRANCH  19  20
ATOM     20  O   UNL d   1      50.096  34.304  52.108  0.00  0.00    -0.303 OA
BRANCH  20  21
ATOM     21  C   UNL d   1      49.327  34.655  52.087  0.00  0.00     0.123 C 
ATOM     22  C   UNL d   1      48.886  34.609  51.410  0.00  0.00     0.029 C 
ENDBRANCH  20  21
ENDBRANCH  19  20
ENDBRANCH  18  19
ENDBRANCH  17  18
ENDBRANCH   6  17
BRANCH   7  23
ATOM     23  C   UNL d   1      52.768  31.089  52.857  0.00  0.00     0.008 C 
BRANCH  23  24
ATOM     24  C   UNL d   1      52.654  30.304  53.114  0.00  0.00     0.029 A 
ATOM     25  S   UNL d   1      53.181  29.695  53.241  0.00  0.00    -0.086 SA
ATOM     26  C   UNL d   1      52.739  29.043  53.496  0.00  0.00     0.035 A 
ATOM     27  C   UNL d   1      51.965  29.270  53.517  0.00  0.00     0.007 A 
ATOM     28  C   UNL d   1      51.896  30.035  53.287  0.00  0.00     0.007 A 
ENDBRANCH  23  24
ENDBRANCH   7  23
TORSDOF 8
ENDMDL
MODEL 2
REMARK VINA RESULT:      -5.8      1.653      4.147
REMARK  8 active torsions:
REMARK  status: ('A' for Active; 'I' for Inactive)
REMARK    1  A    between atoms: C_8  and  C_5 
REMARK    2  A    between atoms: S_22  and  C_6 
REMARK    3  A    between atoms: C_9  and  C_7 
REMARK    4  A    between atoms: C_12  and  C_9 
REMARK    5  A    between atoms: C_25  and  S_22 
REMARK    6  A    between atoms: O_24  and  C_26 
REMARK    7  A    between atoms: C_27  and  O_24 
REMARK    8  A    between atoms: C_26  and  C_25 
ROOT
ATOM      1  C   UNL d   1      51.454  33.738  52.825  0.00  0.00     0.082 A 
ATOM      2  N   UNL d   1      51.815  32.987  52.695  0.00  0.00    -0.238 NA
ATOM      3  C   UNL d   1      52.950  33.416  53.497  0.00  0.00     0.092 A 
ATOM      4  C   UNL d   1      51.844  34.302  53.283  0.00  0.00     0.019 A 
ATOM      5  C   UNL d   1      52.585  34.145  53.616  0.00  0.00     0.019 A 
ATOM      6  C   UNL d   1      52.554  32.829  53.027  0.00  0.00     0.120 A 
ATOM      7  C   UNL d   1      50.735  34.052  52.572  0.00  0.00     0.018 A 
ATOM      8  C   UNL d   1      53.708  33.264  53.842  0.00  0.00     0.103 C 
ATOM      9  N   UNL d   1      54.460  33.114  54.184  0.00  0.00    -0.191 NA
ATOM     10  C   UNL d   1      51.360  34.970  53.310  0.00  0.00     0.002 A 
ATOM     11  C   UNL d   1      50.669  34.820  52.870  0.00  0.00     0.002 A 
ENDROOT
BRANCH   5  12
ATOM     12  C   UNL d   1      52.966  34.729  54.077  0.00  0.00     0.030 A 
ATOM     13  S   UNL d   1      52.872  34.721  54.883  0.00  0.00    -0.086 SA
ATOM     14  C   UNL d   1      53.298  35.345  55.202  0.00  0.00     0.035 A 
ATOM     15  C   UNL d   1      53.651  35.732  54.573  0.00  0.00     0.007 A 
ATOM     16  C   UNL d   1      53.440  35.344  53.884  0.00  0.00     0.007 A 
ENDBRANCH   5  12
BRANCH   6  17
ATOM     17  S   UNL d   1      52.907  32.096  52.899  0.00  0.00    -0.065 SA
BRANCH  17  18
ATOM     18  C   UNL d   1      52.463  31.396  52.975  0.00  0.00     0.064 C 
BRANCH  18  19
ATOM     19  C   UNL d   1      52.841  30.641  52.920  0.00  0.00     0.130 C 
BRANCH  19  20
ATOM     20  O   UNL d   1      52.668  30.060  53.486  0.00  0.00    -0.303 OA
BRANCH  20  21
ATOM     21  C   UNL d   1      53.252  29.476  53.668  0.00  0.00     0.123 C 
ATOM     22  C   UNL d   1      53.215  29.082  54.374  0.00  0.00     0.029 C 
ENDBRANCH  20  21
ENDBRANCH  19  20
ENDBRANCH  18  19
ENDBRANCH  17  18
ENDBRANCH   6  17
BRANCH   7  23
ATOM     23  C   UNL d   1      50.150  33.673  52.090  0.00  0.00     0.008 C 
BRANCH  23  24
ATOM     24  C   UNL d   1      49.548  34.132  51.740  0.00  0.00     0.029 A 
ATOM     25  S   UNL d   1      48.961  34.593  52.068  0.00  0.00    -0.086 SA
ATOM     26  C   UNL d   1      48.528  34.915  51.439  0.00  0.00     0.035 A 
ATOM     27  C   UNL d   1      48.859  34.645  50.756  0.00  0.00     0.007 A 
ATOM     28  C   UNL d   1      49.481  34.167  50.921  0.00  0.00     0.007 A 
ENDBRANCH  23  24
ENDBRANCH   7  23
TORSDOF 8
ENDMDL
