MODEL 1
REMARK VINA RESULT:      -8.4      0.000      0.000
REMARK  6 active torsions:
REMARK  status: ('A' for Active; 'I' for Inactive)
REMARK    1  A    between atoms: O_9  and  S_1 
REMARK    2  A    between atoms: C_10  and  C_4 
REMARK    3  A    between atoms: C_14  and  O_9 
REMARK    4  A    between atoms: C_13  and  C_10 
REMARK    5  A    between atoms: C_16  and  C_13 
REMARK    6  A    between atoms: C_19  and  C_16 
ROOT
ATOM      1  C   UNL d   1      52.853  33.135  53.353  0.00  0.00     0.064 A 
ATOM      2  C   UNL d   1      52.294  32.591  53.079  0.00  0.00     0.105 A 
ATOM      3  C   UNL d   1      51.711  33.796  53.135  0.00  0.00     0.139 A 
ATOM      4  C   UNL d   1      52.492  33.876  53.387  0.00  0.00     0.220 A 
ATOM      5  O   UNL d   1      51.583  32.998  52.943  0.00  0.00    -0.304 OA
ATOM      6  C   UNL d   1      52.503  31.800  52.989  0.00  0.00     0.050 A 
ATOM      7  C   UNL d   1      53.618  32.885  53.536  0.00  0.00     0.007 A 
ATOM      8  C   UNL d   1      53.262  31.556  53.172  0.00  0.00     0.115 A 
ATOM      9  O   UNL d   1      52.852  34.582  53.632  0.00  0.00    -0.284 OA
ATOM     10  C   UNL d   1      53.823  32.091  53.444  0.00  0.00     0.026 A 
ENDROOT
BRANCH   3  11
ATOM     11  C   UNL d   1      51.149  34.400  53.082  0.00  0.00     0.028 C 
BRANCH  11  12
ATOM     12  C   UNL d   1      50.472  34.302  52.617  0.00  0.00     0.002 C 
BRANCH  12  13
ATOM     13  C   UNL d   1      49.830  34.807  52.706  0.00  0.00     0.000 C 
BRANCH  13  14
ATOM     14  C   UNL d   1      49.245  34.844  52.133  0.00  0.00     0.000 A 
ATOM     15  C   UNL d   1      49.370  34.515  51.386  0.00  0.00     0.000 A 
ATOM     16  C   UNL d   1      48.777  34.554  50.807  0.00  0.00     0.000 A 
ATOM     17  C   UNL d   1      48.058  34.923  50.980  0.00  0.00     0.000 A 
ATOM     18  C   UNL d   1      47.936  35.253  51.733  0.00  0.00     0.000 A 
ATOM     19  C   UNL d   1      48.530  35.211  52.304  0.00  0.00     0.000 A 
ENDBRANCH  13  14
ENDBRANCH  12  13
ENDBRANCH  11  12
ENDBRANCH   3  11
BRANCH   8  20
ATOM     20  O   UNL d   1      53.473  30.757  53.081  0.00  0.00    -0.230 OA
BRANCH  20  21
ATOM     21  S   UNL d   1      53.345  30.225  53.702  0.00  0.00     0.285 S 
ATOM     22  O   UNL d   1      53.313  29.942  52.925  0.00  0.00    -0.197 OA
ATOM     23  O   UNL d   1      53.373  30.490  54.469  0.00  0.00    -0.197 OA
ATOM     24  C   UNL d   1      53.179  29.455  53.977  0.00  0.00     0.172 C 
ENDBRANCH  20  21
ENDBRANCH   8  20
TORSDOF 6
ENDMDL
MODEL 2
REMARK VINA RESULT:      -7.9      1.823      2.427
REMARK  6 active torsions:
REMARK  status: ('A' for Active; 'I' for Inactive)
REMARK    1  A    between atoms: O_9  and  S_1 
REMARK    2  A    between atoms: C_10  and  C_4 
REMARK    3  A    between atoms: C_14  and  O_9 
REMARK    4  A    between atoms: C_13  and  C_10 
REMARK    5  A    between atoms: C_16  and  C_13 
REMARK    6  A    between atoms: C_19  and  C_16 
ROOT
ATOM      1  C   UNL d   1      52.041  33.837  52.687  0.00  0.00     0.064 A 
ATOM      2  C   UNL d   1      51.689  33.730  53.426  0.00  0.00     0.105 A 
ATOM      3  C   UNL d   1      50.742  34.132  52.568  0.00  0.00     0.139 A 
ATOM      4  C   UNL d   1      51.456  34.085  52.160  0.00  0.00     0.220 A 
ATOM      5  O   UNL d   1      50.881  33.912  53.358  0.00  0.00    -0.304 OA
ATOM      6  C   UNL d   1      52.145  33.481  54.064  0.00  0.00     0.050 A 
ATOM      7  C   UNL d   1      52.848  33.696  52.588  0.00  0.00     0.007 A 
ATOM      8  C   UNL d   1      52.945  33.342  53.963  0.00  0.00     0.115 A 
ATOM      9  O   UNL d   1      51.566  34.257  51.356  0.00  0.00    -0.284 OA
ATOM     10  C   UNL d   1      53.302  33.447  53.230  0.00  0.00     0.026 A 
ENDROOT
BRANCH   3  11
ATOM     11  C   UNL d   1      50.011  34.358  52.254  0.00  0.00     0.028 C 
BRANCH  11  12
ATOM     12  C   UNL d   1      49.502  34.845  52.687  0.00  0.00     0.002 C 
BRANCH  12  13
ATOM     13  C   UNL d   1      48.788  35.091  52.364  0.00  0.00     0.000 C 
BRANCH  13  14
ATOM     14  C   UNL d   1      48.311  35.627  52.762  0.00  0.00     0.000 A 
ATOM     15  C   UNL d   1      48.470  35.823  53.548  0.00  0.00     0.000 A 
ATOM     16  C   UNL d   1      47.987  36.365  53.950  0.00  0.00     0.000 A 
ATOM     17  C   UNL d   1      47.345  36.709  53.560  0.00  0.00     0.000 A 
ATOM     18  C   UNL d   1      47.189  36.509  52.769  0.00  0.00     0.000 A 
ATOM     19  C   UNL d   1      47.673  35.970  52.376  0.00  0.00     0.000 A 
ENDBRANCH  13  14
ENDBRANCH  12  13
ENDBRANCH  11  12
ENDBRANCH   3  11
BRANCH   8  20
ATOM     20  O   UNL d   1      53.407  33.091  54.608  0.00  0.00    -0.230 OA
BRANCH  20  21
ATOM     21  S   UNL d   1      54.009  33.579  54.896  0.00  0.00     0.285 S 
ATOM     22  O   UNL d   1      54.115  32.759  54.926  0.00  0.00    -0.197 OA
ATOM     23  O   UNL d   1      53.918  34.385  54.872  0.00  0.00    -0.197 OA
ATOM     24  C   UNL d   1      54.761  33.678  55.244  0.00  0.00     0.172 C 
ENDBRANCH  20  21
ENDBRANCH   8  20
TORSDOF 6
ENDMDL
MODEL 3
REMARK VINA RESULT:      -7.8      3.362      6.180
REMARK  6 active torsions:
REMARK  status: ('A' for Active; 'I' for Inactive)
REMARK    1  A    between atoms: O_9  and  S_1 
REMARK    2  A    between atoms: C_10  and  C_4 
REMARK    3  A    between atoms: C_14  and  O_9 
REMARK    4  A    between atoms: C_13  and  C_10 
REMARK    5  A    between atoms: C_16  and  C_13 
REMARK    6  A    between atoms: C_19  and  C_16 
ROOT
ATOM      1  C   UNL d   1      48.185  35.353  52.017  0.00  0.00     0.064 A 
ATOM      2  C   UNL d   1      48.400  35.489  52.803  0.00  0.00     0.105 A 
ATOM      3  C   UNL d   1      49.401  34.829  52.205  0.00  0.00     0.139 A 
ATOM      4  C   UNL d   1      48.803  34.946  51.650  0.00  0.00     0.220 A 
ATOM      5  O   UNL d   1      49.154  35.165  52.925  0.00  0.00    -0.304 OA
ATOM      6  C   UNL d   1      47.883  35.888  53.304  0.00  0.00     0.050 A 
ATOM      7  C   UNL d   1      47.455  35.616  51.735  0.00  0.00     0.007 A 
ATOM      8  C   UNL d   1      47.161  36.147  53.022  0.00  0.00     0.115 A 
ATOM      9  O   UNL d   1      48.820  34.698  50.860  0.00  0.00    -0.284 OA
ATOM     10  C   UNL d   1      46.940  36.016  52.241  0.00  0.00     0.026 A 
ENDROOT
BRANCH   3  11
ATOM     11  C   UNL d   1      50.122  34.445  52.075  0.00  0.00     0.028 C 
BRANCH  11  12
ATOM     12  C   UNL d   1      50.693  34.415  52.673  0.00  0.00     0.002 C 
BRANCH  12  13
ATOM     13  C   UNL d   1      51.424  34.066  52.531  0.00  0.00     0.000 C 
BRANCH  13  14
ATOM     14  C   UNL d   1      52.016  34.093  53.097  0.00  0.00     0.000 A 
ATOM     15  C   UNL d   1      52.386  34.809  53.281  0.00  0.00     0.000 A 
ATOM     16  C   UNL d   1      52.985  34.835  53.853  0.00  0.00     0.000 A 
ATOM     17  C   UNL d   1      53.213  34.142  54.241  0.00  0.00     0.000 A 
ATOM     18  C   UNL d   1      52.840  33.424  54.053  0.00  0.00     0.000 A 
ATOM     19  C   UNL d   1      52.244  33.405  53.482  0.00  0.00     0.000 A 
ENDBRANCH  13  14
ENDBRANCH  12  13
ENDBRANCH  11  12
ENDBRANCH   3  11
BRANCH   8  20
ATOM     20  O   UNL d   1      46.639  36.551  53.529  0.00  0.00    -0.230 OA
BRANCH  20  21
ATOM     21  S   UNL d   1      46.026  36.138  53.900  0.00  0.00     0.285 S 
ATOM     22  O   UNL d   1      46.437  36.709  54.333  0.00  0.00    -0.197 OA
ATOM     23  O   UNL d   1      45.614  35.574  53.485  0.00  0.00    -0.197 OA
ATOM     24  C   UNL d   1      45.553  35.986  54.570  0.00  0.00     0.172 C 
ENDBRANCH  20  21
ENDBRANCH   8  20
TORSDOF 6
ENDMDL
MODEL 4
REMARK VINA RESULT:      -7.5      1.720      5.413
REMARK  6 active torsions:
REMARK  status: ('A' for Active; 'I' for Inactive)
REMARK    1  A    between atoms: O_9  and  S_1 
REMARK    2  A    between atoms: C_10  and  C_4 
REMARK    3  A    between atoms: C_14  and  O_9 
REMARK    4  A    between atoms: C_13  and  C_10 
REMARK    5  A    between atoms: C_16  and  C_13 
REMARK    6  A    between atoms: C_19  and  C_16 
ROOT
ATOM      1  C   UNL d   1      52.303  33.568  53.028  0.00  0.00     0.064 A 
ATOM      2  C   UNL d   1      51.632  33.087  53.058  0.00  0.00     0.105 A 
ATOM      3  C   UNL d   1      52.713  32.296  53.060  0.00  0.00     0.139 A 
ATOM      4  C   UNL d   1      52.968  33.079  53.029  0.00  0.00     0.220 A 
ATOM      5  O   UNL d   1      51.882  32.295  53.079  0.00  0.00    -0.304 OA
ATOM      6  C   UNL d   1      50.883  33.428  53.064  0.00  0.00     0.050 A 
ATOM      7  C   UNL d   1      52.222  34.389  53.003  0.00  0.00     0.007 A 
ATOM      8  C   UNL d   1      50.807  34.242  53.039  0.00  0.00     0.115 A 
ATOM      9  O   UNL d   1      53.757  33.332  53.004  0.00  0.00    -0.284 OA
ATOM     10  C   UNL d   1      51.469  34.728  53.008  0.00  0.00     0.026 A 
ENDROOT
BRANCH   3  11
ATOM     11  C   UNL d   1      53.196  31.624  53.072  0.00  0.00     0.028 C 
BRANCH  11  12
ATOM     12  C   UNL d   1      52.988  30.968  53.530  0.00  0.00     0.002 C 
BRANCH  12  13
ATOM     13  C   UNL d   1      53.358  30.244  53.411  0.00  0.00     0.000 C 
BRANCH  13  14
ATOM     14  C   UNL d   1      53.366  29.676  54.002  0.00  0.00     0.000 A 
ATOM     15  C   UNL d   1      53.057  29.846  54.749  0.00  0.00     0.000 A 
ATOM     16  C   UNL d   1      53.066  29.270  55.346  0.00  0.00     0.000 A 
ATOM     17  C   UNL d   1      53.385  28.524  55.192  0.00  0.00     0.000 A 
ATOM     18  C   UNL d   1      53.695  28.357  54.439  0.00  0.00     0.000 A 
ATOM     19  C   UNL d   1      53.683  28.934  53.850  0.00  0.00     0.000 A 
ENDBRANCH  13  14
ENDBRANCH  12  13
ENDBRANCH  11  12
ENDBRANCH   3  11
BRANCH   8  20
ATOM     20  O   UNL d   1      50.050  34.588  53.044  0.00  0.00    -0.230 OA
BRANCH  20  21
ATOM     21  S   UNL d   1      49.635  34.677  52.335  0.00  0.00     0.285 S 
ATOM     22  O   UNL d   1      49.305  34.985  53.028  0.00  0.00    -0.197 OA
ATOM     23  O   UNL d   1      49.947  34.380  51.647  0.00  0.00    -0.197 OA
ATOM     24  C   UNL d   1      48.972  34.954  51.910  0.00  0.00     0.172 C 
ENDBRANCH  20  21
ENDBRANCH   8  20
TORSDOF 6
ENDMDL
MODEL 5
REMARK VINA RESULT:      -7.5      2.669      5.711
REMARK  6 active torsions:
REMARK  status: ('A' for Active; 'I' for Inactive)
REMARK    1  A    between atoms: O_9  and  S_1 
REMARK    2  A    between atoms: C_10  and  C_4 
REMARK    3  A    between atoms: C_14  and  O_9 
REMARK    4  A    between atoms: C_13  and  C_10 
REMARK    5  A    between atoms: C_16  and  C_13 
REMARK    6  A    between atoms: C_19  and  C_16 
ROOT
ATOM      1  C   UNL d   1      50.088  34.554  52.184  0.00  0.00     0.064 A 
ATOM      2  C   UNL d   1      50.141  34.809  52.968  0.00  0.00     0.105 A 
ATOM      3  C   UNL d   1      51.349  34.369  52.591  0.00  0.00     0.139 A 
ATOM      4  C   UNL d   1      50.833  34.283  51.954  0.00  0.00     0.220 A 
ATOM      5  O   UNL d   1      50.923  34.696  53.225  0.00  0.00    -0.304 OA
ATOM      6  C   UNL d   1      49.475  35.110  53.346  0.00  0.00     0.050 A 
ATOM      7  C   UNL d   1      49.370  34.601  51.782  0.00  0.00     0.007 A 
ATOM      8  C   UNL d   1      48.764  35.155  52.944  0.00  0.00     0.115 A 
ATOM      9  O   UNL d   1      51.030  33.977  51.209  0.00  0.00    -0.284 OA
ATOM     10  C   UNL d   1      48.704  34.903  52.164  0.00  0.00     0.026 A 
ENDROOT
BRANCH   3  11
ATOM     11  C   UNL d   1      52.150  34.166  52.602  0.00  0.00     0.028 C 
BRANCH  11  12
ATOM     12  C   UNL d   1      52.520  33.963  53.314  0.00  0.00     0.002 C 
BRANCH  12  13
ATOM     13  C   UNL d   1      53.315  33.756  53.325  0.00  0.00     0.000 C 
BRANCH  13  14
ATOM     14  C   UNL d   1      53.674  33.509  54.020  0.00  0.00     0.000 A 
ATOM     15  C   UNL d   1      54.063  34.053  54.504  0.00  0.00     0.000 A 
ATOM     16  C   UNL d   1      54.426  33.803  55.207  0.00  0.00     0.000 A 
ATOM     17  C   UNL d   1      54.396  33.005  55.422  0.00  0.00     0.000 A 
ATOM     18  C   UNL d   1      54.003  32.461  54.932  0.00  0.00     0.000 A 
ATOM     19  C   UNL d   1      53.645  32.718  54.234  0.00  0.00     0.000 A 
ENDBRANCH  13  14
ENDBRANCH  12  13
ENDBRANCH  11  12
ENDBRANCH   3  11
BRANCH   8  20
ATOM     20  O   UNL d   1      48.091  35.459  53.326  0.00  0.00    -0.230 OA
BRANCH  20  21
ATOM     21  S   UNL d   1      47.712  36.128  53.020  0.00  0.00     0.285 S 
ATOM     22  O   UNL d   1      47.418  35.789  53.715  0.00  0.00    -0.197 OA
ATOM     23  O   UNL d   1      47.992  36.471  52.340  0.00  0.00    -0.197 OA
ATOM     24  C   UNL d   1      47.112  36.705  53.060  0.00  0.00     0.172 C 
ENDBRANCH  20  21
ENDBRANCH   8  20
TORSDOF 6
ENDMDL
MODEL 6
REMARK VINA RESULT:      -7.1      2.499      5.367
REMARK  6 active torsions:
REMARK  status: ('A' for Active; 'I' for Inactive)
REMARK    1  A    between atoms: O_9  and  S_1 
REMARK    2  A    between atoms: C_10  and  C_4 
REMARK    3  A    between atoms: C_14  and  O_9 
REMARK    4  A    between atoms: C_13  and  C_10 
REMARK    5  A    between atoms: C_16  and  C_13 
REMARK    6  A    between atoms: C_19  and  C_16 
ROOT
ATOM      1  C   UNL d   1      52.445  33.424  53.027  0.00  0.00     0.064 A 
ATOM      2  C   UNL d   1      53.151  33.382  53.454  0.00  0.00     0.105 A 
ATOM      3  C   UNL d   1      52.849  32.150  53.023  0.00  0.00     0.139 A 
ATOM      4  C   UNL d   1      52.261  32.665  52.762  0.00  0.00     0.220 A 
ATOM      5  O   UNL d   1      53.406  32.591  53.454  0.00  0.00    -0.304 OA
ATOM      6  C   UNL d   1      53.470  34.063  53.787  0.00  0.00     0.050 A 
ATOM      7  C   UNL d   1      52.061  34.149  52.934  0.00  0.00     0.007 A 
ATOM      8  C   UNL d   1      53.087  34.780  53.693  0.00  0.00     0.115 A 
ATOM      9  O   UNL d   1      51.598  32.455  52.311  0.00  0.00    -0.284 OA
ATOM     10  C   UNL d   1      52.384  34.830  53.269  0.00  0.00     0.026 A 
ENDROOT
BRANCH   3  11
ATOM     11  C   UNL d   1      52.885  31.336  52.882  0.00  0.00     0.028 C 
BRANCH  11  12
ATOM     12  C   UNL d   1      53.123  30.818  53.482  0.00  0.00     0.002 C 
BRANCH  12  13
ATOM     13  C   UNL d   1      53.000  30.009  53.406  0.00  0.00     0.000 C 
BRANCH  13  14
ATOM     14  C   UNL d   1      53.188  29.498  54.018  0.00  0.00     0.000 A 
ATOM     15  C   UNL d   1      53.708  28.869  53.893  0.00  0.00     0.000 A 
ATOM     16  C   UNL d   1      53.898  28.352  54.513  0.00  0.00     0.000 A 
ATOM     17  C   UNL d   1      53.565  28.469  55.260  0.00  0.00     0.000 A 
ATOM     18  C   UNL d   1      53.042  29.103  55.383  0.00  0.00     0.000 A 
ATOM     19  C   UNL d   1      52.858  29.613  54.761  0.00  0.00     0.000 A 
ENDBRANCH  13  14
ENDBRANCH  12  13
ENDBRANCH  11  12
ENDBRANCH   3  11
BRANCH   8  20
ATOM     20  O   UNL d   1      53.409  35.469  54.029  0.00  0.00    -0.230 OA
BRANCH  20  21
ATOM     21  S   UNL d   1      53.169  35.709  54.784  0.00  0.00     0.285 S 
ATOM     22  O   UNL d   1      53.341  36.289  54.220  0.00  0.00    -0.197 OA
ATOM     23  O   UNL d   1      52.997  35.149  55.346  0.00  0.00    -0.197 OA
ATOM     24  C   UNL d   1      52.991  36.311  55.333  0.00  0.00     0.172 C 
ENDBRANCH  20  21
ENDBRANCH   8  20
TORSDOF 6
ENDMDL
MODEL 7
REMARK VINA RESULT:      -5.6     10.106     10.705
REMARK  6 active torsions:
REMARK  status: ('A' for Active; 'I' for Inactive)
REMARK    1  A    between atoms: O_9  and  S_1 
REMARK    2  A    between atoms: C_10  and  C_4 
REMARK    3  A    between atoms: C_14  and  O_9 
REMARK    4  A    between atoms: C_13  and  C_10 
REMARK    5  A    between atoms: C_16  and  C_13 
REMARK    6  A    between atoms: C_19  and  C_16 
ROOT
ATOM      1  C   UNL d   1      44.920  29.835  57.986  0.00  0.00     0.064 A 
ATOM      2  C   UNL d   1      44.778  29.166  58.448  0.00  0.00     0.105 A 
ATOM      3  C   UNL d   1      44.930  30.215  59.268  0.00  0.00     0.139 A 
ATOM      4  C   UNL d   1      45.013  30.480  58.492  0.00  0.00     0.220 A 
ATOM      5  O   UNL d   1      44.783  29.396  59.246  0.00  0.00    -0.304 OA
ATOM      6  C   UNL d   1      44.662  28.436  58.087  0.00  0.00     0.050 A 
ATOM      7  C   UNL d   1      44.946  29.772  57.163  0.00  0.00     0.007 A 
ATOM      8  C   UNL d   1      44.688  28.377  57.271  0.00  0.00     0.115 A 
ATOM      9  O   UNL d   1      45.165  31.262  58.262  0.00  0.00    -0.284 OA
ATOM     10  C   UNL d   1      44.829  29.038  56.804  0.00  0.00     0.026 A 
ENDROOT
BRANCH   3  11
ATOM     11  C   UNL d   1      44.982  30.676  59.952  0.00  0.00     0.028 C 
BRANCH  11  12
ATOM     12  C   UNL d   1      44.770  30.360  60.687  0.00  0.00     0.002 C 
BRANCH  12  13
ATOM     13  C   UNL d   1      45.003  30.732  61.382  0.00  0.00     0.000 C 
BRANCH  13  14
ATOM     14  C   UNL d   1      44.776  30.435  62.111  0.00  0.00     0.000 A 
ATOM     15  C   UNL d   1      44.777  29.621  62.250  0.00  0.00     0.000 A 
ATOM     16  C   UNL d   1      44.547  29.321  62.988  0.00  0.00     0.000 A 
ATOM     17  C   UNL d   1      44.315  29.841  63.587  0.00  0.00     0.000 A 
ATOM     18  C   UNL d   1      44.316  30.660  63.444  0.00  0.00     0.000 A 
ATOM     19  C   UNL d   1      44.546  30.950  62.707  0.00  0.00     0.000 A 
ENDBRANCH  13  14
ENDBRANCH  12  13
ENDBRANCH  11  12
ENDBRANCH   3  11
BRANCH   8  20
ATOM     20  O   UNL d   1      44.572  27.639  56.905  0.00  0.00    -0.230 OA
BRANCH  20  21
ATOM     21  S   UNL d   1      45.144  27.047  56.983  0.00  0.00     0.285 S 
ATOM     22  O   UNL d   1      44.703  27.083  56.284  0.00  0.00    -0.197 OA
ATOM     23  O   UNL d   1      45.584  27.001  57.664  0.00  0.00    -0.197 OA
ATOM     24  C   UNL d   1      45.553  26.387  56.678  0.00  0.00     0.172 C 
ENDBRANCH  20  21
ENDBRANCH   8  20
TORSDOF 6
ENDMDL
