MODEL 1
REMARK VINA RESULT:      -5.1      0.000      0.000
REMARK  2 active torsions:
REMARK  status: ('A' for Active; 'I' for Inactive)
REMARK    1  A    between atoms: C_2  and  N_1 
REMARK    2  A    between atoms: N_8  and  C_3 
REMARK       I    between atoms: C_12  and  N_8 
ROOT
ATOM      1  N   UNL d   1      57.748   0.372  30.656  0.00  0.00    -0.189 N 
ATOM      2  C   UNL d   1      58.557   0.547  30.636  0.00  0.00     0.171 A 
ATOM      3  N   UNL d   1      57.455   0.398  29.881  0.00  0.00    -0.162 NA
ATOM      4  C   UNL d   1      58.762   0.681  29.846  0.00  0.00     0.060 A 
ATOM      5  C   UNL d   1      58.088   0.590  29.383  0.00  0.00     0.105 A 
ATOM      6  C   UNL d   1      58.050   0.676  28.560  0.00  0.00     0.023 C 
ENDROOT
BRANCH   1   7
ATOM      7  C   UNL d   1      57.284   0.200  31.301  0.00  0.00     0.197 A 
ATOM      8  N   UNL d   1      57.050  -0.578  31.441  0.00  0.00    -0.221 NA
ATOM      9  C   UNL d   1      56.584  -0.579  32.136  0.00  0.00     0.090 A 
ATOM     10  C   UNL d   1      56.203  -1.165  32.547  0.00  0.00     0.020 A 
ATOM     11  C   UNL d   1      56.550   0.206  32.398  0.00  0.00     0.050 A 
ATOM     12  C   UNL d   1      55.774  -0.993  33.233  0.00  0.00     0.002 A 
ATOM     13  C   UNL d   1      55.742  -0.220  33.488  0.00  0.00     0.001 A 
ATOM     14  C   UNL d   1      56.127   0.384  33.077  0.00  0.00     0.008 A 
ATOM     15  S   UNL d   1      56.982   0.674  31.879  0.00  0.00    -0.047 SA
ENDBRANCH   1   7
BRANCH   2  16
ATOM     16  N   UNL d   1      59.070   0.583  31.285  0.00  0.00    -0.189 NA
ATOM     17  C   UNL d   1      59.867   0.641  31.151  0.00  0.00     0.281 C 
ATOM     18  O   UNL d   1      60.384   0.677  31.797  0.00  0.00    -0.265 OA
ATOM     19  C   UNL d   1      60.179   0.666  30.395  0.00  0.00     0.068 C 
ENDBRANCH   2  16
TORSDOF 2
ENDMDL
MODEL 2
REMARK VINA RESULT:      -4.1      1.104      1.786
REMARK  2 active torsions:
REMARK  status: ('A' for Active; 'I' for Inactive)
REMARK    1  A    between atoms: C_2  and  N_1 
REMARK    2  A    between atoms: N_8  and  C_3 
REMARK       I    between atoms: C_12  and  N_8 
ROOT
ATOM      1  N   UNL d   1      58.379   0.387  31.271  0.00  0.00    -0.189 N 
ATOM      2  C   UNL d   1      58.411   0.537  30.458  0.00  0.00     0.171 A 
ATOM      3  N   UNL d   1      59.148   0.422  31.575  0.00  0.00    -0.162 NA
ATOM      4  C   UNL d   1      59.205   0.665  30.261  0.00  0.00     0.060 A 
ATOM      5  C   UNL d   1      59.657   0.595  30.945  0.00  0.00     0.105 A 
ATOM      6  C   UNL d   1      60.479   0.682  30.994  0.00  0.00     0.023 C 
ENDROOT
BRANCH   1   7
ATOM      7  C   UNL d   1      57.726   0.229  31.729  0.00  0.00     0.197 A 
ATOM      8  N   UNL d   1      57.354  -0.506  31.673  0.00  0.00    -0.221 NA
ATOM      9  C   UNL d   1      56.708  -0.502  32.205  0.00  0.00     0.090 A 
ATOM     10  C   UNL d   1      56.144  -1.052  32.397  0.00  0.00     0.020 A 
ATOM     11  C   UNL d   1      56.709   0.241  32.571  0.00  0.00     0.050 A 
ATOM     12  C   UNL d   1      55.561  -0.885  32.958  0.00  0.00     0.002 A 
ATOM     13  C   UNL d   1      55.564  -0.153  33.316  0.00  0.00     0.001 A 
ATOM     14  C   UNL d   1      56.133   0.414  33.128  0.00  0.00     0.008 A 
ATOM     15  S   UNL d   1      57.336   0.680  32.272  0.00  0.00    -0.047 SA
ENDBRANCH   1   7
BRANCH   2  16
ATOM     16  N   UNL d   1      57.771   0.556  29.933  0.00  0.00    -0.189 NA
ATOM     17  C   UNL d   1      57.917   0.628  29.139  0.00  0.00     0.281 C 
ATOM     18  O   UNL d   1      57.280   0.647  28.611  0.00  0.00    -0.265 OA
ATOM     19  C   UNL d   1      58.678   0.681  28.841  0.00  0.00     0.068 C 
ENDBRANCH   2  16
TORSDOF 2
ENDMDL
MODEL 3
REMARK VINA RESULT:      -3.6      1.679      1.863
REMARK  2 active torsions:
REMARK  status: ('A' for Active; 'I' for Inactive)
REMARK    1  A    between atoms: C_2  and  N_1 
REMARK    2  A    between atoms: N_8  and  C_3 
REMARK       I    between atoms: C_12  and  N_8 
ROOT
ATOM      1  N   UNL d   1      57.937  -0.321  30.160  0.00  0.00    -0.189 N 
ATOM      2  C   UNL d   1      58.255  -0.960  29.741  0.00  0.00     0.171 A 
ATOM      3  N   UNL d   1      58.084   0.373  29.732  0.00  0.00    -0.162 NA
ATOM      4  C   UNL d   1      58.600  -0.657  29.053  0.00  0.00     0.060 A 
ATOM      5  C   UNL d   1      58.496   0.159  29.046  0.00  0.00     0.105 A 
ATOM      6  C   UNL d   1      58.758   0.677  28.455  0.00  0.00     0.023 C 
ENDROOT
BRANCH   1   7
ATOM      7  C   UNL d   1      57.541  -0.330  30.870  0.00  0.00     0.197 A 
ATOM      8  N   UNL d   1      57.029  -0.953  31.046  0.00  0.00    -0.221 NA
ATOM      9  C   UNL d   1      56.709  -0.807  31.806  0.00  0.00     0.090 A 
ATOM     10  C   UNL d   1      56.183  -1.212  32.272  0.00  0.00     0.020 A 
ATOM     11  C   UNL d   1      57.039  -0.095  32.068  0.00  0.00     0.050 A 
ATOM     12  C   UNL d   1      55.967  -0.924  33.016  0.00  0.00     0.002 A 
ATOM     13  C   UNL d   1      56.293  -0.223  33.272  0.00  0.00     0.001 A 
ATOM     14  C   UNL d   1      56.829   0.197  32.805  0.00  0.00     0.008 A 
ATOM     15  S   UNL d   1      57.546   0.189  31.488  0.00  0.00    -0.047 SA
ENDBRANCH   1   7
BRANCH   2  16
ATOM     16  N   UNL d   1      58.235  -1.757  29.966  0.00  0.00    -0.189 NA
ATOM     17  C   UNL d   1      58.578  -2.309  29.481  0.00  0.00     0.281 C 
ATOM     18  O   UNL d   1      58.559  -3.106  29.702  0.00  0.00    -0.265 OA
ATOM     19  C   UNL d   1      58.943  -2.102  28.778  0.00  0.00     0.068 C 
ENDBRANCH   2  16
TORSDOF 2
ENDMDL
MODEL 4
REMARK VINA RESULT:      -3.5      9.718     10.251
REMARK  2 active torsions:
REMARK  status: ('A' for Active; 'I' for Inactive)
REMARK    1  A    between atoms: C_2  and  N_1 
REMARK    2  A    between atoms: N_8  and  C_3 
REMARK       I    between atoms: C_12  and  N_8 
ROOT
ATOM      1  N   UNL d   1      59.996  -9.490  32.849  0.00  0.00    -0.189 N 
ATOM      2  C   UNL d   1      59.354  -9.623  32.344  0.00  0.00     0.171 A 
ATOM      3  N   UNL d   1      60.694  -9.546  32.407  0.00  0.00    -0.162 NA
ATOM      4  C   UNL d   1      59.658  -9.761  31.587  0.00  0.00     0.060 A 
ATOM      5  C   UNL d   1      60.479  -9.715  31.625  0.00  0.00     0.105 A 
ATOM      6  C   UNL d   1      61.000  -9.818  30.989  0.00  0.00     0.023 C 
ENDROOT
BRANCH   1   7
ATOM      7  C   UNL d   1      59.986  -9.330  33.646  0.00  0.00     0.197 A 
ATOM      8  N   UNL d   1      60.039  -8.549  33.908  0.00  0.00    -0.221 NA
ATOM      9  C   UNL d   1      60.015  -8.562  34.744  0.00  0.00     0.090 A 
ATOM     10  C   UNL d   1      60.044  -7.981  35.309  0.00  0.00     0.020 A 
ATOM     11  C   UNL d   1      59.947  -9.358  34.965  0.00  0.00     0.050 A 
ATOM     12  C   UNL d   1      60.007  -8.168  36.114  0.00  0.00     0.002 A 
ATOM     13  C   UNL d   1      59.941  -8.951  36.328  0.00  0.00     0.001 A 
ATOM     14  C   UNL d   1      59.910  -9.550  35.761  0.00  0.00     0.008 A 
ATOM     15  S   UNL d   1      59.930  -9.818  34.285  0.00  0.00    -0.047 SA
ENDBRANCH   1   7
BRANCH   2  16
ATOM     16  N   UNL d   1      58.552  -9.619  32.553  0.00  0.00    -0.189 NA
ATOM     17  C   UNL d   1      57.995  -9.652  31.965  0.00  0.00     0.281 C 
ATOM     18  O   UNL d   1      57.192  -9.648  32.170  0.00  0.00    -0.265 OA
ATOM     19  C   UNL d   1      58.200  -9.689  31.174  0.00  0.00     0.068 C 
ENDBRANCH   2  16
TORSDOF 2
ENDMDL
MODEL 5
REMARK VINA RESULT:      -3.3      1.514      3.587
REMARK  2 active torsions:
REMARK  status: ('A' for Active; 'I' for Inactive)
REMARK    1  A    between atoms: C_2  and  N_1 
REMARK    2  A    between atoms: N_8  and  C_3 
REMARK       I    between atoms: C_12  and  N_8 
ROOT
ATOM      1  N   UNL d   1      56.416   0.237  32.580  0.00  0.00    -0.189 N 
ATOM      2  C   UNL d   1      56.671   0.381  33.354  0.00  0.00     0.171 A 
ATOM      3  N   UNL d   1      55.588   0.203  32.579  0.00  0.00    -0.162 NA
ATOM      4  C   UNL d   1      55.997   0.436  33.831  0.00  0.00     0.060 A 
ATOM      5  C   UNL d   1      55.333   0.327  33.357  0.00  0.00     0.105 A 
ATOM      6  C   UNL d   1      54.547   0.340  33.615  0.00  0.00     0.023 C 
ENDROOT
BRANCH   1   7
ATOM      7  C   UNL d   1      56.866   0.140  31.910  0.00  0.00     0.197 A 
ATOM      8  N   UNL d   1      57.015  -0.619  31.623  0.00  0.00    -0.221 NA
ATOM      9  C   UNL d   1      57.487  -0.540  30.937  0.00  0.00     0.090 A 
ATOM     10  C   UNL d   1      57.807  -1.076  30.419  0.00  0.00     0.020 A 
ATOM     11  C   UNL d   1      57.610   0.272  30.829  0.00  0.00     0.050 A 
ATOM     12  C   UNL d   1      58.261  -0.825  29.775  0.00  0.00     0.002 A 
ATOM     13  C   UNL d   1      58.381  -0.027  29.671  0.00  0.00     0.001 A 
ATOM     14  C   UNL d   1      58.060   0.527  30.192  0.00  0.00     0.008 A 
ATOM     15  S   UNL d   1      57.226   0.678  31.430  0.00  0.00    -0.047 SA
ENDBRANCH   1   7
BRANCH   2  16
ATOM     16  N   UNL d   1      57.455   0.457  33.609  0.00  0.00    -0.189 NA
ATOM     17  C   UNL d   1      57.599   0.605  34.393  0.00  0.00     0.281 C 
ATOM     18  O   UNL d   1      58.382   0.682  34.652  0.00  0.00    -0.265 OA
ATOM     19  C   UNL d   1      56.994   0.682  34.939  0.00  0.00     0.068 C 
ENDBRANCH   2  16
TORSDOF 2
ENDMDL
MODEL 6
REMARK VINA RESULT:      -3.2      9.090     10.261
REMARK  2 active torsions:
REMARK  status: ('A' for Active; 'I' for Inactive)
REMARK    1  A    between atoms: C_2  and  N_1 
REMARK    2  A    between atoms: N_8  and  C_3 
REMARK       I    between atoms: C_12  and  N_8 
ROOT
ATOM      1  N   UNL d   1      59.689  -9.220  34.715  0.00  0.00    -0.189 N 
ATOM      2  C   UNL d   1      59.698  -8.530  35.173  0.00  0.00     0.171 A 
ATOM      3  N   UNL d   1      60.160  -9.789  35.089  0.00  0.00    -0.162 NA
ATOM      4  C   UNL d   1      60.176  -8.677  35.832  0.00  0.00     0.060 A 
ATOM      5  C   UNL d   1      60.460  -9.448  35.782  0.00  0.00     0.105 A 
ATOM      6  C   UNL d   1      60.959  -9.818  36.329  0.00  0.00     0.023 C 
ENDROOT
BRANCH   1   7
ATOM      7  C   UNL d   1      59.300  -9.355  34.014  0.00  0.00     0.197 A 
ATOM      8  N   UNL d   1      59.726  -9.394  33.309  0.00  0.00    -0.221 NA
ATOM      9  C   UNL d   1      59.179  -9.537  32.692  0.00  0.00     0.090 A 
ATOM     10  C   UNL d   1      59.260  -9.629  31.890  0.00  0.00     0.020 A 
ATOM     11  C   UNL d   1      58.432  -9.581  33.046  0.00  0.00     0.050 A 
ATOM     12  C   UNL d   1      58.601  -9.768  31.411  0.00  0.00     0.002 A 
ATOM     13  C   UNL d   1      57.867  -9.811  31.761  0.00  0.00     0.001 A 
ATOM     14  C   UNL d   1      57.774  -9.719  32.576  0.00  0.00     0.008 A 
ATOM     15  S   UNL d   1      58.518  -9.468  33.855  0.00  0.00    -0.047 SA
ENDBRANCH   1   7
BRANCH   2  16
ATOM     16  N   UNL d   1      59.302  -7.822  35.007  0.00  0.00    -0.189 NA
ATOM     17  C   UNL d   1      59.294  -7.238  35.569  0.00  0.00     0.281 C 
ATOM     18  O   UNL d   1      58.899  -6.528  35.407  0.00  0.00    -0.265 OA
ATOM     19  C   UNL d   1      59.664  -7.327  36.293  0.00  0.00     0.068 C 
ENDBRANCH   2  16
TORSDOF 2
ENDMDL
MODEL 7
REMARK VINA RESULT:      -2.2      1.648      3.876
REMARK  2 active torsions:
REMARK  status: ('A' for Active; 'I' for Inactive)
REMARK    1  A    between atoms: C_2  and  N_1 
REMARK    2  A    between atoms: N_8  and  C_3 
REMARK       I    between atoms: C_12  and  N_8 
ROOT
ATOM      1  N   UNL d   1      57.515   0.095  32.149  0.00  0.00    -0.189 N 
ATOM      2  C   UNL d   1      56.945  -0.384  32.511  0.00  0.00     0.171 A 
ATOM      3  N   UNL d   1      57.880   0.555  32.733  0.00  0.00    -0.162 NA
ATOM      4  C   UNL d   1      56.960  -0.217  33.321  0.00  0.00     0.060 A 
ATOM      5  C   UNL d   1      57.533   0.357  33.458  0.00  0.00     0.105 A 
ATOM      6  C   UNL d   1      57.728   0.682  34.194  0.00  0.00     0.023 C 
ENDROOT
BRANCH   1   7
ATOM      7  C   UNL d   1      57.712   0.137  31.361  0.00  0.00     0.197 A 
ATOM      8  N   UNL d   1      58.319  -0.337  31.065  0.00  0.00    -0.221 NA
ATOM      9  C   UNL d   1      58.391  -0.171  30.248  0.00  0.00     0.090 A 
ATOM     10  C   UNL d   1      58.879  -0.455  29.665  0.00  0.00     0.020 A 
ATOM     11  C   UNL d   1      57.820   0.403  30.073  0.00  0.00     0.050 A 
ATOM     12  C   UNL d   1      58.818  -0.179  28.888  0.00  0.00     0.002 A 
ATOM     13  C   UNL d   1      58.256   0.386  28.719  0.00  0.00     0.001 A 
ATOM     14  C   UNL d   1      57.754   0.681  29.304  0.00  0.00     0.008 A 
ATOM     15  S   UNL d   1      57.411   0.584  30.761  0.00  0.00    -0.047 SA
ENDBRANCH   1   7
BRANCH   2  16
ATOM     16  N   UNL d   1      56.448  -0.930  32.136  0.00  0.00    -0.189 NA
ATOM     17  C   UNL d   1      55.930  -1.361  32.585  0.00  0.00     0.281 C 
ATOM     18  O   UNL d   1      55.432  -1.909  32.214  0.00  0.00    -0.265 OA
ATOM     19  C   UNL d   1      55.883  -1.272  33.398  0.00  0.00     0.068 C 
ENDBRANCH   2  16
TORSDOF 2
ENDMDL
