MODEL 1
REMARK VINA RESULT:      -8.8      0.000      0.000
REMARK  4 active torsions:
REMARK  status: ('A' for Active; 'I' for Inactive)
REMARK    1  A    between atoms: C_6  and  C_1 
REMARK    2  A    between atoms: O_15  and  C_6 
REMARK    3  A    between atoms: C_7  and  C_8 
REMARK    4  A    between atoms: C_16  and  O_15 
ROOT
ATOM      1  C   UNL d   1      52.916  32.038  53.210  0.00  0.00     0.145 A 
ATOM      2  N   UNL d   1      52.405  32.559  52.840  0.00  0.00    -0.240 NA
ATOM      3  C   UNL d   1      53.332  32.447  53.793  0.00  0.00     0.026 A 
ATOM      4  C   UNL d   1      53.076  33.230  53.784  0.00  0.00     0.019 A 
ATOM      5  C   UNL d   1      52.497  33.305  53.191  0.00  0.00     0.082 A 
ATOM      6  C   UNL d   1      52.927  34.623  54.096  0.00  0.00     0.065 A 
ATOM      7  C   UNL d   1      53.292  33.891  54.238  0.00  0.00     0.008 A 
ATOM      8  C   UNL d   1      52.136  34.029  53.052  0.00  0.00     0.019 A 
ATOM      9  C   UNL d   1      52.351  34.695  53.506  0.00  0.00     0.008 A 
ENDROOT
BRANCH   1  10
ATOM     10  C   UNL d   1      53.006  31.237  53.035  0.00  0.00     0.318 C 
ATOM     11  O   UNL d   1      52.948  30.971  52.259  0.00  0.00    -0.257 OA
BRANCH  10  12
ATOM     12  O   UNL d   1      53.156  30.695  53.645  0.00  0.00    -0.270 OA
BRANCH  12  13
ATOM     13  C   UNL d   1      53.155  29.889  53.485  0.00  0.00     0.126 C 
ATOM     14  C   UNL d   1      53.275  29.341  54.089  0.00  0.00     0.029 C 
ENDBRANCH  12  13
ENDBRANCH  10  12
ENDBRANCH   1  10
BRANCH   6  15
ATOM     15  C   UNL d   1      53.139  35.278  54.545  0.00  0.00     0.211 C 
ATOM     16  O   UNL d   1      53.271  36.004  54.176  0.00  0.00    -0.644 OA
ATOM     17  O   UNL d   1      53.221  35.212  55.364  0.00  0.00    -0.644 OA
ENDBRANCH   6  15
TORSDOF 4
ENDMDL
MODEL 2
REMARK VINA RESULT:      -8.4      1.990      3.201
REMARK  4 active torsions:
REMARK  status: ('A' for Active; 'I' for Inactive)
REMARK    1  A    between atoms: C_6  and  C_1 
REMARK    2  A    between atoms: O_15  and  C_6 
REMARK    3  A    between atoms: C_7  and  C_8 
REMARK    4  A    between atoms: C_16  and  O_15 
ROOT
ATOM      1  C   UNL d   1      52.088  33.871  52.993  0.00  0.00     0.145 A 
ATOM      2  N   UNL d   1      52.430  33.129  52.946  0.00  0.00    -0.240 NA
ATOM      3  C   UNL d   1      52.492  34.311  53.561  0.00  0.00     0.026 A 
ATOM      4  C   UNL d   1      53.091  33.837  53.869  0.00  0.00     0.019 A 
ATOM      5  C   UNL d   1      53.056  33.098  53.488  0.00  0.00     0.082 A 
ATOM      6  C   UNL d   1      54.207  33.377  54.646  0.00  0.00     0.065 A 
ATOM      7  C   UNL d   1      53.669  33.977  54.451  0.00  0.00     0.008 A 
ATOM      8  C   UNL d   1      53.591  32.505  53.683  0.00  0.00     0.019 A 
ATOM      9  C   UNL d   1      54.171  32.643  54.265  0.00  0.00     0.008 A 
ENDROOT
BRANCH   1  10
ATOM     10  C   UNL d   1      51.447  34.141  52.550  0.00  0.00     0.318 C 
ATOM     11  O   UNL d   1      51.513  34.237  51.736  0.00  0.00    -0.257 OA
BRANCH  10  12
ATOM     12  O   UNL d   1      50.729  34.317  52.927  0.00  0.00    -0.270 OA
BRANCH  12  13
ATOM     13  C   UNL d   1      50.065  34.497  52.478  0.00  0.00     0.126 C 
ATOM     14  C   UNL d   1      49.395  34.821  52.831  0.00  0.00     0.029 C 
ENDBRANCH  12  13
ENDBRANCH  10  12
ENDBRANCH   1  10
BRANCH   6  15
ATOM     15  C   UNL d   1      54.779  33.514  55.220  0.00  0.00     0.211 C 
ATOM     16  O   UNL d   1      54.705  33.168  55.965  0.00  0.00    -0.644 OA
ATOM     17  O   UNL d   1      55.428  33.997  55.053  0.00  0.00    -0.644 OA
ENDBRANCH   6  15
TORSDOF 4
ENDMDL
MODEL 3
REMARK VINA RESULT:      -8.0      1.248      4.170
REMARK  4 active torsions:
REMARK  status: ('A' for Active; 'I' for Inactive)
REMARK    1  A    between atoms: C_6  and  C_1 
REMARK    2  A    between atoms: O_15  and  C_6 
REMARK    3  A    between atoms: C_7  and  C_8 
REMARK    4  A    between atoms: C_16  and  O_15 
ROOT
ATOM      1  C   UNL d   1      53.651  32.866  54.028  0.00  0.00     0.145 A 
ATOM      2  N   UNL d   1      53.325  32.667  53.304  0.00  0.00    -0.240 NA
ATOM      3  C   UNL d   1      53.738  32.179  54.476  0.00  0.00     0.026 A 
ATOM      4  C   UNL d   1      53.463  31.547  54.024  0.00  0.00     0.019 A 
ATOM      5  C   UNL d   1      53.204  31.846  53.292  0.00  0.00     0.082 A 
ATOM      6  C   UNL d   1      53.102  30.223  53.603  0.00  0.00     0.065 A 
ATOM      7  C   UNL d   1      53.411  30.732  54.180  0.00  0.00     0.008 A 
ATOM      8  C   UNL d   1      52.898  31.341  52.722  0.00  0.00     0.019 A 
ATOM      9  C   UNL d   1      52.845  30.523  52.876  0.00  0.00     0.008 A 
ENDROOT
BRANCH   1  10
ATOM     10  C   UNL d   1      53.861  33.625  54.275  0.00  0.00     0.318 C 
ATOM     11  O   UNL d   1      54.602  33.767  54.602  0.00  0.00    -0.257 OA
BRANCH  10  12
ATOM     12  O   UNL d   1      53.320  34.249  54.195  0.00  0.00    -0.270 OA
BRANCH  12  13
ATOM     13  C   UNL d   1      53.474  34.971  54.555  0.00  0.00     0.126 C 
ATOM     14  C   UNL d   1      52.955  35.605  54.463  0.00  0.00     0.029 C 
ENDBRANCH  12  13
ENDBRANCH  10  12
ENDBRANCH   1  10
BRANCH   6  15
ATOM     15  C   UNL d   1      53.050  29.417  53.756  0.00  0.00     0.211 C 
ATOM     16  O   UNL d   1      53.441  29.096  54.407  0.00  0.00    -0.644 OA
ATOM     17  O   UNL d   1      52.608  28.927  53.259  0.00  0.00    -0.644 OA
ENDBRANCH   6  15
TORSDOF 4
ENDMDL
MODEL 4
REMARK VINA RESULT:      -7.5      1.638      2.037
REMARK  4 active torsions:
REMARK  status: ('A' for Active; 'I' for Inactive)
REMARK    1  A    between atoms: C_6  and  C_1 
REMARK    2  A    between atoms: O_15  and  C_6 
REMARK    3  A    between atoms: C_7  and  C_8 
REMARK    4  A    between atoms: C_16  and  O_15 
ROOT
ATOM      1  C   UNL d   1      52.968  32.277  53.364  0.00  0.00     0.145 A 
ATOM      2  N   UNL d   1      53.146  33.054  53.549  0.00  0.00    -0.240 NA
ATOM      3  C   UNL d   1      52.208  32.250  53.046  0.00  0.00     0.026 A 
ATOM      4  C   UNL d   1      51.912  33.018  53.033  0.00  0.00     0.019 A 
ATOM      5  C   UNL d   1      52.494  33.525  53.346  0.00  0.00     0.082 A 
ATOM      6  C   UNL d   1      51.046  34.147  52.837  0.00  0.00     0.065 A 
ATOM      7  C   UNL d   1      51.185  33.331  52.778  0.00  0.00     0.008 A 
ATOM      8  C   UNL d   1      52.354  34.332  53.404  0.00  0.00     0.019 A 
ATOM      9  C   UNL d   1      51.626  34.648  53.149  0.00  0.00     0.008 A 
ENDROOT
BRANCH   1  10
ATOM     10  C   UNL d   1      53.462  31.625  53.474  0.00  0.00     0.318 C 
ATOM     11  O   UNL d   1      54.279  31.717  53.480  0.00  0.00    -0.257 OA
BRANCH  10  12
ATOM     12  O   UNL d   1      53.131  30.871  53.580  0.00  0.00    -0.270 OA
BRANCH  12  13
ATOM     13  C   UNL d   1      53.623  30.221  53.681  0.00  0.00     0.126 C 
ATOM     14  C   UNL d   1      53.311  29.487  53.887  0.00  0.00     0.029 C 
ENDBRANCH  12  13
ENDBRANCH  10  12
ENDBRANCH   1  10
BRANCH   6  15
ATOM     15  C   UNL d   1      50.328  34.458  52.585  0.00  0.00     0.211 C 
ATOM     16  O   UNL d   1      50.128  34.435  51.785  0.00  0.00    -0.644 OA
ATOM     17  O   UNL d   1      49.806  34.792  53.130  0.00  0.00    -0.644 OA
ENDBRANCH   6  15
TORSDOF 4
ENDMDL
MODEL 5
REMARK VINA RESULT:      -7.5      1.525      4.087
REMARK  4 active torsions:
REMARK  status: ('A' for Active; 'I' for Inactive)
REMARK    1  A    between atoms: C_6  and  C_1 
REMARK    2  A    between atoms: O_15  and  C_6 
REMARK    3  A    between atoms: C_7  and  C_8 
REMARK    4  A    between atoms: C_16  and  O_15 
ROOT
ATOM      1  C   UNL d   1      52.252  33.046  53.002  0.00  0.00     0.145 A 
ATOM      2  N   UNL d   1      53.026  32.950  53.251  0.00  0.00    -0.240 NA
ATOM      3  C   UNL d   1      51.896  32.304  52.956  0.00  0.00     0.026 A 
ATOM      4  C   UNL d   1      52.455  31.742  53.180  0.00  0.00     0.019 A 
ATOM      5  C   UNL d   1      53.162  32.140  53.364  0.00  0.00     0.082 A 
ATOM      6  C   UNL d   1      53.088  30.490  53.487  0.00  0.00     0.065 A 
ATOM      7  C   UNL d   1      52.418  30.913  53.241  0.00  0.00     0.008 A 
ATOM      8  C   UNL d   1      53.824  31.719  53.607  0.00  0.00     0.019 A 
ATOM      9  C   UNL d   1      53.789  30.888  53.670  0.00  0.00     0.008 A 
ENDROOT
BRANCH   1  10
ATOM     10  C   UNL d   1      51.883  33.763  52.824  0.00  0.00     0.318 C 
ATOM     11  O   UNL d   1      52.330  34.423  52.624  0.00  0.00    -0.257 OA
BRANCH  10  12
ATOM     12  O   UNL d   1      51.056  33.818  52.848  0.00  0.00    -0.270 OA
BRANCH  12  13
ATOM     13  C   UNL d   1      50.690  34.537  52.692  0.00  0.00     0.126 C 
ATOM     14  C   UNL d   1      49.871  34.610  52.739  0.00  0.00     0.029 C 
ENDBRANCH  12  13
ENDBRANCH  10  12
ENDBRANCH   1  10
BRANCH   6  15
ATOM     15  C   UNL d   1      53.052  29.671  53.548  0.00  0.00     0.211 C 
ATOM     16  O   UNL d   1      52.779  29.222  52.912  0.00  0.00    -0.644 OA
ATOM     17  O   UNL d   1      53.290  29.296  54.245  0.00  0.00    -0.644 OA
ENDBRANCH   6  15
TORSDOF 4
ENDMDL
MODEL 6
REMARK VINA RESULT:      -7.4      2.071      3.015
REMARK  4 active torsions:
REMARK  status: ('A' for Active; 'I' for Inactive)
REMARK    1  A    between atoms: C_6  and  C_1 
REMARK    2  A    between atoms: O_15  and  C_6 
REMARK    3  A    between atoms: C_7  and  C_8 
REMARK    4  A    between atoms: C_16  and  O_15 
ROOT
ATOM      1  C   UNL d   1      53.121  33.446  53.574  0.00  0.00     0.145 A 
ATOM      2  N   UNL d   1      52.545  32.871  53.657  0.00  0.00    -0.240 NA
ATOM      3  C   UNL d   1      52.773  34.123  53.258  0.00  0.00     0.026 A 
ATOM      4  C   UNL d   1      51.972  33.966  53.145  0.00  0.00     0.019 A 
ATOM      5  C   UNL d   1      51.825  33.185  53.392  0.00  0.00     0.082 A 
ATOM      6  C   UNL d   1      50.586  34.110  52.799  0.00  0.00     0.065 A 
ATOM      7  C   UNL d   1      51.350  34.431  52.847  0.00  0.00     0.008 A 
ATOM      8  C   UNL d   1      51.068  32.870  53.344  0.00  0.00     0.019 A 
ATOM      9  C   UNL d   1      50.442  33.334  53.046  0.00  0.00     0.008 A 
ENDROOT
BRANCH   1  10
ATOM     10  C   UNL d   1      53.919  33.368  53.771  0.00  0.00     0.318 C 
ATOM     11  O   UNL d   1      54.437  32.978  53.265  0.00  0.00    -0.257 OA
BRANCH  10  12
ATOM     12  O   UNL d   1      54.200  33.686  54.483  0.00  0.00    -0.270 OA
BRANCH  12  13
ATOM     13  C   UNL d   1      54.951  33.485  54.751  0.00  0.00     0.126 C 
ATOM     14  C   UNL d   1      55.247  33.806  55.450  0.00  0.00     0.029 C 
ENDBRANCH  12  13
ENDBRANCH  10  12
ENDBRANCH   1  10
BRANCH   6  15
ATOM     15  C   UNL d   1      49.970  34.569  52.505  0.00  0.00     0.211 C 
ATOM     16  O   UNL d   1      49.578  35.098  53.001  0.00  0.00    -0.644 OA
ATOM     17  O   UNL d   1      49.742  34.500  51.714  0.00  0.00    -0.644 OA
ENDBRANCH   6  15
TORSDOF 4
ENDMDL
