MODEL 1
REMARK VINA RESULT:      37.5      0.000      0.000
REMARK  3 active torsions:
REMARK  status: ('A' for Active; 'I' for Inactive)
REMARK    1  A    between atoms: C_3  and  C_1 
REMARK    2  A    between atoms: C_8  and  C_3 
REMARK    3  A    between atoms: C_10  and  C_4 
ROOT
ATOM      1  C   UNL d   1     -51.316  24.501  33.438  0.00  0.00     0.092 C 
ATOM      2  C   UNL d   1     -50.669  23.995  33.372  0.00  0.00     0.103 C 
ATOM      3  N   UNL d   1     -49.994  23.500  33.306  0.00  0.00    -0.191 NA
ENDROOT
BRANCH   1   4
ATOM      4  C   UNL d   1     -51.187  25.328  33.471  0.00  0.00     0.120 A 
ATOM      5  N   UNL d   1     -50.472  25.719  33.683  0.00  0.00    -0.238 NA
ATOM      6  C   UNL d   1     -50.601  26.537  33.638  0.00  0.00     0.088 A 
ATOM      7  C   UNL d   1     -51.384  26.641  33.402  0.00  0.00     0.056 A 
ATOM      8  S   UNL d   1     -51.716  25.899  33.308  0.00  0.00    -0.065 SA
BRANCH   6   9
ATOM      9  C   UNL d   1     -50.019  27.127  33.808  0.00  0.00     0.018 A 
ATOM     10  C   UNL d   1     -49.479  26.991  34.424  0.00  0.00     0.002 A 
ATOM     11  C   UNL d   1     -48.910  27.561  34.597  0.00  0.00     0.000 A 
ATOM     12  C   UNL d   1     -48.866  28.288  34.152  0.00  0.00     0.000 A 
ATOM     13  C   UNL d   1     -49.409  28.411  33.541  0.00  0.00     0.000 A 
ATOM     14  C   UNL d   1     -49.991  27.820  33.371  0.00  0.00     0.002 A 
ENDBRANCH   6   9
ENDBRANCH   1   4
BRANCH   1  15
ATOM     15  C   UNL d   1     -52.069  24.177  33.469  0.00  0.00     0.012 A 
ATOM     16  C   UNL d   1     -52.840  24.488  33.409  0.00  0.00     0.001 A 
ATOM     17  C   UNL d   1     -53.375  23.876  33.486  0.00  0.00     0.000 A 
ATOM     18  C   UNL d   1     -52.950  23.191  33.592  0.00  0.00     0.000 A 
ATOM     19  C   UNL d   1     -52.150  23.368  33.583  0.00  0.00     0.001 A 
ENDBRANCH   1  15
TORSDOF 3
ENDMDL
