MODEL 1
REMARK VINA RESULT:      -5.7      0.000      0.000
REMARK  3 active torsions:
REMARK  status: ('A' for Active; 'I' for Inactive)
REMARK       I    between atoms: N_2  and  C_1 
REMARK    1  A    between atoms: C_3  and  C_1 
REMARK    2  A    between atoms: C_6  and  N_2 
REMARK    3  A    between atoms: C_5  and  C_4 
ROOT
ATOM      1  C   UNL d   1     -41.814-123.336 -50.434  0.00  0.00     0.279 C 
ATOM      2  N   UNL d   1     -41.237-122.926 -50.865  0.00  0.00    -0.207 NA
ATOM      3  O   UNL d   1     -42.359-123.811 -50.827  0.00  0.00    -0.265 OA
ENDROOT
BRANCH   1   4
ATOM      4  C   UNL d   1     -41.839-123.264 -49.611  0.00  0.00     0.064 A 
ATOM      5  C   UNL d   1     -42.560-123.166 -49.233  0.00  0.00     0.069 A 
ATOM      6  C   UNL d   1     -42.599-123.093 -48.408  0.00  0.00     0.006 A 
ATOM      7  C   UNL d   1     -41.895-123.122 -47.977  0.00  0.00     0.000 A 
ATOM      8  C   UNL d   1     -41.173-123.221 -48.355  0.00  0.00     0.000 A 
ATOM      9  C   UNL d   1     -41.145-123.292 -49.171  0.00  0.00     0.005 A 
BRANCH   5  10
ATOM     10  C   UNL d   1     -43.261-123.138 -49.674  0.00  0.00     0.211 C 
ATOM     11  O   UNL d   1     -43.493-122.431 -50.041  0.00  0.00    -0.644 OA
ATOM     12  O   UNL d   1     -43.726-123.816 -49.748  0.00  0.00    -0.644 OA
ENDBRANCH   5  10
ENDBRANCH   1   4
BRANCH   2  13
ATOM     13  C   UNL d   1     -41.207-122.994 -51.688  0.00  0.00     0.095 A 
ATOM     14  C   UNL d   1     -41.152-122.321 -52.155  0.00  0.00     0.075 A 
ATOM     15 CL   UNL d   1     -41.126-121.577 -51.803  0.00  0.00    -0.081 Cl
ATOM     16  C   UNL d   1     -41.123-122.389 -52.971  0.00  0.00     0.013 A 
ATOM     17  C   UNL d   1     -41.149-123.137 -53.329  0.00  0.00     0.001 A 
ATOM     18  C   UNL d   1     -41.204-123.811 -52.856  0.00  0.00     0.002 A 
ATOM     19  C   UNL d   1     -41.233-123.738 -52.033  0.00  0.00     0.020 A 
ENDBRANCH   2  13
TORSDOF 3
ENDMDL
MODEL 2
REMARK VINA RESULT:      -4.6      1.990      2.865
REMARK  3 active torsions:
REMARK  status: ('A' for Active; 'I' for Inactive)
REMARK       I    between atoms: N_2  and  C_1 
REMARK    1  A    between atoms: C_3  and  C_1 
REMARK    2  A    between atoms: C_6  and  N_2 
REMARK    3  A    between atoms: C_5  and  C_4 
ROOT
ATOM      1  C   UNL d   1     -41.464-122.388 -52.762  0.00  0.00     0.279 C 
ATOM      2  N   UNL d   1     -41.837-122.821 -53.363  0.00  0.00    -0.207 NA
ATOM      3  O   UNL d   1     -41.162-121.639 -52.923  0.00  0.00    -0.265 OA
ENDROOT
BRANCH   1   4
ATOM      4  C   UNL d   1     -41.399-122.711 -52.005  0.00  0.00     0.064 A 
ATOM      5  C   UNL d   1     -41.544-122.241 -51.347  0.00  0.00     0.069 A 
ATOM      6  C   UNL d   1     -41.481-122.554 -50.582  0.00  0.00     0.006 A 
ATOM      7  C   UNL d   1     -41.270-123.347 -50.497  0.00  0.00     0.000 A 
ATOM      8  C   UNL d   1     -41.125-123.817 -51.154  0.00  0.00     0.000 A 
ATOM      9  C   UNL d   1     -41.189-123.500 -51.907  0.00  0.00     0.005 A 
BRANCH   5  10
ATOM     10  C   UNL d   1     -41.755-121.446 -51.444  0.00  0.00     0.211 C 
ATOM     11  O   UNL d   1     -41.173-120.879 -51.611  0.00  0.00    -0.644 OA
ATOM     12  O   UNL d   1     -42.546-121.220 -51.373  0.00  0.00    -0.644 OA
ENDBRANCH   5  10
ENDBRANCH   1   4
BRANCH   2  13
ATOM     13  C   UNL d   1     -41.905-122.502 -54.122  0.00  0.00     0.095 A 
ATOM     14  C   UNL d   1     -41.563-122.886 -54.763  0.00  0.00     0.075 A 
ATOM     15 CL   UNL d   1     -41.151-123.590 -54.648  0.00  0.00    -0.081 Cl
ATOM     16  C   UNL d   1     -41.632-122.569 -55.515  0.00  0.00     0.013 A 
ATOM     17  C   UNL d   1     -42.046-121.860 -55.634  0.00  0.00     0.001 A 
ATOM     18  C   UNL d   1     -42.388-121.478 -54.988  0.00  0.00     0.002 A 
ATOM     19  C   UNL d   1     -42.317-121.800 -54.231  0.00  0.00     0.020 A 
ENDBRANCH   2  13
TORSDOF 3
ENDMDL
