MODEL 1
REMARK VINA RESULT:      43.5      0.000      0.000
REMARK  6 active torsions:
REMARK  status: ('A' for Active; 'I' for Inactive)
REMARK    1  A    between atoms: N_5  and  C_1 
REMARK    2  A    between atoms: N_14  and  C_3 
REMARK    3  A    between atoms: N_9  and  C_20 
REMARK    4  A    between atoms: C_22  and  N_14 
REMARK    5  A    between atoms: C_20  and  C_21 
REMARK    6  A    between atoms: C_21  and  C_22 
ROOT
ATOM      1  C   UNL d   1      13.752  14.344  -3.749  0.00  0.00     0.200 A 
ATOM      2  C   UNL d   1      13.769  14.576  -4.544  0.00  0.00     0.288 A 
ATOM      3  C   UNL d   1      13.498  13.586  -3.537  0.00  0.00     0.109 A 
ATOM      4  N   UNL d   1      13.532  14.052  -5.132  0.00  0.00    -0.270 N 
ATOM      5  C   UNL d   1      13.261  13.064  -4.133  0.00  0.00     0.036 A 
ATOM      6  C   UNL d   1      13.276  13.291  -4.926  0.00  0.00     0.069 A 
ATOM      7  O   UNL d   1      14.023  15.332  -4.747  0.00  0.00    -0.265 OA
ATOM      8  C   UNL d   1      13.547  14.280  -5.925  0.00  0.00     0.102 C 
ATOM      9  C   UNL d   1      13.006  12.303  -3.932  0.00  0.00     0.003 A 
ATOM     10  C   UNL d   1      13.039  12.767  -5.518  0.00  0.00     0.018 A 
ATOM     11  C   UNL d   1      12.769  11.779  -4.519  0.00  0.00     0.000 A 
ATOM     12  C   UNL d   1      12.785  12.012  -5.315  0.00  0.00     0.002 A 
ENDROOT
BRANCH   3  13
ATOM     13  N   UNL d   1      13.482  13.354  -2.746  0.00  0.00    -0.242 NA
BRANCH  13  14
ATOM     14  C   UNL d   1      13.508  12.556  -2.549  0.00  0.00     0.101 C 
BRANCH  14  15
ATOM     15  C   UNL d   1      13.406  12.321  -1.762  0.00  0.00     0.040 C 
BRANCH  15  16
ATOM     16  C   UNL d   1      13.926  11.779  -1.425  0.00  0.00     0.083 C 
BRANCH  16  17
ATOM     17  N   UNL d   1      14.572  12.046  -0.977  0.00  0.00    -0.285 N 
ATOM     18  C   UNL d   1      15.365  11.950  -1.171  0.00  0.00     0.183 A 
ATOM     19  N   UNL d   1      15.812  12.299  -0.573  0.00  0.00    -0.222 NA
ATOM     20  C   UNL d   1      15.292  12.607  -0.014  0.00  0.00     0.120 A 
ATOM     21  C   UNL d   1      14.530  12.452  -0.261  0.00  0.00     0.102 A 
ENDBRANCH  16  17
ENDBRANCH  15  16
ENDBRANCH  14  15
ENDBRANCH  13  14
ENDBRANCH   3  13
BRANCH   1  22
ATOM     22  N   UNL d   1      13.992  14.876  -3.163  0.00  0.00    -0.107 N 
ATOM     23  O   UNL d   1      13.637  15.617  -3.101  0.00  0.00    -0.531 OA
ATOM     24  O   UNL d   1      14.595  14.660  -2.636  0.00  0.00    -0.531 OA
ENDBRANCH   1  22
TORSDOF 6
ENDMDL
MODEL 2
REMARK VINA RESULT:      44.5      2.275      3.311
REMARK  6 active torsions:
REMARK  status: ('A' for Active; 'I' for Inactive)
REMARK    1  A    between atoms: N_5  and  C_1 
REMARK    2  A    between atoms: N_14  and  C_3 
REMARK    3  A    between atoms: N_9  and  C_20 
REMARK    4  A    between atoms: C_22  and  N_14 
REMARK    5  A    between atoms: C_20  and  C_21 
REMARK    6  A    between atoms: C_21  and  C_22 
ROOT
ATOM      1  C   UNL d   1      14.270  13.071  -2.406  0.00  0.00     0.200 A 
ATOM      2  C   UNL d   1      13.773  12.423  -2.550  0.00  0.00     0.288 A 
ATOM      3  C   UNL d   1      14.272  13.722  -2.917  0.00  0.00     0.109 A 
ATOM      4  N   UNL d   1      13.276  12.423  -3.205  0.00  0.00    -0.270 N 
ATOM      5  C   UNL d   1      13.769  13.714  -3.574  0.00  0.00     0.036 A 
ATOM      6  C   UNL d   1      13.273  13.071  -3.721  0.00  0.00     0.069 A 
ATOM      7  O   UNL d   1      13.777  11.780  -2.037  0.00  0.00    -0.265 OA
ATOM      8  C   UNL d   1      12.780  11.779  -3.351  0.00  0.00     0.102 C 
ATOM      9  C   UNL d   1      13.764  14.360  -4.090  0.00  0.00     0.003 A 
ATOM     10  C   UNL d   1      12.774  13.067  -4.377  0.00  0.00     0.018 A 
ATOM     11  C   UNL d   1      13.267  14.359  -4.746  0.00  0.00     0.000 A 
ATOM     12  C   UNL d   1      12.770  13.711  -4.889  0.00  0.00     0.002 A 
ENDROOT
BRANCH   3  13
ATOM     13  N   UNL d   1      14.765  14.366  -2.774  0.00  0.00    -0.242 NA
BRANCH  13  14
ATOM     14  C   UNL d   1      14.443  15.113  -2.648  0.00  0.00     0.101 C 
BRANCH  14  15
ATOM     15  C   UNL d   1      14.904  15.709  -2.305  0.00  0.00     0.040 C 
BRANCH  15  16
ATOM     16  C   UNL d   1      14.559  16.245  -1.784  0.00  0.00     0.083 C 
BRANCH  16  17
ATOM     17  N   UNL d   1      15.037  16.759  -1.340  0.00  0.00    -0.285 N 
ATOM     18  C   UNL d   1      15.410  16.577  -0.630  0.00  0.00     0.183 A 
ATOM     19  N   UNL d   1      15.823  17.247  -0.387  0.00  0.00    -0.222 NA
ATOM     20  C   UNL d   1      15.703  17.837  -0.948  0.00  0.00     0.120 A 
ATOM     21  C   UNL d   1      15.220  17.539  -1.534  0.00  0.00     0.102 A 
ENDBRANCH  16  17
ENDBRANCH  15  16
ENDBRANCH  14  15
ENDBRANCH  13  14
ENDBRANCH   3  13
BRANCH   1  22
ATOM     22  N   UNL d   1      14.767  13.065  -1.745  0.00  0.00    -0.107 N 
ATOM     23  O   UNL d   1      14.487  13.307  -1.009  0.00  0.00    -0.531 OA
ATOM     24  O   UNL d   1      15.553  12.814  -1.827  0.00  0.00    -0.531 OA
ENDBRANCH   1  22
TORSDOF 6
ENDMDL
