MODEL 1
REMARK VINA RESULT:      26.2      0.000      0.000
REMARK  1 active torsions:
REMARK  status: ('A' for Active; 'I' for Inactive)
REMARK    1  A    between atoms: C_4  and  C_2 
ROOT
ATOM      1  C   UNL d   1      58.024  49.651  51.028  0.00  0.00     0.141 C 
ATOM      2  C   UNL d   1      58.025  49.623  51.847  0.00  0.00     0.112 C 
ATOM      3  C   UNL d   1      57.305  49.670  50.607  0.00  0.00     0.112 C 
ATOM      4  N   UNL d   1      56.572  49.689  50.170  0.00  0.00    -0.191 NA
ATOM      5  N   UNL d   1      58.014  49.595  52.686  0.00  0.00    -0.191 NA
ENDROOT
BRANCH   1   6
ATOM      6  C   UNL d   1      58.753  49.660  50.626  0.00  0.00     0.079 A 
ATOM      7  C   UNL d   1      58.830  49.677  49.826  0.00  0.00     0.281 A 
ATOM      8  N   UNL d   1      59.625  49.681  49.643  0.00  0.00    -0.208 NA
ATOM      9  O   UNL d   1      58.184  49.686  49.295  0.00  0.00    -0.265 OA
ATOM     10  C   UNL d   1      60.040  49.668  50.337  0.00  0.00     0.085 A 
ATOM     11  C   UNL d   1      60.856  49.666  50.493  0.00  0.00     0.019 A 
ATOM     12  C   UNL d   1      59.502  49.654  50.965  0.00  0.00     0.024 A 
ATOM     13  C   UNL d   1      61.118  49.651  51.253  0.00  0.00     0.002 A 
ATOM     14  C   UNL d   1      60.564  49.637  51.880  0.00  0.00     0.000 A 
ATOM     15  C   UNL d   1      59.756  49.639  51.716  0.00  0.00     0.002 A 
ENDBRANCH   1   6
TORSDOF 1
ENDMDL
MODEL 2
REMARK VINA RESULT:      26.7      0.983      1.853
REMARK  1 active torsions:
REMARK  status: ('A' for Active; 'I' for Inactive)
REMARK    1  A    between atoms: C_4  and  C_2 
ROOT
ATOM      1  C   UNL d   1      58.613  49.639  50.427  0.00  0.00     0.141 C 
ATOM      2  C   UNL d   1      58.898  49.650  49.659  0.00  0.00     0.112 C 
ATOM      3  C   UNL d   1      57.793  49.604  50.572  0.00  0.00     0.112 C 
ATOM      4  N   UNL d   1      56.955  49.569  50.729  0.00  0.00    -0.191 NA
ATOM      5  N   UNL d   1      59.179  49.661  48.868  0.00  0.00    -0.191 NA
ENDROOT
BRANCH   1   6
ATOM      6  C   UNL d   1      59.157  49.663  51.057  0.00  0.00     0.079 A 
ATOM      7  C   UNL d   1      58.951  49.688  51.834  0.00  0.00     0.281 A 
ATOM      8  N   UNL d   1      59.632  49.707  52.281  0.00  0.00    -0.208 NA
ATOM      9  O   UNL d   1      58.161  49.693  52.107  0.00  0.00    -0.265 OA
ATOM     10  C   UNL d   1      60.263  49.693  51.775  0.00  0.00     0.085 A 
ATOM     11  C   UNL d   1      61.082  49.702  51.912  0.00  0.00     0.019 A 
ATOM     12  C   UNL d   1      59.977  49.665  50.999  0.00  0.00     0.024 A 
ATOM     13  C   UNL d   1      61.592  49.684  51.291  0.00  0.00     0.002 A 
ATOM     14  C   UNL d   1      61.291  49.656  50.510  0.00  0.00     0.000 A 
ATOM     15  C   UNL d   1      60.476  49.647  50.383  0.00  0.00     0.002 A 
ENDBRANCH   1   6
TORSDOF 1
ENDMDL
MODEL 3
REMARK VINA RESULT:      27.0      1.351      2.638
REMARK  1 active torsions:
REMARK  status: ('A' for Active; 'I' for Inactive)
REMARK    1  A    between atoms: C_4  and  C_2 
ROOT
ATOM      1  C   UNL d   1      60.152  49.603  51.952  0.00  0.00     0.141 C 
ATOM      2  C   UNL d   1      59.585  49.652  52.541  0.00  0.00     0.112 C 
ATOM      3  C   UNL d   1      60.959  49.531  52.148  0.00  0.00     0.112 C 
ATOM      4  N   UNL d   1      61.787  49.457  52.340  0.00  0.00    -0.191 NA
ATOM      5  N   UNL d   1      59.013  49.702  53.153  0.00  0.00    -0.191 NA
ENDROOT
BRANCH   1   6
ATOM      6  C   UNL d   1      59.907  49.626  51.157  0.00  0.00     0.079 A 
ATOM      7  C   UNL d   1      60.408  49.625  50.527  0.00  0.00     0.281 A 
ATOM      8  N   UNL d   1      59.963  49.651  49.844  0.00  0.00    -0.208 NA
ATOM      9  O   UNL d   1      61.241  49.601  50.594  0.00  0.00    -0.265 OA
ATOM     10  C   UNL d   1      59.183  49.668  50.056  0.00  0.00     0.085 A 
ATOM     11  C   UNL d   1      58.487  49.696  49.602  0.00  0.00     0.019 A 
ATOM     12  C   UNL d   1      59.134  49.652  50.881  0.00  0.00     0.024 A 
ATOM     13  C   UNL d   1      57.771  49.708  49.967  0.00  0.00     0.002 A 
ATOM     14  C   UNL d   1      57.734  49.692  50.803  0.00  0.00     0.000 A 
ATOM     15  C   UNL d   1      58.429  49.664  51.246  0.00  0.00     0.002 A 
ENDBRANCH   1   6
TORSDOF 1
ENDMDL
