MODEL 1
REMARK VINA RESULT:      72.6      0.000      0.000
REMARK  3 active torsions:
REMARK  status: ('A' for Active; 'I' for Inactive)
REMARK    1  A    between atoms: C_2  and  C_1 
REMARK       I    between atoms: N_3  and  C_2 
REMARK    2  A    between atoms: C_21  and  N_4 
REMARK    3  A    between atoms: C_20  and  C_21 
ROOT
ATOM      1  C   UNL d   1     -50.438  25.029  33.335  0.00  0.00     0.255 C 
ATOM      2  N   UNL d   1     -50.307  25.862  33.375  0.00  0.00    -0.271 N 
ATOM      3  N   UNL d   1     -50.032  27.492  33.453  0.00  0.00    -0.300 N 
ATOM      4  O   UNL d   1     -49.836  24.555  33.306  0.00  0.00    -0.270 OA
ATOM      5  C   UNL d   1     -49.543  26.164  33.382  0.00  0.00     0.102 A 
ATOM      6  C   UNL d   1     -50.946  26.381  33.407  0.00  0.00     0.102 A 
ATOM      7  C   UNL d   1     -50.817  27.206  33.446  0.00  0.00     0.100 A 
ATOM      8  C   UNL d   1     -49.388  26.967  33.421  0.00  0.00     0.100 A 
ENDROOT
BRANCH   1   9
ATOM      9  C   UNL d   1     -51.189  24.742  33.328  0.00  0.00     0.137 A 
ATOM     10  C   UNL d   1     -51.048  23.937  33.320  0.00  0.00     0.033 A 
ATOM     11  C   UNL d   1     -51.620  23.345  33.311  0.00  0.00     0.046 A 
ATOM     12  C   UNL d   1     -52.401  23.212  33.305  0.00  0.00    -0.015 A 
ATOM     13  C   UNL d   1     -52.365  23.517  33.309  0.00  0.00    -0.022 A 
ATOM     14  C   UNL d   1     -52.752  23.874  33.310  0.00  0.00     0.027 A 
ATOM     15  C   UNL d   1     -52.130  24.387  33.319  0.00  0.00    -0.117 A 
ATOM     16  C   UNL d   1     -53.520  24.175  33.309  0.00  0.00     0.006 A 
ATOM     17  C   UNL d   1     -52.551  24.518  33.318  0.00  0.00    -0.006 A 
ATOM     18  C   UNL d   1     -51.947  25.034  33.327  0.00  0.00    -0.007 A 
ENDBRANCH   1   9
BRANCH   3  19
ATOM     19  C   UNL d   1     -49.813  28.163  33.484  0.00  0.00     0.080 C 
BRANCH  19  20
ATOM     20  C   UNL d   1     -49.297  28.394  34.075  0.00  0.00     0.020 A 
ATOM     21  C   UNL d   1     -48.928  29.135  34.055  0.00  0.00     0.028 A 
ATOM     22  C   UNL d   1     -48.404  29.373  34.654  0.00  0.00     0.119 A 
ATOM     23  O   UNL d   1     -47.989  30.062  34.742  0.00  0.00    -0.300 OA
ATOM     24  C   UNL d   1     -48.236  28.868  35.292  0.00  0.00     0.119 A 
ATOM     25  C   UNL d   1     -47.530  30.020  35.458  0.00  0.00     0.304 A 
ATOM     26  O   UNL d   1     -47.702  29.271  35.778  0.00  0.00    -0.300 OA
ATOM     27  C   UNL d   1     -48.607  28.115  35.318  0.00  0.00     0.026 A 
ATOM     28  C   UNL d   1     -49.128  27.883  34.720  0.00  0.00     0.004 A 
ENDBRANCH  19  20
ENDBRANCH   3  19
TORSDOF 3
ENDMDL
MODEL 2
REMARK VINA RESULT:      73.7      1.086      5.934
REMARK  3 active torsions:
REMARK  status: ('A' for Active; 'I' for Inactive)
REMARK    1  A    between atoms: C_2  and  C_1 
REMARK       I    between atoms: N_3  and  C_2 
REMARK    2  A    between atoms: C_21  and  N_4 
REMARK    3  A    between atoms: C_20  and  C_21 
ROOT
ATOM      1  C   UNL d   1     -48.595  28.547  35.650  0.00  0.00     0.255 C 
ATOM      2  N   UNL d   1     -48.813  28.043  35.008  0.00  0.00    -0.271 N 
ATOM      3  N   UNL d   1     -49.248  27.043  33.764  0.00  0.00    -0.300 N 
ATOM      4  O   UNL d   1     -48.807  28.362  36.362  0.00  0.00    -0.270 OA
ATOM      5  C   UNL d   1     -49.247  27.359  35.145  0.00  0.00     0.102 A 
ATOM      6  C   UNL d   1     -48.591  28.232  34.238  0.00  0.00     0.102 A 
ATOM      7  C   UNL d   1     -48.806  27.733  33.603  0.00  0.00     0.100 A 
ATOM      8  C   UNL d   1     -49.471  26.853  34.542  0.00  0.00     0.100 A 
ENDROOT
BRANCH   1   9
ATOM      9  C   UNL d   1     -48.170  29.215  35.507  0.00  0.00     0.137 A 
ATOM     10  C   UNL d   1     -47.876  29.374  36.252  0.00  0.00     0.033 A 
ATOM     11  C   UNL d   1     -47.389  30.006  36.456  0.00  0.00     0.046 A 
ATOM     12  C   UNL d   1     -47.019  30.645  36.169  0.00  0.00    -0.015 A 
ATOM     13  C   UNL d   1     -47.166  30.517  35.932  0.00  0.00    -0.022 A 
ATOM     14  C   UNL d   1     -47.167  30.693  35.436  0.00  0.00     0.027 A 
ATOM     15  C   UNL d   1     -47.639  30.049  35.324  0.00  0.00    -0.117 A 
ATOM     16  C   UNL d   1     -46.991  31.179  34.792  0.00  0.00     0.006 A 
ATOM     17  C   UNL d   1     -47.528  30.327  34.999  0.00  0.00    -0.006 A 
ATOM     18  C   UNL d   1     -47.995  29.695  34.875  0.00  0.00    -0.007 A 
ENDBRANCH   1   9
BRANCH   3  19
ATOM     19  C   UNL d   1     -49.479  26.557  33.306  0.00  0.00     0.080 C 
BRANCH  19  20
ATOM     20  C   UNL d   1     -50.269  26.342  33.307  0.00  0.00     0.020 A 
ATOM     21  C   UNL d   1     -50.496  25.546  33.308  0.00  0.00     0.028 A 
ATOM     22  C   UNL d   1     -51.296  25.325  33.308  0.00  0.00     0.119 A 
ATOM     23  O   UNL d   1     -51.635  24.590  33.309  0.00  0.00    -0.300 OA
ATOM     24  C   UNL d   1     -51.893  25.903  33.309  0.00  0.00     0.119 A 
ATOM     25  C   UNL d   1     -52.483  24.677  33.310  0.00  0.00     0.304 A 
ATOM     26  O   UNL d   1     -52.614  25.498  33.310  0.00  0.00    -0.300 OA
ATOM     27  C   UNL d   1     -51.670  26.712  33.308  0.00  0.00     0.026 A 
ATOM     28  C   UNL d   1     -50.871  26.927  33.308  0.00  0.00     0.004 A 
ENDBRANCH  19  20
ENDBRANCH   3  19
TORSDOF 3
ENDMDL
MODEL 3
REMARK VINA RESULT:      74.5      1.576      2.623
REMARK  3 active torsions:
REMARK  status: ('A' for Active; 'I' for Inactive)
REMARK    1  A    between atoms: C_2  and  C_1 
REMARK       I    between atoms: N_3  and  C_2 
REMARK    2  A    between atoms: C_21  and  N_4 
REMARK    3  A    between atoms: C_20  and  C_21 
ROOT
ATOM      1  C   UNL d   1     -49.192  26.856  33.666  0.00  0.00     0.255 C 
ATOM      2  N   UNL d   1     -48.844  27.478  34.119  0.00  0.00    -0.271 N 
ATOM      3  N   UNL d   1     -48.145  28.688  35.004  0.00  0.00    -0.300 N 
ATOM      4  O   UNL d   1     -48.741  26.324  33.349  0.00  0.00    -0.270 OA
ATOM      5  C   UNL d   1     -48.030  27.514  34.221  0.00  0.00     0.102 A 
ATOM      6  C   UNL d   1     -49.319  28.056  34.464  0.00  0.00     0.102 A 
ATOM      7  C   UNL d   1     -48.975  28.671  34.913  0.00  0.00     0.100 A 
ATOM      8  C   UNL d   1     -47.667  28.105  34.655  0.00  0.00     0.100 A 
ENDROOT
BRANCH   1   9
ATOM      9  C   UNL d   1     -49.991  26.828  33.571  0.00  0.00     0.137 A 
ATOM     10  C   UNL d   1     -50.110  26.024  33.498  0.00  0.00     0.033 A 
ATOM     11  C   UNL d   1     -50.836  25.650  33.387  0.00  0.00     0.046 A 
ATOM     12  C   UNL d   1     -51.614  25.778  33.306  0.00  0.00    -0.015 A 
ATOM     13  C   UNL d   1     -51.484  26.054  33.341  0.00  0.00    -0.022 A 
ATOM     14  C   UNL d   1     -51.736  26.516  33.346  0.00  0.00     0.027 A 
ATOM     15  C   UNL d   1     -50.988  26.798  33.453  0.00  0.00    -0.117 A 
ATOM     16  C   UNL d   1     -52.365  27.049  33.313  0.00  0.00     0.006 A 
ATOM     17  C   UNL d   1     -51.344  27.059  33.431  0.00  0.00    -0.006 A 
ATOM     18  C   UNL d   1     -50.612  27.350  33.538  0.00  0.00    -0.007 A 
ENDBRANCH   1   9
BRANCH   3  19
ATOM     19  C   UNL d   1     -47.755  29.159  35.359  0.00  0.00     0.080 C 
BRANCH  19  20
ATOM     20  C   UNL d   1     -47.723  29.935  35.101  0.00  0.00     0.020 A 
ATOM     21  C   UNL d   1     -47.397  30.530  35.576  0.00  0.00     0.028 A 
ATOM     22  C   UNL d   1     -47.362  31.318  35.318  0.00  0.00     0.119 A 
ATOM     23  O   UNL d   1     -47.071  31.977  35.687  0.00  0.00    -0.300 OA
ATOM     24  C   UNL d   1     -47.657  31.530  34.570  0.00  0.00     0.119 A 
ATOM     25  C   UNL d   1     -47.173  32.649  35.175  0.00  0.00     0.304 A 
ATOM     26  O   UNL d   1     -47.537  32.345  34.491  0.00  0.00    -0.300 OA
ATOM     27  C   UNL d   1     -47.988  30.932  34.084  0.00  0.00     0.026 A 
ATOM     28  C   UNL d   1     -48.020  30.148  34.346  0.00  0.00     0.004 A 
ENDBRANCH  19  20
ENDBRANCH   3  19
TORSDOF 3
ENDMDL
MODEL 4
REMARK VINA RESULT:      75.3      2.170      6.640
REMARK  3 active torsions:
REMARK  status: ('A' for Active; 'I' for Inactive)
REMARK    1  A    between atoms: C_2  and  C_1 
REMARK       I    between atoms: N_3  and  C_2 
REMARK    2  A    between atoms: C_21  and  N_4 
REMARK    3  A    between atoms: C_20  and  C_21 
ROOT
ATOM      1  C   UNL d   1     -47.576  30.962  35.224  0.00  0.00     0.255 C 
ATOM      2  N   UNL d   1     -47.858  30.180  35.075  0.00  0.00    -0.271 N 
ATOM      3  N   UNL d   1     -48.402  28.642  34.799  0.00  0.00    -0.300 N 
ATOM      4  O   UNL d   1     -47.115  31.087  35.823  0.00  0.00    -0.270 OA
ATOM      5  C   UNL d   1     -47.642  29.558  35.567  0.00  0.00     0.102 A 
ATOM      6  C   UNL d   1     -48.355  30.033  34.434  0.00  0.00     0.102 A 
ATOM      7  C   UNL d   1     -48.634  29.260  34.287  0.00  0.00     0.100 A 
ATOM      8  C   UNL d   1     -47.901  28.792  35.445  0.00  0.00     0.100 A 
ENDROOT
BRANCH   1   9
ATOM      9  C   UNL d   1     -47.793  31.565  34.738  0.00  0.00     0.137 A 
ATOM     10  C   UNL d   1     -47.069  31.912  34.589  0.00  0.00     0.033 A 
ATOM     11  C   UNL d   1     -46.936  32.572  34.114  0.00  0.00     0.046 A 
ATOM     12  C   UNL d   1     -47.293  33.110  33.655  0.00  0.00    -0.015 A 
ATOM     13  C   UNL d   1     -47.515  32.925  33.760  0.00  0.00    -0.022 A 
ATOM     14  C   UNL d   1     -48.028  32.964  33.651  0.00  0.00     0.027 A 
ATOM     15  C   UNL d   1     -48.068  32.317  34.131  0.00  0.00    -0.117 A 
ATOM     16  C   UNL d   1     -48.724  33.262  33.320  0.00  0.00     0.006 A 
ATOM     17  C   UNL d   1     -48.422  32.499  33.940  0.00  0.00    -0.006 A 
ATOM     18  C   UNL d   1     -48.475  31.861  34.411  0.00  0.00    -0.007 A 
ENDBRANCH   1   9
BRANCH   3  19
ATOM     19  C   UNL d   1     -48.579  27.959  34.765  0.00  0.00     0.080 C 
BRANCH  19  20
ATOM     20  C   UNL d   1     -49.265  27.736  34.379  0.00  0.00     0.020 A 
ATOM     21  C   UNL d   1     -49.654  27.031  34.571  0.00  0.00     0.028 A 
ATOM     22  C   UNL d   1     -50.350  26.802  34.181  0.00  0.00     0.119 A 
ATOM     23  O   UNL d   1     -50.813  26.146  34.280  0.00  0.00    -0.300 OA
ATOM     24  C   UNL d   1     -50.675  27.280  33.583  0.00  0.00     0.119 A 
ATOM     25  C   UNL d   1     -51.466  26.183  33.734  0.00  0.00     0.304 A 
ATOM     26  O   UNL d   1     -51.356  26.893  33.316  0.00  0.00    -0.300 OA
ATOM     27  C   UNL d   1     -50.285  27.995  33.383  0.00  0.00     0.026 A 
ATOM     28  C   UNL d   1     -49.592  28.219  33.775  0.00  0.00     0.004 A 
ENDBRANCH  19  20
ENDBRANCH   3  19
TORSDOF 3
ENDMDL
