MODEL 1
REMARK VINA RESULT:      47.5      0.000      0.000
REMARK  4 active torsions:
REMARK  status: ('A' for Active; 'I' for Inactive)
REMARK    1  A    between atoms: C_2  and  S_1 
REMARK    2  A    between atoms: N_4  and  S_1 
REMARK    3  A    between atoms: O_12  and  C_5 
REMARK    4  A    between atoms: O_13  and  C_7 
ROOT
ATOM      1  C   UNL d   1     -54.743-101.429 -41.885  0.00  0.00     0.128 A 
ATOM      2  C   UNL d   1     -54.736-101.090 -41.133  0.00  0.00     0.040 A 
ATOM      3  C   UNL d   1     -54.745-102.246 -41.972  0.00  0.00     0.107 A 
ATOM      4  C   UNL d   1     -54.740-102.729 -41.305  0.00  0.00     0.034 A 
ATOM      5  C   UNL d   1     -54.730-101.573 -40.467  0.00  0.00     0.101 A 
ATOM      6  C   UNL d   1     -54.732-102.398 -40.549  0.00  0.00     0.059 A 
ATOM      7 BR   UNL d   1     -54.727-102.880 -39.885  0.00  0.00    -0.047 Br
ENDROOT
BRANCH   1   8
ATOM      8  S   UNL d   1     -54.749-100.943 -42.555  0.00  0.00     0.273 S 
ATOM      9  O   UNL d   1     -54.735-100.276 -42.072  0.00  0.00    -0.200 OA
ATOM     10  O   UNL d   1     -54.763-101.613 -43.042  0.00  0.00    -0.200 OA
BRANCH   8  11
ATOM     11  N   UNL d   1     -54.754-100.459 -43.222  0.00  0.00    -0.229 N 
ATOM     12  C   UNL d   1     -54.729-100.846 -43.949  0.00  0.00     0.092 A 
ATOM     13  C   UNL d   1     -54.728-100.525 -44.708  0.00  0.00     0.020 A 
ATOM     14  C   UNL d   1     -54.751 -99.732 -44.935  0.00  0.00     0.002 A 
ATOM     15  C   UNL d   1     -54.781 -99.066 -44.446  0.00  0.00     0.002 A 
ATOM     16  C   UNL d   1     -54.796 -99.027 -43.625  0.00  0.00     0.020 A 
ATOM     17  C   UNL d   1     -54.784 -99.642 -43.074  0.00  0.00     0.092 A 
ENDBRANCH   8  11
ENDBRANCH   1   8
BRANCH   3  18
ATOM     18  O   UNL d   1     -54.753-102.578 -42.719  0.00  0.00    -0.327 OA
ATOM     19  C   UNL d   1     -55.470-102.725 -43.100  0.00  0.00     0.181 C 
ENDBRANCH   3  18
BRANCH   5  20
ATOM     20  O   UNL d   1     -54.722-101.241 -39.719  0.00  0.00    -0.328 OA
ATOM     21  C   UNL d   1     -54.901-101.699 -39.065  0.00  0.00     0.181 C 
ENDBRANCH   5  20
TORSDOF 4
ENDMDL
MODEL 2
REMARK VINA RESULT:      50.2      1.660      3.807
REMARK  4 active torsions:
REMARK  status: ('A' for Active; 'I' for Inactive)
REMARK    1  A    between atoms: C_2  and  S_1 
REMARK    2  A    between atoms: N_4  and  S_1 
REMARK    3  A    between atoms: O_12  and  C_5 
REMARK    4  A    between atoms: O_13  and  C_7 
ROOT
ATOM      1  C   UNL d   1     -55.112-100.983 -43.109  0.00  0.00     0.128 A 
ATOM      2  C   UNL d   1     -55.082-100.168 -43.232  0.00  0.00     0.040 A 
ATOM      3  C   UNL d   1     -55.219-101.494 -43.743  0.00  0.00     0.107 A 
ATOM      4  C   UNL d   1     -55.297-101.192 -44.505  0.00  0.00     0.034 A 
ATOM      5  C   UNL d   1     -55.159 -99.866 -43.994  0.00  0.00     0.101 A 
ATOM      6  C   UNL d   1     -55.267-100.377 -44.637  0.00  0.00     0.059 A 
ATOM      7 BR   UNL d   1     -55.344-100.077 -45.396  0.00  0.00    -0.047 Br
ENDROOT
BRANCH   1   8
ATOM      8  S   UNL d   1     -55.034-101.287 -42.343  0.00  0.00     0.273 S 
ATOM      9  O   UNL d   1     -54.720-101.983 -42.650  0.00  0.00    -0.200 OA
ATOM     10  O   UNL d   1     -55.350-100.587 -42.033  0.00  0.00    -0.200 OA
BRANCH   8  11
ATOM     11  N   UNL d   1     -54.957-101.589 -41.580  0.00  0.00    -0.229 N 
ATOM     12  C   UNL d   1     -54.844-101.033 -40.982  0.00  0.00     0.092 A 
ATOM     13  C   UNL d   1     -54.749-101.155 -40.173  0.00  0.00     0.020 A 
ATOM     14  C   UNL d   1     -54.742-101.866 -39.753  0.00  0.00     0.002 A 
ATOM     15  C   UNL d   1     -54.830-102.632 -40.051  0.00  0.00     0.002 A 
ATOM     16  C   UNL d   1     -54.946-102.873 -40.829  0.00  0.00     0.020 A 
ATOM     17  C   UNL d   1     -55.003-102.416 -41.514  0.00  0.00     0.092 A 
ENDBRANCH   8  11
ENDBRANCH   1   8
BRANCH   3  18
ATOM     18  O   UNL d   1     -55.249-102.302 -43.617  0.00  0.00    -0.327 OA
ATOM     19  C   UNL d   1     -55.045-102.823 -44.223  0.00  0.00     0.181 C 
ENDBRANCH   3  18
BRANCH   5  20
ATOM     20  O   UNL d   1     -55.129 -99.058 -44.120  0.00  0.00    -0.328 OA
ATOM     21  C   UNL d   1     -54.936 -98.765 -44.859  0.00  0.00     0.181 C 
ENDBRANCH   5  20
TORSDOF 4
ENDMDL
