MODEL 1
REMARK VINA RESULT:      62.9      0.000      0.000
REMARK  3 active torsions:
REMARK  status: ('A' for Active; 'I' for Inactive)
REMARK    1  A    between atoms: S_3  and  N_1 
REMARK    2  A    between atoms: C_8  and  C_4 
REMARK    3  A    between atoms: C_7  and  C_5 
ROOT
ATOM      1  N   UNL d   1      59.166  48.213  50.896  0.00  0.00    -0.155 N 
ATOM      2  N   UNL d   1      58.387  48.209  50.595  0.00  0.00    -0.155 NA
ATOM      3  C   UNL d   1      59.356  48.977  51.083  0.00  0.00     0.096 A 
ATOM      4  C   UNL d   1      58.119  48.985  50.609  0.00  0.00     0.110 A 
ATOM      5  C   UNL d   1      58.730  49.478  50.918  0.00  0.00     0.041 A 
ENDROOT
BRANCH   3   6
ATOM      6  C   UNL d   1      60.079  49.221  51.398  0.00  0.00     0.018 A 
ATOM      7  C   UNL d   1      60.682  49.464  50.904  0.00  0.00     0.002 A 
ATOM      8  C   UNL d   1      60.566  49.465  50.088  0.00  0.00     0.000 C 
ATOM      9  C   UNL d   1      61.405  49.708  51.219  0.00  0.00     0.000 A 
ATOM     10  C   UNL d   1      61.524  49.708  52.027  0.00  0.00     0.000 A 
ATOM     11  C   UNL d   1      60.915  49.462  52.533  0.00  0.00     0.000 A 
ATOM     12  C   UNL d   1      60.193  49.218  52.219  0.00  0.00     0.002 A 
ENDBRANCH   3   6
BRANCH   1  13
ATOM     13  S   UNL d   1      59.630  47.556  50.976  0.00  0.00     0.266 S 
ATOM     14  O   UNL d   1      60.141  47.854  50.419  0.00  0.00    -0.203 OA
ATOM     15  O   UNL d   1      59.111  47.231  51.554  0.00  0.00    -0.203 OA
ATOM     16  C   UNL d   1      60.119  46.852  51.067  0.00  0.00     0.165 C 
ENDBRANCH   1  13
BRANCH   4  17
ATOM     17  C   UNL d   1      57.379  49.256  50.365  0.00  0.00     0.049 A 
ATOM     18  S   UNL d   1      57.205  49.471  49.598  0.00  0.00    -0.085 SA
ATOM     19  C   UNL d   1      56.414  49.708  49.585  0.00  0.00     0.035 A 
ATOM     20  C   UNL d   1      56.098  49.638  50.348  0.00  0.00     0.007 A 
ATOM     21  C   UNL d   1      56.691  49.362  50.817  0.00  0.00     0.009 A 
ENDBRANCH   4  17
TORSDOF 3
ENDMDL
