MODEL 1
REMARK VINA RESULT:      -6.8      0.000      0.000
REMARK  5 active torsions:
REMARK  status: ('A' for Active; 'I' for Inactive)
REMARK    1  A    between atoms: N_5  and  C_1 
REMARK    2  A    between atoms: C_8  and  C_2 
REMARK       I    between atoms: C_6  and  N_5 
REMARK    3  A    between atoms: C_9  and  C_6 
REMARK    4  A    between atoms: O_12  and  C_8 
REMARK    5  A    between atoms: C_17  and  O_12 
ROOT
ATOM      1  C   UNL d   1     -48.531  13.010  22.984  0.00  0.00     0.114 A 
ATOM      2  C   UNL d   1     -47.212  12.926  23.080  0.00  0.00     0.094 A 
ATOM      3  S   UNL d   1     -47.819  13.394  22.839  0.00  0.00    -0.062 SA
ATOM      4  C   UNL d   1     -47.570  12.229  23.383  0.00  0.00     0.013 A 
ATOM      5  C   UNL d   1     -48.346  12.291  23.321  0.00  0.00     0.026 A 
ATOM      6  C   UNL d   1     -47.170  11.579  23.698  0.00  0.00     0.001 C 
ENDROOT
BRANCH   1   7
ATOM      7  N   UNL d   1     -49.320  13.298  22.819  0.00  0.00    -0.205 NA
ATOM      8  C   UNL d   1     -49.623  13.232  22.062  0.00  0.00     0.255 C 
ATOM      9  O   UNL d   1     -49.186  12.897  21.462  0.00  0.00    -0.270 OA
BRANCH   8  10
ATOM     10  C   UNL d   1     -50.373  13.505  21.901  0.00  0.00     0.073 C 
ATOM     11  C   UNL d   1     -50.582  14.360  21.782  0.00  0.00     0.009 C 
ATOM     12  C   UNL d   1     -51.047  12.974  21.829  0.00  0.00     0.009 C 
ATOM     13  C   UNL d   1     -51.033  13.728  21.760  0.00  0.00     0.009 C 
ENDBRANCH   8  10
ENDBRANCH   1   7
BRANCH   2  14
ATOM     14  C   UNL d   1     -46.398  13.092  23.039  0.00  0.00     0.306 C 
ATOM     15  O   UNL d   1     -46.035  13.403  23.697  0.00  0.00    -0.258 OA
BRANCH  14  16
ATOM     16  O   UNL d   1     -45.966  12.952  22.362  0.00  0.00    -0.271 OA
BRANCH  16  17
ATOM     17  C   UNL d   1     -45.244  13.322  22.246  0.00  0.00     0.126 C 
ATOM     18  C   UNL d   1     -44.723  13.011  21.687  0.00  0.00     0.029 C 
ENDBRANCH  16  17
ENDBRANCH  14  16
ENDBRANCH   2  14
TORSDOF 5
ENDMDL
MODEL 2
REMARK VINA RESULT:      -6.5      1.107      1.520
REMARK  5 active torsions:
REMARK  status: ('A' for Active; 'I' for Inactive)
REMARK    1  A    between atoms: N_5  and  C_1 
REMARK    2  A    between atoms: C_8  and  C_2 
REMARK       I    between atoms: C_6  and  N_5 
REMARK    3  A    between atoms: C_9  and  C_6 
REMARK    4  A    between atoms: O_12  and  C_8 
REMARK    5  A    between atoms: C_17  and  O_12 
ROOT
ATOM      1  C   UNL d   1     -48.421  13.638  23.111  0.00  0.00     0.114 A 
ATOM      2  C   UNL d   1     -47.113  13.784  22.950  0.00  0.00     0.094 A 
ATOM      3  S   UNL d   1     -47.688  13.272  23.180  0.00  0.00    -0.062 SA
ATOM      4  C   UNL d   1     -47.512  14.490  22.733  0.00  0.00     0.013 A 
ATOM      5  C   UNL d   1     -48.281  14.391  22.832  0.00  0.00     0.026 A 
ATOM      6  C   UNL d   1     -47.155  15.181  22.459  0.00  0.00     0.001 C 
ENDROOT
BRANCH   1   7
ATOM      7  N   UNL d   1     -49.188  13.305  23.292  0.00  0.00    -0.205 NA
ATOM      8  C   UNL d   1     -49.561  12.829  22.743  0.00  0.00     0.255 C 
ATOM      9  O   UNL d   1     -49.215  12.666  22.023  0.00  0.00    -0.270 OA
BRANCH   8  10
ATOM     10  C   UNL d   1     -50.290  12.510  22.912  0.00  0.00     0.073 C 
ATOM     11  C   UNL d   1     -51.064  12.858  22.650  0.00  0.00     0.009 C 
ATOM     12  C   UNL d   1     -50.378  11.787  23.372  0.00  0.00     0.009 C 
ATOM     13  C   UNL d   1     -50.921  12.220  23.068  0.00  0.00     0.009 C 
ENDBRANCH   8  10
ENDBRANCH   1   7
BRANCH   2  14
ATOM     14  C   UNL d   1     -46.293  13.648  22.930  0.00  0.00     0.306 C 
ATOM     15  O   UNL d   1     -45.857  13.825  23.595  0.00  0.00    -0.258 OA
BRANCH  14  16
ATOM     16  O   UNL d   1     -45.924  13.345  22.270  0.00  0.00    -0.271 OA
BRANCH  16  17
ATOM     17  C   UNL d   1     -45.171  13.026  22.322  0.00  0.00     0.126 C 
ATOM     18  C   UNL d   1     -44.742  12.904  21.629  0.00  0.00     0.029 C 
ENDBRANCH  16  17
ENDBRANCH  14  16
ENDBRANCH   2  14
TORSDOF 5
ENDMDL
MODEL 3
REMARK VINA RESULT:      -6.2      1.353      4.140
REMARK  5 active torsions:
REMARK  status: ('A' for Active; 'I' for Inactive)
REMARK    1  A    between atoms: N_5  and  C_1 
REMARK    2  A    between atoms: C_8  and  C_2 
REMARK       I    between atoms: C_6  and  N_5 
REMARK    3  A    between atoms: C_9  and  C_6 
REMARK    4  A    between atoms: O_12  and  C_8 
REMARK    5  A    between atoms: C_17  and  O_12 
ROOT
ATOM      1  C   UNL d   1     -48.473  13.173  22.135  0.00  0.00     0.114 A 
ATOM      2  C   UNL d   1     -49.675  13.721  22.247  0.00  0.00     0.094 A 
ATOM      3  S   UNL d   1     -48.889  13.880  22.190  0.00  0.00    -0.062 SA
ATOM      4  C   UNL d   1     -49.738  12.884  22.225  0.00  0.00     0.013 A 
ATOM      5  C   UNL d   1     -49.025  12.574  22.159  0.00  0.00     0.026 A 
ATOM      6  C   UNL d   1     -50.441  12.453  22.266  0.00  0.00     0.001 C 
ENDROOT
BRANCH   1   7
ATOM      7  N   UNL d   1     -47.626  13.072  22.066  0.00  0.00    -0.205 NA
ATOM      8  C   UNL d   1     -47.156  13.140  22.731  0.00  0.00     0.255 C 
ATOM      9  O   UNL d   1     -47.480  13.301  23.461  0.00  0.00    -0.270 OA
BRANCH   8  10
ATOM     10  C   UNL d   1     -46.350  13.045  22.669  0.00  0.00     0.073 C 
ATOM     11  C   UNL d   1     -45.905  12.327  22.947  0.00  0.00     0.009 C 
ATOM     12  C   UNL d   1     -45.844  13.646  22.319  0.00  0.00     0.009 C 
ATOM     13  C   UNL d   1     -45.645  12.975  22.608  0.00  0.00     0.009 C 
ENDBRANCH   8  10
ENDBRANCH   1   7
BRANCH   2  14
ATOM     14  C   UNL d   1     -50.297  14.268  22.313  0.00  0.00     0.306 C 
ATOM     15  O   UNL d   1     -50.805  14.352  21.682  0.00  0.00    -0.258 OA
BRANCH  14  16
ATOM     16  O   UNL d   1     -50.406  14.715  22.986  0.00  0.00    -0.271 OA
BRANCH  16  17
ATOM     17  C   UNL d   1     -50.972  15.308  23.006  0.00  0.00     0.126 C 
ATOM     18  C   UNL d   1     -51.064  15.746  23.698  0.00  0.00     0.029 C 
ENDBRANCH  16  17
ENDBRANCH  14  16
ENDBRANCH   2  14
TORSDOF 5
ENDMDL
MODEL 4
REMARK VINA RESULT:      -5.7      1.606      4.166
REMARK  5 active torsions:
REMARK  status: ('A' for Active; 'I' for Inactive)
REMARK    1  A    between atoms: N_5  and  C_1 
REMARK    2  A    between atoms: C_8  and  C_2 
REMARK       I    between atoms: C_6  and  N_5 
REMARK    3  A    between atoms: C_9  and  C_6 
REMARK    4  A    between atoms: O_12  and  C_8 
REMARK    5  A    between atoms: C_17  and  O_12 
ROOT
ATOM      1  C   UNL d   1     -47.695  14.057  22.972  0.00  0.00     0.114 A 
ATOM      2  C   UNL d   1     -49.008  14.101  23.152  0.00  0.00     0.094 A 
ATOM      3  S   UNL d   1     -48.340  13.685  23.319  0.00  0.00    -0.062 SA
ATOM      4  C   UNL d   1     -48.757  14.753  22.685  0.00  0.00     0.013 A 
ATOM      5  C   UNL d   1     -47.983  14.715  22.586  0.00  0.00     0.026 A 
ATOM      6  C   UNL d   1     -49.246  15.341  22.377  0.00  0.00     0.001 C 
ENDROOT
BRANCH   1   7
ATOM      7  N   UNL d   1     -46.875  13.812  23.001  0.00  0.00    -0.205 NA
ATOM      8  C   UNL d   1     -46.610  13.230  22.493  0.00  0.00     0.255 C 
ATOM      9  O   UNL d   1     -47.113  12.878  21.958  0.00  0.00    -0.270 OA
BRANCH   8  10
ATOM     10  C   UNL d   1     -45.832  12.994  22.519  0.00  0.00     0.073 C 
ATOM     11  C   UNL d   1     -45.539  12.270  22.943  0.00  0.00     0.009 C 
ATOM     12  C   UNL d   1     -45.206  13.437  22.126  0.00  0.00     0.009 C 
ATOM     13  C   UNL d   1     -45.147  12.800  22.532  0.00  0.00     0.009 C 
ENDBRANCH   8  10
ENDBRANCH   1   7
BRANCH   2  14
ATOM     14  C   UNL d   1     -49.785  13.927  23.391  0.00  0.00     0.306 C 
ATOM     15  O   UNL d   1     -50.238  14.530  23.698  0.00  0.00    -0.258 OA
BRANCH  14  16
ATOM     16  O   UNL d   1     -50.096  13.177  23.324  0.00  0.00    -0.271 OA
BRANCH  16  17
ATOM     17  C   UNL d   1     -50.834  13.002  23.635  0.00  0.00     0.126 C 
ATOM     18  C   UNL d   1     -51.064  12.213  23.694  0.00  0.00     0.029 C 
ENDBRANCH  16  17
ENDBRANCH  14  16
ENDBRANCH   2  14
TORSDOF 5
ENDMDL
MODEL 5
REMARK VINA RESULT:      -5.4      8.032      9.885
REMARK  5 active torsions:
REMARK  status: ('A' for Active; 'I' for Inactive)
REMARK    1  A    between atoms: N_5  and  C_1 
REMARK    2  A    between atoms: C_8  and  C_2 
REMARK       I    between atoms: C_6  and  N_5 
REMARK    3  A    between atoms: C_9  and  C_6 
REMARK    4  A    between atoms: O_12  and  C_8 
REMARK    5  A    between atoms: C_17  and  O_12 
ROOT
ATOM      1  C   UNL d   1     -40.308  14.551  18.358  0.00  0.00     0.114 A 
ATOM      2  C   UNL d   1     -39.733  14.840  17.199  0.00  0.00     0.094 A 
ATOM      3  S   UNL d   1     -39.613  14.510  17.922  0.00  0.00    -0.062 SA
ATOM      4  C   UNL d   1     -40.534  15.091  17.196  0.00  0.00     0.013 A 
ATOM      5  C   UNL d   1     -40.861  14.916  17.883  0.00  0.00     0.026 A 
ATOM      6  C   UNL d   1     -40.919  15.465  16.569  0.00  0.00     0.001 C 
ENDROOT
BRANCH   1   7
ATOM      7  N   UNL d   1     -40.439  14.269  19.156  0.00  0.00    -0.205 NA
ATOM      8  C   UNL d   1     -40.311  14.772  19.787  0.00  0.00     0.255 C 
ATOM      9  O   UNL d   1     -40.060  15.538  19.670  0.00  0.00    -0.270 OA
BRANCH   8  10
ATOM     10  C   UNL d   1     -40.434  14.508  20.547  0.00  0.00     0.073 C 
ATOM     11  C   UNL d   1     -41.229  14.470  20.943  0.00  0.00     0.009 C 
ATOM     12  C   UNL d   1     -39.789  14.234  21.046  0.00  0.00     0.009 C 
ATOM     13  C   UNL d   1     -40.527  14.274  21.212  0.00  0.00     0.009 C 
ENDBRANCH   8  10
ENDBRANCH   1   7
BRANCH   2  14
ATOM     14  C   UNL d   1     -39.182  14.918  16.581  0.00  0.00     0.306 C 
ATOM     15  O   UNL d   1     -38.933  15.666  16.379  0.00  0.00    -0.258 OA
BRANCH  14  16
ATOM     16  O   UNL d   1     -38.892  14.270  16.181  0.00  0.00    -0.271 OA
BRANCH  16  17
ATOM     17  C   UNL d   1     -38.235  14.339  15.696  0.00  0.00     0.126 C 
ATOM     18  C   UNL d   1     -37.972  13.675  15.284  0.00  0.00     0.029 C 
ENDBRANCH  16  17
ENDBRANCH  14  16
ENDBRANCH   2  14
TORSDOF 5
ENDMDL
MODEL 6
REMARK VINA RESULT:      -5.2      1.551      4.343
REMARK  5 active torsions:
REMARK  status: ('A' for Active; 'I' for Inactive)
REMARK    1  A    between atoms: N_5  and  C_1 
REMARK    2  A    between atoms: C_8  and  C_2 
REMARK       I    between atoms: C_6  and  N_5 
REMARK    3  A    between atoms: C_9  and  C_6 
REMARK    4  A    between atoms: O_12  and  C_8 
REMARK    5  A    between atoms: C_17  and  O_12 
ROOT
ATOM      1  C   UNL d   1     -46.268  13.470  22.694  0.00  0.00     0.114 A 
ATOM      2  C   UNL d   1     -47.591  13.456  22.775  0.00  0.00     0.094 A 
ATOM      3  S   UNL d   1     -46.934  12.993  22.756  0.00  0.00    -0.062 SA
ATOM      4  C   UNL d   1     -47.312  14.247  22.721  0.00  0.00     0.013 A 
ATOM      5  C   UNL d   1     -46.532  14.241  22.674  0.00  0.00     0.026 A 
ATOM      6  C   UNL d   1     -47.782  14.925  22.718  0.00  0.00     0.001 C 
ENDROOT
BRANCH   1   7
ATOM      7  N   UNL d   1     -45.450  13.219  22.656  0.00  0.00    -0.205 NA
ATOM      8  C   UNL d   1     -45.145  12.946  21.949  0.00  0.00     0.255 C 
ATOM      9  O   UNL d   1     -45.605  12.910  21.278  0.00  0.00    -0.270 OA
BRANCH   8  10
ATOM     10  C   UNL d   1     -44.368  12.706  21.909  0.00  0.00     0.073 C 
ATOM     11  C   UNL d   1     -44.033  12.013  22.352  0.00  0.00     0.009 C 
ATOM     12  C   UNL d   1     -43.788  13.114  21.421  0.00  0.00     0.009 C 
ATOM     13  C   UNL d   1     -43.687  12.508  21.864  0.00  0.00     0.009 C 
ENDBRANCH   8  10
ENDBRANCH   1   7
BRANCH   2  14
ATOM     14  C   UNL d   1     -48.383  13.209  22.834  0.00  0.00     0.306 C 
ATOM     15  O   UNL d   1     -48.725  13.189  23.572  0.00  0.00    -0.258 OA
BRANCH  14  16
ATOM     16  O   UNL d   1     -48.814  12.991  22.178  0.00  0.00    -0.271 OA
BRANCH  16  17
ATOM     17  C   UNL d   1     -49.523  12.588  22.261  0.00  0.00     0.126 C 
ATOM     18  C   UNL d   1     -49.979  12.443  21.590  0.00  0.00     0.029 C 
ENDBRANCH  16  17
ENDBRANCH  14  16
ENDBRANCH   2  14
TORSDOF 5
ENDMDL
MODEL 7
REMARK VINA RESULT:      -5.2      8.957      9.786
REMARK  5 active torsions:
REMARK  status: ('A' for Active; 'I' for Inactive)
REMARK    1  A    between atoms: N_5  and  C_1 
REMARK    2  A    between atoms: C_8  and  C_2 
REMARK       I    between atoms: C_6  and  N_5 
REMARK    3  A    between atoms: C_9  and  C_6 
REMARK    4  A    between atoms: O_12  and  C_8 
REMARK    5  A    between atoms: C_17  and  O_12 
ROOT
ATOM      1  C   UNL d   1     -39.962  14.640  19.244  0.00  0.00     0.114 A 
ATOM      2  C   UNL d   1     -40.181  14.999  17.987  0.00  0.00     0.094 A 
ATOM      3  S   UNL d   1     -40.287  15.214  18.754  0.00  0.00    -0.062 SA
ATOM      4  C   UNL d   1     -39.775  14.264  18.013  0.00  0.00     0.013 A 
ATOM      5  C   UNL d   1     -39.652  14.065  18.757  0.00  0.00     0.026 A 
ATOM      6  C   UNL d   1     -39.540  13.820  17.358  0.00  0.00     0.001 C 
ENDROOT
BRANCH   1   7
ATOM      7  N   UNL d   1     -39.946  14.636  20.100  0.00  0.00    -0.205 NA
ATOM      8  C   UNL d   1     -39.328  14.999  20.493  0.00  0.00     0.255 C 
ATOM      9  O   UNL d   1     -38.726  15.364  20.085  0.00  0.00    -0.270 OA
BRANCH   8  10
ATOM     10  C   UNL d   1     -39.309  14.997  21.307  0.00  0.00     0.073 C 
ATOM     11  C   UNL d   1     -39.632  15.647  21.819  0.00  0.00     0.009 C 
ATOM     12  C   UNL d   1     -38.966  14.347  21.755  0.00  0.00     0.009 C 
ATOM     13  C   UNL d   1     -39.286  14.981  22.018  0.00  0.00     0.009 C 
ENDBRANCH   8  10
ENDBRANCH   1   7
BRANCH   2  14
ATOM     14  C   UNL d   1     -40.420  15.414  17.307  0.00  0.00     0.306 C 
ATOM     15  O   UNL d   1     -39.856  15.823  16.886  0.00  0.00    -0.258 OA
BRANCH  14  16
ATOM     16  O   UNL d   1     -41.197  15.418  17.059  0.00  0.00    -0.271 OA
BRANCH  16  17
ATOM     17  C   UNL d   1     -41.440  15.922  16.460  0.00  0.00     0.126 C 
ATOM     18  C   UNL d   1     -42.228  15.901  16.218  0.00  0.00     0.029 C 
ENDBRANCH  16  17
ENDBRANCH  14  16
ENDBRANCH   2  14
TORSDOF 5
ENDMDL
MODEL 8
REMARK VINA RESULT:      -5.1      8.174      9.226
REMARK  5 active torsions:
REMARK  status: ('A' for Active; 'I' for Inactive)
REMARK    1  A    between atoms: N_5  and  C_1 
REMARK    2  A    between atoms: C_8  and  C_2 
REMARK       I    between atoms: C_6  and  N_5 
REMARK    3  A    between atoms: C_9  and  C_6 
REMARK    4  A    between atoms: O_12  and  C_8 
REMARK    5  A    between atoms: C_17  and  O_12 
ROOT
ATOM      1  C   UNL d   1     -40.149  15.533  19.377  0.00  0.00     0.114 A 
ATOM      2  C   UNL d   1     -39.982  15.420  20.687  0.00  0.00     0.094 A 
ATOM      3  S   UNL d   1     -39.629  15.311  19.973  0.00  0.00    -0.062 SA
ATOM      4  C   UNL d   1     -40.747  15.721  20.517  0.00  0.00     0.013 A 
ATOM      5  C   UNL d   1     -40.833  15.783  19.743  0.00  0.00     0.026 A 
ATOM      6  C   UNL d   1     -41.321  15.922  21.075  0.00  0.00     0.001 C 
ENDROOT
BRANCH   1   7
ATOM      7  N   UNL d   1     -40.011  15.511  18.532  0.00  0.00    -0.205 NA
ATOM      8  C   UNL d   1     -40.223  14.847  18.106  0.00  0.00     0.255 C 
ATOM      9  O   UNL d   1     -40.564  14.203  18.472  0.00  0.00    -0.270 OA
BRANCH   8  10
ATOM     10  C   UNL d   1     -40.094  14.822  17.303  0.00  0.00     0.073 C 
ATOM     11  C   UNL d   1     -40.620  15.204  16.697  0.00  0.00     0.009 C 
ATOM     12  C   UNL d   1     -39.418  14.413  16.961  0.00  0.00     0.009 C 
ATOM     13  C   UNL d   1     -39.968  14.792  16.604  0.00  0.00     0.009 C 
ENDBRANCH   8  10
ENDBRANCH   1   7
BRANCH   2  14
ATOM     14  C   UNL d   1     -39.660  15.269  21.439  0.00  0.00     0.306 C 
ATOM     15  O   UNL d   1     -39.488  15.903  21.919  0.00  0.00    -0.258 OA
BRANCH  14  16
ATOM     16  O   UNL d   1     -39.518  14.510  21.699  0.00  0.00    -0.271 OA
BRANCH  16  17
ATOM     17  C   UNL d   1     -39.048  14.377  22.358  0.00  0.00     0.126 C 
ATOM     18  C   UNL d   1     -38.911  13.600  22.598  0.00  0.00     0.029 C 
ENDBRANCH  16  17
ENDBRANCH  14  16
ENDBRANCH   2  14
TORSDOF 5
ENDMDL
