MODEL 1
REMARK VINA RESULT:      -8.8      0.000      0.000
REMARK  2 active torsions:
REMARK  status: ('A' for Active; 'I' for Inactive)
REMARK    1  A    between atoms: C_6  and  C_3 
REMARK    2  A    between atoms: C_9  and  C_6 
ROOT
ATOM      1  C   UNL d   1      53.620  32.273  53.171  0.00  0.00     0.011 C 
ENDROOT
BRANCH   1   2
ATOM      2  C   UNL d   1      53.307  31.498  53.225  0.00  0.00     0.092 A 
ATOM      3  C   UNL d   1      52.611  31.221  52.950  0.00  0.00     0.288 A 
ATOM      4  N   UNL d   1      52.550  30.445  53.131  0.00  0.00    -0.163 NA
ATOM      5  O   UNL d   1      52.030  31.699  52.528  0.00  0.00    -0.265 OA
ATOM      6  C   UNL d   1      53.259  30.252  53.540  0.00  0.00     0.313 A 
ATOM      7  S   UNL d   1      53.698  30.925  53.577  0.00  0.00    -0.021 SA
ATOM      8  O   UNL d   1      53.449  29.487  53.844  0.00  0.00    -0.258 OA
ENDBRANCH   1   2
BRANCH   1   9
ATOM      9  C   UNL d   1      53.978  32.671  53.800  0.00  0.00     0.001 A 
ATOM     10  C   UNL d   1      53.591  32.854  54.505  0.00  0.00     0.001 A 
ATOM     11  C   UNL d   1      53.975  33.243  55.094  0.00  0.00     0.011 A 
ATOM     12  C   UNL d   1      54.786  33.473  55.004  0.00  0.00     0.058 A 
ATOM     13  C   UNL d   1      55.172  33.290  54.299  0.00  0.00     0.011 A 
ATOM     14 CL   UNL d   1      55.195  33.874  55.599  0.00  0.00    -0.082 Cl
ATOM     15  C   UNL d   1      54.766  32.883  53.685  0.00  0.00     0.001 A 
ENDBRANCH   1   9
TORSDOF 2
ENDMDL
MODEL 2
REMARK VINA RESULT:      -8.7      1.264      1.951
REMARK  2 active torsions:
REMARK  status: ('A' for Active; 'I' for Inactive)
REMARK    1  A    between atoms: C_6  and  C_3 
REMARK    2  A    between atoms: C_9  and  C_6 
ROOT
ATOM      1  C   UNL d   1      53.420  32.107  53.917  0.00  0.00     0.011 C 
ENDROOT
BRANCH   1   2
ATOM      2  C   UNL d   1      52.841  32.362  53.369  0.00  0.00     0.092 A 
ATOM      3  C   UNL d   1      52.570  31.985  52.720  0.00  0.00     0.288 A 
ATOM      4  N   UNL d   1      52.017  32.442  52.366  0.00  0.00    -0.163 NA
ATOM      5  O   UNL d   1      52.841  31.209  52.459  0.00  0.00    -0.265 OA
ATOM      6  C   UNL d   1      51.960  33.135  52.839  0.00  0.00     0.313 A 
ATOM      7  S   UNL d   1      52.482  33.047  53.445  0.00  0.00    -0.021 SA
ATOM      8  O   UNL d   1      51.444  33.785  52.684  0.00  0.00    -0.258 OA
ENDBRANCH   1   2
BRANCH   1   9
ATOM      9  C   UNL d   1      53.995  32.602  54.245  0.00  0.00     0.001 A 
ATOM     10  C   UNL d   1      54.614  32.934  53.811  0.00  0.00     0.001 A 
ATOM     11  C   UNL d   1      55.153  33.411  54.167  0.00  0.00     0.011 A 
ATOM     12  C   UNL d   1      55.099  33.584  54.995  0.00  0.00     0.058 A 
ATOM     13  C   UNL d   1      54.481  33.252  55.428  0.00  0.00     0.011 A 
ATOM     14 CL   UNL d   1      55.646  34.072  55.377  0.00  0.00    -0.082 Cl
ATOM     15  C   UNL d   1      53.918  32.753  55.051  0.00  0.00     0.001 A 
ENDBRANCH   1   9
TORSDOF 2
ENDMDL
MODEL 3
REMARK VINA RESULT:      -8.5      2.588      3.535
REMARK  2 active torsions:
REMARK  status: ('A' for Active; 'I' for Inactive)
REMARK    1  A    between atoms: C_6  and  C_3 
REMARK    2  A    between atoms: C_9  and  C_6 
ROOT
ATOM      1  C   UNL d   1      54.245  32.893  53.737  0.00  0.00     0.011 C 
ENDROOT
BRANCH   1   2
ATOM      2  C   UNL d   1      53.998  33.516  54.237  0.00  0.00     0.092 A 
ATOM      3  C   UNL d   1      54.317  33.757  54.928  0.00  0.00     0.288 A 
ATOM      4  N   UNL d   1      53.894  34.374  55.209  0.00  0.00    -0.163 NA
ATOM      5  O   UNL d   1      55.008  33.396  55.297  0.00  0.00    -0.265 OA
ATOM      6  C   UNL d   1      53.284  34.506  54.644  0.00  0.00     0.313 A 
ATOM      7  S   UNL d   1      53.383  33.959  54.063  0.00  0.00    -0.021 SA
ATOM      8  O   UNL d   1      52.693  35.107  54.701  0.00  0.00    -0.258 OA
ENDBRANCH   1   2
BRANCH   1   9
ATOM      9  C   UNL d   1      53.773  32.244  53.540  0.00  0.00     0.001 A 
ATOM     10  C   UNL d   1      53.124  32.287  53.034  0.00  0.00     0.001 A 
ATOM     11  C   UNL d   1      52.689  31.633  52.867  0.00  0.00     0.011 A 
ATOM     12  C   UNL d   1      52.888  30.883  53.209  0.00  0.00     0.058 A 
ATOM     13  C   UNL d   1      53.537  30.839  53.716  0.00  0.00     0.011 A 
ATOM     14 CL   UNL d   1      52.451  30.199  53.049  0.00  0.00    -0.082 Cl
ATOM     15  C   UNL d   1      53.989  31.527  53.886  0.00  0.00     0.001 A 
ENDBRANCH   1   9
TORSDOF 2
ENDMDL
MODEL 4
REMARK VINA RESULT:      -8.4      2.846      3.428
REMARK  2 active torsions:
REMARK  status: ('A' for Active; 'I' for Inactive)
REMARK    1  A    between atoms: C_6  and  C_3 
REMARK    2  A    between atoms: C_9  and  C_6 
ROOT
ATOM      1  C   UNL d   1      52.996  32.960  53.163  0.00  0.00     0.011 C 
ENDROOT
BRANCH   1   2
ATOM      2  C   UNL d   1      53.457  33.020  53.859  0.00  0.00     0.092 A 
ATOM      3  C   UNL d   1      53.795  32.435  54.284  0.00  0.00     0.288 A 
ATOM      4  N   UNL d   1      54.183  32.755  54.905  0.00  0.00    -0.163 NA
ATOM      5  O   UNL d   1      53.740  31.596  54.088  0.00  0.00    -0.265 OA
ATOM      6  C   UNL d   1      54.064  33.586  54.841  0.00  0.00     0.313 A 
ATOM      7  S   UNL d   1      53.614  33.707  54.186  0.00  0.00    -0.021 SA
ATOM      8  O   UNL d   1      54.372  34.161  55.377  0.00  0.00    -0.258 OA
ENDBRANCH   1   2
BRANCH   1   9
ATOM      9  C   UNL d   1      52.252  33.308  53.071  0.00  0.00     0.001 A 
ATOM     10  C   UNL d   1      51.570  33.034  53.445  0.00  0.00     0.001 A 
ATOM     11  C   UNL d   1      50.864  33.400  53.331  0.00  0.00     0.011 A 
ATOM     12  C   UNL d   1      50.805  34.076  52.822  0.00  0.00     0.058 A 
ATOM     13  C   UNL d   1      51.487  34.350  52.448  0.00  0.00     0.011 A 
ATOM     14 CL   UNL d   1      50.087  34.464  52.693  0.00  0.00    -0.082 Cl
ATOM     15  C   UNL d   1      52.223  33.963  52.571  0.00  0.00     0.001 A 
ENDBRANCH   1   9
TORSDOF 2
ENDMDL
