MODEL 1
REMARK VINA RESULT:      85.0      0.000      0.000
REMARK  3 active torsions:
REMARK  status: ('A' for Active; 'I' for Inactive)
REMARK    1  A    between atoms: C_10  and  N_1 
REMARK    2  A    between atoms: C_11  and  C_14 
REMARK    3  A    between atoms: O_20  and  C_11 
ROOT
ATOM      1  N   UNL d   1      59.425  49.198  50.445  0.00  0.00    -0.242 N 
ATOM      2  C   UNL d   1      58.979  49.289  49.776  0.00  0.00     0.267 A 
ATOM      3  C   UNL d   1      58.950  49.234  51.118  0.00  0.00     0.267 A 
ATOM      4  C   UNL d   1      58.189  49.388  50.029  0.00  0.00     0.061 A 
ATOM      5  C   UNL d   1      58.172  49.354  50.843  0.00  0.00     0.061 A 
ATOM      6  C   UNL d   1      57.456  49.435  51.255  0.00  0.00     0.005 A 
ATOM      7  C   UNL d   1      57.492  49.504  49.600  0.00  0.00     0.005 A 
ATOM      8  C   UNL d   1      56.768  49.550  50.821  0.00  0.00     0.000 A 
ATOM      9  C   UNL d   1      56.786  49.584  50.007  0.00  0.00     0.000 A 
ATOM     10  O   UNL d   1      59.284  49.281  49.007  0.00  0.00    -0.267 OA
ATOM     11  O   UNL d   1      59.192  49.164  51.922  0.00  0.00    -0.267 OA
ATOM     12  C   UNL d   1      56.035  49.633  51.250  0.00  0.00     0.000 C 
ATOM     13  C   UNL d   1      56.072  49.703  49.555  0.00  0.00     0.000 C 
ENDROOT
BRANCH   1  14
ATOM     14  C   UNL d   1      60.234  49.082  50.527  0.00  0.00     0.070 A 
ATOM     15  C   UNL d   1      60.572  48.349  50.333  0.00  0.00     0.018 A 
ATOM     16  C   UNL d   1      61.376  48.220  50.410  0.00  0.00     0.007 A 
ATOM     17  C   UNL d   1      61.844  48.837  50.685  0.00  0.00     0.063 A 
ATOM     18  C   UNL d   1      61.512  49.574  50.880  0.00  0.00     0.007 A 
ATOM     19  C   UNL d   1      60.707  49.681  50.796  0.00  0.00     0.018 A 
BRANCH  17  20
ATOM     20  C   UNL d   1      62.676  48.719  50.770  0.00  0.00     0.296 C 
ATOM     21  O   UNL d   1      63.031  48.062  50.456  0.00  0.00    -0.259 OA
BRANCH  20  22
ATOM     22  O   UNL d   1      63.113  49.284  51.175  0.00  0.00    -0.296 OA
ATOM     23  C   UNL d   1      62.791  49.651  51.831  0.00  0.00     0.185 C 
ENDBRANCH  20  22
ENDBRANCH  17  20
ENDBRANCH   1  14
TORSDOF 3
ENDMDL
