MODEL 1
REMARK VINA RESULT:      -9.8      0.000      0.000
REMARK  2 active torsions:
REMARK  status: ('A' for Active; 'I' for Inactive)
REMARK    1  A    between atoms: N_10  and  C_6 
REMARK    2  A    between atoms: C_12  and  N_10 
ROOT
ATOM      1  N   UNL d   1      53.165  32.926  53.420  0.00  0.00    -0.169 N 
ATOM      2  C   UNL d   1      53.726  32.911  54.026  0.00  0.00     0.201 A 
ATOM      3  C   UNL d   1      52.714  33.596  53.302  0.00  0.00     0.283 A 
ATOM      4  S   UNL d   1      54.095  32.174  54.016  0.00  0.00    -0.008 SA
ATOM      5  N   UNL d   1      53.190  32.192  53.035  0.00  0.00    -0.134 NA
ATOM      6  C   UNL d   1      53.759  31.734  53.401  0.00  0.00     0.216 A 
ATOM      7  N   UNL d   1      53.839  33.553  54.511  0.00  0.00    -0.221 NA
ATOM      8  C   UNL d   1      52.819  34.257  53.788  0.00  0.00     0.076 A 
ATOM      9  C   UNL d   1      53.382  34.235  54.393  0.00  0.00     0.088 A 
ATOM     10  O   UNL d   1      52.152  33.617  52.698  0.00  0.00    -0.265 OA
ATOM     11  C   UNL d   1      52.365  34.938  53.674  0.00  0.00     0.006 A 
ATOM     12  C   UNL d   1      53.490  34.896  54.883  0.00  0.00     0.019 A 
ATOM     13  C   UNL d   1      52.479  35.600  54.170  0.00  0.00     0.000 A 
ATOM     14  C   UNL d   1      53.032  35.579  54.765  0.00  0.00     0.002 A 
ENDROOT
BRANCH   6  15
ATOM     15  N   UNL d   1      53.968  30.961  53.196  0.00  0.00    -0.220 NA
BRANCH  15  16
ATOM     16  C   UNL d   1      53.504  30.321  53.414  0.00  0.00     0.084 A 
ATOM     17  C   UNL d   1      53.698  29.871  54.066  0.00  0.00     0.019 A 
ATOM     18  C   UNL d   1      53.223  29.233  54.272  0.00  0.00     0.002 A 
ATOM     19  C   UNL d   1      53.413  28.776  54.926  0.00  0.00     0.000 C 
ATOM     20  C   UNL d   1      52.558  29.056  53.817  0.00  0.00     0.000 A 
ATOM     21  C   UNL d   1      52.365  29.504  53.167  0.00  0.00     0.002 A 
ATOM     22  C   UNL d   1      52.841  30.145  52.960  0.00  0.00     0.019 A 
ENDBRANCH  15  16
ENDBRANCH   6  15
TORSDOF 2
ENDMDL
MODEL 2
REMARK VINA RESULT:      -9.0      0.926      1.223
REMARK  2 active torsions:
REMARK  status: ('A' for Active; 'I' for Inactive)
REMARK    1  A    between atoms: N_10  and  C_6 
REMARK    2  A    between atoms: C_12  and  N_10 
ROOT
ATOM      1  N   UNL d   1      53.739  32.516  53.984  0.00  0.00    -0.169 N 
ATOM      2  C   UNL d   1      53.275  32.526  53.301  0.00  0.00     0.201 A 
ATOM      3  C   UNL d   1      53.792  33.185  54.448  0.00  0.00     0.283 A 
ATOM      4  S   UNL d   1      53.324  31.784  52.945  0.00  0.00    -0.008 SA
ATOM      5  N   UNL d   1      54.075  31.761  54.048  0.00  0.00    -0.134 NA
ATOM      6  C   UNL d   1      53.820  31.315  53.412  0.00  0.00     0.216 A 
ATOM      7  N   UNL d   1      52.867  33.194  53.080  0.00  0.00    -0.221 NA
ATOM      8  C   UNL d   1      53.382  33.871  54.234  0.00  0.00     0.076 A 
ATOM      9  C   UNL d   1      52.919  33.875  53.550  0.00  0.00     0.088 A 
ATOM     10  O   UNL d   1      54.254  33.181  55.132  0.00  0.00    -0.265 OA
ATOM     11  C   UNL d   1      53.431  34.552  54.700  0.00  0.00     0.006 A 
ATOM     12  C   UNL d   1      52.506  34.560  53.332  0.00  0.00     0.019 A 
ATOM     13  C   UNL d   1      53.013  35.239  54.476  0.00  0.00     0.000 A 
ATOM     14  C   UNL d   1      52.558  35.244  53.802  0.00  0.00     0.002 A 
ENDROOT
BRANCH   6  15
ATOM     15  N   UNL d   1      54.021  30.529  53.257  0.00  0.00    -0.220 NA
BRANCH  15  16
ATOM     16  C   UNL d   1      53.554  29.909  53.520  0.00  0.00     0.084 A 
ATOM     17  C   UNL d   1      53.664  29.594  54.265  0.00  0.00     0.019 A 
ATOM     18  C   UNL d   1      53.188  28.973  54.515  0.00  0.00     0.002 A 
ATOM     19  C   UNL d   1      53.293  28.652  55.263  0.00  0.00     0.000 C 
ATOM     20  C   UNL d   1      52.606  28.676  54.011  0.00  0.00     0.000 A 
ATOM     21  C   UNL d   1      52.497  28.990  53.269  0.00  0.00     0.002 A 
ATOM     22  C   UNL d   1      52.975  29.613  53.017  0.00  0.00     0.019 A 
ENDBRANCH  15  16
ENDBRANCH   6  15
TORSDOF 2
ENDMDL
MODEL 3
REMARK VINA RESULT:      -8.8      1.080      4.421
REMARK  2 active torsions:
REMARK  status: ('A' for Active; 'I' for Inactive)
REMARK    1  A    between atoms: N_10  and  C_6 
REMARK    2  A    between atoms: C_12  and  N_10 
ROOT
ATOM      1  N   UNL d   1      53.169  31.321  53.185  0.00  0.00    -0.169 N 
ATOM      2  C   UNL d   1      53.489  31.531  53.917  0.00  0.00     0.201 A 
ATOM      3  C   UNL d   1      52.985  30.541  53.031  0.00  0.00     0.283 A 
ATOM      4  S   UNL d   1      53.619  32.344  53.917  0.00  0.00    -0.008 SA
ATOM      5  N   UNL d   1      53.102  32.013  52.733  0.00  0.00    -0.134 NA
ATOM      6  C   UNL d   1      53.377  32.637  53.182  0.00  0.00     0.216 A 
ATOM      7  N   UNL d   1      53.626  30.972  54.491  0.00  0.00    -0.221 NA
ATOM      8  C   UNL d   1      53.119  29.963  53.607  0.00  0.00     0.076 A 
ATOM      9  C   UNL d   1      53.440  30.178  54.337  0.00  0.00     0.088 A 
ATOM     10  O   UNL d   1      52.665  30.326  52.301  0.00  0.00    -0.265 OA
ATOM     11  C   UNL d   1      52.935  29.171  53.458  0.00  0.00     0.006 A 
ATOM     12  C   UNL d   1      53.575  29.601  54.917  0.00  0.00     0.019 A 
ATOM     13  C   UNL d   1      53.073  28.594  54.045  0.00  0.00     0.000 A 
ATOM     14  C   UNL d   1      53.389  28.806  54.764  0.00  0.00     0.002 A 
ENDROOT
BRANCH   6  15
ATOM     15  N   UNL d   1      53.411  33.429  52.948  0.00  0.00    -0.220 NA
BRANCH  15  16
ATOM     16  C   UNL d   1      52.806  33.953  53.124  0.00  0.00     0.084 A 
ATOM     17  C   UNL d   1      52.086  33.899  52.743  0.00  0.00     0.019 A 
ATOM     18  C   UNL d   1      51.489  34.430  52.930  0.00  0.00     0.002 A 
ATOM     19  C   UNL d   1      50.764  34.382  52.551  0.00  0.00     0.000 C 
ATOM     20  C   UNL d   1      51.624  35.012  53.500  0.00  0.00     0.000 A 
ATOM     21  C   UNL d   1      52.341  35.066  53.880  0.00  0.00     0.002 A 
ATOM     22  C   UNL d   1      52.941  34.531  53.692  0.00  0.00     0.019 A 
ENDBRANCH  15  16
ENDBRANCH   6  15
TORSDOF 2
ENDMDL
MODEL 4
REMARK VINA RESULT:      -7.9      2.281      3.412
REMARK  2 active torsions:
REMARK  status: ('A' for Active; 'I' for Inactive)
REMARK    1  A    between atoms: N_10  and  C_6 
REMARK    2  A    between atoms: C_12  and  N_10 
ROOT
ATOM      1  N   UNL d   1      51.518  34.288  52.506  0.00  0.00    -0.169 N 
ATOM      2  C   UNL d   1      51.336  34.604  53.248  0.00  0.00     0.201 A 
ATOM      3  C   UNL d   1      50.938  34.240  51.934  0.00  0.00     0.283 A 
ATOM      4  S   UNL d   1      52.019  34.584  53.710  0.00  0.00    -0.008 SA
ATOM      5  N   UNL d   1      52.318  34.074  52.514  0.00  0.00    -0.134 NA
ATOM      6  C   UNL d   1      52.623  34.255  53.250  0.00  0.00     0.216 A 
ATOM      7  N   UNL d   1      50.587  34.869  53.420  0.00  0.00    -0.221 NA
ATOM      8  C   UNL d   1      50.173  34.506  52.096  0.00  0.00     0.076 A 
ATOM      9  C   UNL d   1      49.997  34.820  52.840  0.00  0.00     0.088 A 
ATOM     10  O   UNL d   1      51.114  33.925  51.191  0.00  0.00    -0.265 OA
ATOM     11  C   UNL d   1      49.581  34.459  51.521  0.00  0.00     0.006 A 
ATOM     12  C   UNL d   1      49.230  35.088  53.006  0.00  0.00     0.019 A 
ATOM     13  C   UNL d   1      48.810  34.731  51.694  0.00  0.00     0.000 A 
ATOM     14  C   UNL d   1      48.638  35.040  52.425  0.00  0.00     0.002 A 
ENDROOT
BRANCH   6  15
ATOM     15  N   UNL d   1      53.401  34.134  53.499  0.00  0.00    -0.220 NA
BRANCH  15  16
ATOM     16  C   UNL d   1      53.614  33.467  53.926  0.00  0.00     0.084 A 
ATOM     17  C   UNL d   1      53.645  32.735  53.566  0.00  0.00     0.019 A 
ATOM     18  C   UNL d   1      53.859  32.077  54.007  0.00  0.00     0.002 A 
ATOM     19  C   UNL d   1      53.893  31.339  53.651  0.00  0.00     0.000 C 
ATOM     20  C   UNL d   1      54.040  32.163  54.808  0.00  0.00     0.000 A 
ATOM     21  C   UNL d   1      54.009  32.892  55.167  0.00  0.00     0.002 A 
ATOM     22  C   UNL d   1      53.794  33.554  54.724  0.00  0.00     0.019 A 
ENDBRANCH  15  16
ENDBRANCH   6  15
TORSDOF 2
ENDMDL
MODEL 5
REMARK VINA RESULT:      -7.8      2.345      4.303
REMARK  2 active torsions:
REMARK  status: ('A' for Active; 'I' for Inactive)
REMARK    1  A    between atoms: N_10  and  C_6 
REMARK    2  A    between atoms: C_12  and  N_10 
ROOT
ATOM      1  N   UNL d   1      52.588  34.173  53.379  0.00  0.00    -0.169 N 
ATOM      2  C   UNL d   1      52.468  33.360  53.300  0.00  0.00     0.201 A 
ATOM      3  C   UNL d   1      53.136  34.451  53.915  0.00  0.00     0.283 A 
ATOM      4  S   UNL d   1      51.889  33.239  52.726  0.00  0.00    -0.008 SA
ATOM      5  N   UNL d   1      52.078  34.554  52.848  0.00  0.00    -0.134 NA
ATOM      6  C   UNL d   1      51.652  33.982  52.450  0.00  0.00     0.216 A 
ATOM      7  N   UNL d   1      52.888  32.828  53.748  0.00  0.00    -0.221 NA
ATOM      8  C   UNL d   1      53.570  33.921  54.377  0.00  0.00     0.076 A 
ATOM      9  C   UNL d   1      53.446  33.109  54.294  0.00  0.00     0.088 A 
ATOM     10  O   UNL d   1      53.260  35.264  53.998  0.00  0.00    -0.265 OA
ATOM     11  C   UNL d   1      54.128  34.197  54.922  0.00  0.00     0.006 A 
ATOM     12  C   UNL d   1      53.880  32.573  54.756  0.00  0.00     0.019 A 
ATOM     13  C   UNL d   1      54.561  33.653  55.384  0.00  0.00     0.000 A 
ATOM     14  C   UNL d   1      54.439  32.854  55.302  0.00  0.00     0.002 A 
ENDROOT
BRANCH   6  15
ATOM     15  N   UNL d   1      51.080  34.117  51.869  0.00  0.00    -0.220 NA
BRANCH  15  16
ATOM     16  C   UNL d   1      50.334  34.397  52.062  0.00  0.00     0.084 A 
ATOM     17  C   UNL d   1      49.750  34.447  51.493  0.00  0.00     0.019 A 
ATOM     18  C   UNL d   1      49.008  34.730  51.701  0.00  0.00     0.002 A 
ATOM     19  C   UNL d   1      48.417  34.783  51.135  0.00  0.00     0.000 C 
ATOM     20  C   UNL d   1      48.862  34.960  52.480  0.00  0.00     0.000 A 
ATOM     21  C   UNL d   1      49.443  34.910  53.046  0.00  0.00     0.002 A 
ATOM     22  C   UNL d   1      50.189  34.626  52.838  0.00  0.00     0.019 A 
ENDBRANCH  15  16
ENDBRANCH   6  15
TORSDOF 2
ENDMDL
MODEL 6
REMARK VINA RESULT:      -7.0      4.299      5.581
REMARK  2 active torsions:
REMARK  status: ('A' for Active; 'I' for Inactive)
REMARK    1  A    between atoms: N_10  and  C_6 
REMARK    2  A    between atoms: C_12  and  N_10 
ROOT
ATOM      1  N   UNL d   1      48.853  35.324  52.565  0.00  0.00    -0.169 N 
ATOM      2  C   UNL d   1      48.580  35.048  51.836  0.00  0.00     0.201 A 
ATOM      3  C   UNL d   1      48.376  35.805  53.020  0.00  0.00     0.283 A 
ATOM      4  S   UNL d   1      49.170  34.579  51.501  0.00  0.00    -0.008 SA
ATOM      5  N   UNL d   1      49.617  35.022  52.678  0.00  0.00    -0.134 NA
ATOM      6  C   UNL d   1      49.808  34.567  52.027  0.00  0.00     0.216 A 
ATOM      7  N   UNL d   1      47.841  35.247  51.561  0.00  0.00    -0.221 NA
ATOM      8  C   UNL d   1      47.623  36.015  52.752  0.00  0.00     0.076 A 
ATOM      9  C   UNL d   1      47.355  35.736  52.022  0.00  0.00     0.088 A 
ATOM     10  O   UNL d   1      48.644  36.084  53.750  0.00  0.00    -0.265 OA
ATOM     11  C   UNL d   1      47.135  36.502  53.208  0.00  0.00     0.006 A 
ATOM     12  C   UNL d   1      46.601  35.945  51.749  0.00  0.00     0.019 A 
ATOM     13  C   UNL d   1      46.376  36.709  52.929  0.00  0.00     0.000 A 
ATOM     14  C   UNL d   1      46.113  36.435  52.210  0.00  0.00     0.002 A 
ENDROOT
BRANCH   6  15
ATOM     15  N   UNL d   1      50.518  34.162  51.908  0.00  0.00    -0.220 NA
BRANCH  15  16
ATOM     16  C   UNL d   1      51.042  34.027  52.524  0.00  0.00     0.084 A 
ATOM     17  C   UNL d   1      51.674  34.527  52.649  0.00  0.00     0.019 A 
ATOM     18  C   UNL d   1      52.189  34.380  53.271  0.00  0.00     0.002 A 
ATOM     19  C   UNL d   1      52.826  34.879  53.402  0.00  0.00     0.000 C 
ATOM     20  C   UNL d   1      52.062  33.727  53.760  0.00  0.00     0.000 A 
ATOM     21  C   UNL d   1      51.432  33.228  53.636  0.00  0.00     0.002 A 
ATOM     22  C   UNL d   1      50.914  33.377  53.011  0.00  0.00     0.019 A 
ENDBRANCH  15  16
ENDBRANCH   6  15
TORSDOF 2
ENDMDL
