MODEL 1
REMARK VINA RESULT:      -4.8      0.000      0.000
REMARK  4 active torsions:
REMARK  status: ('A' for Active; 'I' for Inactive)
REMARK    1  A    between atoms: C_10  and  C_1 
REMARK       I    between atoms: C_5  and  N_3 
REMARK    2  A    between atoms: O_18  and  C_5 
REMARK    3  A    between atoms: N_9  and  C_10 
REMARK    4  A    between atoms: C_22  and  O_18 
ROOT
ATOM      1  C   UNL d   1     -41.433-122.031 -52.680  0.00  0.00     0.059 A 
ATOM      2  C   UNL d   1     -42.010-121.806 -53.965  0.00  0.00     0.121 A 
ATOM      3  C   UNL d   1     -41.841-121.539 -53.200  0.00  0.00     0.214 A 
ATOM      4  C   UNL d   1     -41.771-122.566 -54.206  0.00  0.00     0.032 A 
ATOM      5  C   UNL d   1     -41.363-123.058 -53.684  0.00  0.00     0.059 A 
ATOM      6  C   UNL d   1     -41.193-122.791 -52.920  0.00  0.00     0.016 A 
ATOM      7  N   UNL d   1     -42.413-121.327 -54.486  0.00  0.00    -0.241 NA
ATOM      8 CL   UNL d   1     -41.123-123.817 -53.925  0.00  0.00    -0.082 Cl
ATOM      9  O   UNL d   1     -42.076-120.791 -52.963  0.00  0.00    -0.285 OA
ATOM     10  C   UNL d   1     -41.938-122.831 -54.961  0.00  0.00     0.004 A 
ATOM     11  C   UNL d   1     -42.589-121.581 -55.253  0.00  0.00     0.099 A 
ATOM     12  C   UNL d   1     -42.352-122.340 -55.498  0.00  0.00     0.021 A 
ENDROOT
BRANCH   1  13
ATOM     13  C   UNL d   1     -41.258-121.776 -51.915  0.00  0.00     0.084 C 
BRANCH  13  14
ATOM     14  N   UNL d   1     -41.604-122.126 -51.262  0.00  0.00    -0.300 N 
ATOM     15  C   UNL d   1     -42.421-122.138 -51.171  0.00  0.00     0.100 A 
ATOM     16  C   UNL d   1     -42.768-122.487 -50.519  0.00  0.00     0.104 A 
ATOM     17  N   UNL d   1     -42.287-122.836 -49.936  0.00  0.00    -0.249 N 
ATOM     18  C   UNL d   1     -41.459-122.826 -50.025  0.00  0.00     0.104 A 
ATOM     19  C   UNL d   1     -42.635-123.191 -49.273  0.00  0.00     0.378 C 
ATOM     20  C   UNL d   1     -41.124-122.475 -50.680  0.00  0.00     0.100 A 
ATOM     21  O   UNL d   1     -43.447-123.196 -49.195  0.00  0.00    -0.237 OA
BRANCH  19  22
ATOM     22  O   UNL d   1     -42.164-123.533 -48.703  0.00  0.00    -0.257 OA
BRANCH  22  23
ATOM     23  C   UNL d   1     -42.309-123.388 -47.896  0.00  0.00     0.128 C 
ATOM     24  C   UNL d   1     -42.120-123.718 -47.231  0.00  0.00     0.029 C 
ENDBRANCH  22  23
ENDBRANCH  19  22
ENDBRANCH  13  14
ENDBRANCH   1  13
TORSDOF 4
ENDMDL
MODEL 2
REMARK VINA RESULT:      -4.3      1.497      5.093
REMARK  4 active torsions:
REMARK  status: ('A' for Active; 'I' for Inactive)
REMARK    1  A    between atoms: C_10  and  C_1 
REMARK       I    between atoms: C_5  and  N_3 
REMARK    2  A    between atoms: O_18  and  C_5 
REMARK    3  A    between atoms: N_9  and  C_10 
REMARK    4  A    between atoms: C_22  and  O_18 
ROOT
ATOM      1  C   UNL d   1     -41.886-122.679 -49.851  0.00  0.00     0.059 A 
ATOM      2  C   UNL d   1     -42.325-123.052 -48.545  0.00  0.00     0.121 A 
ATOM      3  C   UNL d   1     -41.774-122.675 -49.035  0.00  0.00     0.214 A 
ATOM      4  C   UNL d   1     -42.987-123.433 -48.876  0.00  0.00     0.032 A 
ATOM      5  C   UNL d   1     -43.099-123.437 -49.693  0.00  0.00     0.059 A 
ATOM      6  C   UNL d   1     -42.548-123.060 -50.182  0.00  0.00     0.016 A 
ATOM      7  N   UNL d   1     -42.222-123.052 -47.738  0.00  0.00    -0.241 NA
ATOM      8 CL   UNL d   1     -43.761-123.817 -50.023  0.00  0.00    -0.082 Cl
ATOM      9  O   UNL d   1     -41.123-122.300 -48.709  0.00  0.00    -0.285 OA
ATOM     10  C   UNL d   1     -43.532-123.806 -48.392  0.00  0.00     0.004 A 
ATOM     11  C   UNL d   1     -42.764-123.425 -47.236  0.00  0.00     0.099 A 
ATOM     12  C   UNL d   1     -43.428-123.807 -47.562  0.00  0.00     0.021 A 
ENDROOT
BRANCH   1  13
ATOM     13  C   UNL d   1     -41.345-122.307 -50.349  0.00  0.00     0.084 C 
BRANCH  13  14
ATOM     14  N   UNL d   1     -41.388-122.392 -51.161  0.00  0.00    -0.300 N 
ATOM     15  C   UNL d   1     -41.125-123.077 -51.531  0.00  0.00     0.100 A 
ATOM     16  C   UNL d   1     -41.168-123.162 -52.342  0.00  0.00     0.104 A 
ATOM     17  N   UNL d   1     -41.485-122.545 -52.803  0.00  0.00    -0.249 N 
ATOM     18  C   UNL d   1     -41.753-121.850 -52.432  0.00  0.00     0.104 A 
ATOM     19  C   UNL d   1     -41.531-122.628 -53.626  0.00  0.00     0.378 C 
ATOM     20  C   UNL d   1     -41.705-121.776 -51.622  0.00  0.00     0.100 A 
ATOM     21  O   UNL d   1     -41.265-123.313 -53.981  0.00  0.00    -0.237 OA
BRANCH  19  22
ATOM     22  O   UNL d   1     -41.841-122.024 -54.077  0.00  0.00    -0.257 OA
BRANCH  22  23
ATOM     23  C   UNL d   1     -41.943-122.123 -54.898  0.00  0.00     0.128 C 
ATOM     24  C   UNL d   1     -41.905-121.676 -55.519  0.00  0.00     0.029 C 
ENDBRANCH  22  23
ENDBRANCH  19  22
ENDBRANCH  13  14
ENDBRANCH   1  13
TORSDOF 4
ENDMDL
