MODEL 1
REMARK VINA RESULT:     -10.1      0.000      0.000
REMARK  2 active torsions:
REMARK  status: ('A' for Active; 'I' for Inactive)
REMARK    1  A    between atoms: C_6  and  N_1 
REMARK    2  A    between atoms: C_7  and  C_6 
ROOT
ATOM      1  N   UNL d   1      53.183  32.236  53.450  0.00  0.00    -0.268 N 
ATOM      2  C   UNL d   1      52.573  32.952  52.950  0.00  0.00     0.265 A 
ATOM      3  C   UNL d   1      53.538  32.678  54.021  0.00  0.00     0.067 A 
ATOM      4  C   UNL d   1      52.729  33.628  53.357  0.00  0.00     0.058 A 
ATOM      5  C   UNL d   1      53.263  33.453  53.943  0.00  0.00     0.021 A 
ATOM      6  O   UNL d   1      52.040  32.959  52.310  0.00  0.00    -0.267 OA
ATOM      7  C   UNL d   1      53.531  34.041  54.457  0.00  0.00     0.002 A 
ATOM      8  C   UNL d   1      54.080  32.493  54.613  0.00  0.00     0.018 A 
ATOM      9  C   UNL d   1      52.451  34.407  53.277  0.00  0.00     0.005 A 
ATOM     10  C   UNL d   1      54.348  33.081  55.127  0.00  0.00     0.002 A 
ATOM     11  C   UNL d   1      52.719  34.994  53.791  0.00  0.00     0.000 A 
ATOM     12  C   UNL d   1      53.267  34.807  54.389  0.00  0.00     0.000 A 
ATOM     13  C   UNL d   1      54.076  33.857  55.053  0.00  0.00     0.000 A 
ENDROOT
BRANCH   1  14
ATOM     14  C   UNL d   1      53.348  31.422  53.384  0.00  0.00     0.154 C 
BRANCH  14  15
ATOM     15  C   UNL d   1      52.808  30.944  52.973  0.00  0.00     0.230 C 
ATOM     16  O   UNL d   1      52.982  30.749  52.204  0.00  0.00    -0.643 OA
ATOM     17  O   UNL d   1      52.134  30.680  53.322  0.00  0.00    -0.643 OA
ENDBRANCH  14  15
ENDBRANCH   1  14
TORSDOF 2
ENDMDL
MODEL 2
REMARK VINA RESULT:      -9.8      1.567      2.502
REMARK  2 active torsions:
REMARK  status: ('A' for Active; 'I' for Inactive)
REMARK    1  A    between atoms: C_6  and  N_1 
REMARK    2  A    between atoms: C_7  and  C_6 
ROOT
ATOM      1  N   UNL d   1      52.230  33.504  53.387  0.00  0.00    -0.268 N 
ATOM      2  C   UNL d   1      52.674  34.266  53.985  0.00  0.00     0.265 A 
ATOM      3  C   UNL d   1      52.742  32.891  53.478  0.00  0.00     0.067 A 
ATOM      4  C   UNL d   1      53.331  33.901  54.271  0.00  0.00     0.058 A 
ATOM      5  C   UNL d   1      53.349  33.145  53.979  0.00  0.00     0.021 A 
ATOM      6  O   UNL d   1      52.506  35.055  54.191  0.00  0.00    -0.267 OA
ATOM      7  C   UNL d   1      53.963  32.631  54.177  0.00  0.00     0.002 A 
ATOM      8  C   UNL d   1      52.753  32.123  53.178  0.00  0.00     0.018 A 
ATOM      9  C   UNL d   1      53.940  34.159  54.774  0.00  0.00     0.005 A 
ATOM     10  C   UNL d   1      53.368  31.610  53.376  0.00  0.00     0.002 A 
ATOM     11  C   UNL d   1      54.555  33.645  54.972  0.00  0.00     0.000 A 
ATOM     12  C   UNL d   1      54.566  32.870  54.668  0.00  0.00     0.000 A 
ATOM     13  C   UNL d   1      53.976  31.859  53.876  0.00  0.00     0.000 A 
ENDROOT
BRANCH   1  14
ATOM     14  C   UNL d   1      51.553  33.420  52.909  0.00  0.00     0.154 C 
BRANCH  14  15
ATOM     15  C   UNL d   1      51.238  34.100  52.552  0.00  0.00     0.230 C 
ATOM     16  O   UNL d   1      50.594  34.449  52.903  0.00  0.00    -0.643 OA
ATOM     17  O   UNL d   1      51.556  34.407  51.881  0.00  0.00    -0.643 OA
ENDBRANCH  14  15
ENDBRANCH   1  14
TORSDOF 2
ENDMDL
MODEL 3
REMARK VINA RESULT:      -9.8      1.955      2.749
REMARK  2 active torsions:
REMARK  status: ('A' for Active; 'I' for Inactive)
REMARK    1  A    between atoms: C_6  and  N_1 
REMARK    2  A    between atoms: C_7  and  C_6 
ROOT
ATOM      1  N   UNL d   1      53.798  33.461  54.527  0.00  0.00    -0.268 N 
ATOM      2  C   UNL d   1      53.302  34.395  54.398  0.00  0.00     0.265 A 
ATOM      3  C   UNL d   1      53.420  32.988  53.998  0.00  0.00     0.067 A 
ATOM      4  C   UNL d   1      52.762  34.227  53.826  0.00  0.00     0.058 A 
ATOM      5  C   UNL d   1      52.845  33.446  53.620  0.00  0.00     0.021 A 
ATOM      6  O   UNL d   1      53.349  35.160  54.721  0.00  0.00    -0.267 OA
ATOM      7  C   UNL d   1      52.362  33.110  53.042  0.00  0.00     0.002 A 
ATOM      8  C   UNL d   1      53.510  32.195  53.794  0.00  0.00     0.018 A 
ATOM      9  C   UNL d   1      52.184  34.689  53.448  0.00  0.00     0.005 A 
ATOM     10  C   UNL d   1      53.027  31.858  53.215  0.00  0.00     0.002 A 
ATOM     11  C   UNL d   1      51.702  34.353  52.870  0.00  0.00     0.000 A 
ATOM     12  C   UNL d   1      51.793  33.551  52.664  0.00  0.00     0.000 A 
ATOM     13  C   UNL d   1      52.451  32.313  52.835  0.00  0.00     0.000 A 
ENDROOT
BRANCH   1  14
ATOM     14  C   UNL d   1      54.414  33.157  54.999  0.00  0.00     0.154 C 
BRANCH  14  15
ATOM     15  C   UNL d   1      55.067  33.645  55.154  0.00  0.00     0.230 C 
ATOM     16  O   UNL d   1      55.118  33.988  55.889  0.00  0.00    -0.643 OA
ATOM     17  O   UNL d   1      55.633  33.776  54.599  0.00  0.00    -0.643 OA
ENDBRANCH  14  15
ENDBRANCH   1  14
TORSDOF 2
ENDMDL
MODEL 4
REMARK VINA RESULT:      -9.7      0.978      2.383
REMARK  2 active torsions:
REMARK  status: ('A' for Active; 'I' for Inactive)
REMARK    1  A    between atoms: C_6  and  N_1 
REMARK    2  A    between atoms: C_7  and  C_6 
ROOT
ATOM      1  N   UNL d   1      52.354  33.859  53.127  0.00  0.00    -0.268 N 
ATOM      2  C   UNL d   1      52.602  32.840  52.939  0.00  0.00     0.265 A 
ATOM      3  C   UNL d   1      52.810  34.034  53.767  0.00  0.00     0.067 A 
ATOM      4  C   UNL d   1      53.139  32.682  53.517  0.00  0.00     0.058 A 
ATOM      5  C   UNL d   1      53.238  33.354  53.961  0.00  0.00     0.021 A 
ATOM      6  O   UNL d   1      52.386  32.251  52.392  0.00  0.00    -0.267 OA
ATOM      7  C   UNL d   1      53.759  33.363  54.601  0.00  0.00     0.002 A 
ATOM      8  C   UNL d   1      52.905  34.720  54.213  0.00  0.00     0.018 A 
ATOM      9  C   UNL d   1      53.568  31.998  53.711  0.00  0.00     0.005 A 
ATOM     10  C   UNL d   1      53.426  34.729  54.853  0.00  0.00     0.002 A 
ATOM     11  C   UNL d   1      54.089  32.007  54.351  0.00  0.00     0.000 A 
ATOM     12  C   UNL d   1      54.185  32.700  54.802  0.00  0.00     0.000 A 
ATOM     13  C   UNL d   1      53.856  34.052  55.051  0.00  0.00     0.000 A 
ENDROOT
BRANCH   1  14
ATOM     14  C   UNL d   1      51.854  34.437  52.795  0.00  0.00     0.154 C 
BRANCH  14  15
ATOM     15  C   UNL d   1      51.145  34.188  52.443  0.00  0.00     0.230 C 
ATOM     16  O   UNL d   1      51.109  34.173  51.632  0.00  0.00    -0.643 OA
ATOM     17  O   UNL d   1      50.512  33.966  52.887  0.00  0.00    -0.643 OA
ENDBRANCH  14  15
ENDBRANCH   1  14
TORSDOF 2
ENDMDL
MODEL 5
REMARK VINA RESULT:      -9.2      1.643      2.999
REMARK  2 active torsions:
REMARK  status: ('A' for Active; 'I' for Inactive)
REMARK    1  A    between atoms: C_6  and  N_1 
REMARK    2  A    between atoms: C_7  and  C_6 
ROOT
ATOM      1  N   UNL d   1      53.005  34.382  54.440  0.00  0.00    -0.268 N 
ATOM      2  C   UNL d   1      52.345  34.169  53.632  0.00  0.00     0.265 A 
ATOM      3  C   UNL d   1      53.419  33.696  54.511  0.00  0.00     0.067 A 
ATOM      4  C   UNL d   1      52.544  33.414  53.439  0.00  0.00     0.058 A 
ATOM      5  C   UNL d   1      53.138  33.174  53.936  0.00  0.00     0.021 A 
ATOM      6  O   UNL d   1      51.745  34.567  53.213  0.00  0.00    -0.267 OA
ATOM      7  C   UNL d   1      53.460  32.417  53.872  0.00  0.00     0.002 A 
ATOM      8  C   UNL d   1      54.023  33.459  55.020  0.00  0.00     0.018 A 
ATOM      9  C   UNL d   1      52.259  32.891  52.860  0.00  0.00     0.005 A 
ATOM     10  C   UNL d   1      54.345  32.702  54.956  0.00  0.00     0.002 A 
ATOM     11  C   UNL d   1      52.582  32.135  52.795  0.00  0.00     0.000 A 
ATOM     12  C   UNL d   1      53.191  31.895  53.309  0.00  0.00     0.000 A 
ATOM     13  C   UNL d   1      54.067  32.177  54.382  0.00  0.00     0.000 A 
ENDROOT
BRANCH   1  14
ATOM     14  C   UNL d   1      53.162  35.023  54.948  0.00  0.00     0.154 C 
BRANCH  14  15
ATOM     15  C   UNL d   1      53.126  35.791  54.634  0.00  0.00     0.230 C 
ATOM     16  O   UNL d   1      52.492  36.256  54.839  0.00  0.00    -0.643 OA
ATOM     17  O   UNL d   1      53.698  36.069  54.142  0.00  0.00    -0.643 OA
ENDBRANCH  14  15
ENDBRANCH   1  14
TORSDOF 2
ENDMDL
MODEL 6
REMARK VINA RESULT:      -9.1      1.993      3.436
REMARK  2 active torsions:
REMARK  status: ('A' for Active; 'I' for Inactive)
REMARK    1  A    between atoms: C_6  and  N_1 
REMARK    2  A    between atoms: C_7  and  C_6 
ROOT
ATOM      1  N   UNL d   1      53.072  34.426  54.076  0.00  0.00    -0.268 N 
ATOM      2  C   UNL d   1      53.903  33.927  54.517  0.00  0.00     0.265 A 
ATOM      3  C   UNL d   1      52.730  33.844  53.639  0.00  0.00     0.067 A 
ATOM      4  C   UNL d   1      53.833  33.181  54.224  0.00  0.00     0.058 A 
ATOM      5  C   UNL d   1      53.180  33.158  53.743  0.00  0.00     0.021 A 
ATOM      6  O   UNL d   1      54.527  34.120  55.033  0.00  0.00    -0.267 OA
ATOM      7  C   UNL d   1      52.964  32.460  53.360  0.00  0.00     0.002 A 
ATOM      8  C   UNL d   1      52.066  33.828  53.152  0.00  0.00     0.018 A 
ATOM      9  C   UNL d   1      54.286  32.493  54.330  0.00  0.00     0.005 A 
ATOM     10  C   UNL d   1      51.850  33.130  52.769  0.00  0.00     0.002 A 
ATOM     11  C   UNL d   1      54.070  31.795  53.947  0.00  0.00     0.000 A 
ATOM     12  C   UNL d   1      53.399  31.779  53.454  0.00  0.00     0.000 A 
ATOM     13  C   UNL d   1      52.296  32.442  52.869  0.00  0.00     0.000 A 
ENDROOT
BRANCH   1  14
ATOM     14  C   UNL d   1      52.743  35.192  54.087  0.00  0.00     0.154 C 
BRANCH  14  15
ATOM     15  C   UNL d   1      53.033  35.736  54.643  0.00  0.00     0.230 C 
ATOM     16  O   UNL d   1      53.500  36.343  54.372  0.00  0.00    -0.643 OA
ATOM     17  O   UNL d   1      52.861  35.668  55.425  0.00  0.00    -0.643 OA
ENDBRANCH  14  15
ENDBRANCH   1  14
TORSDOF 2
ENDMDL
MODEL 7
REMARK VINA RESULT:      -8.5      1.796      2.927
REMARK  2 active torsions:
REMARK  status: ('A' for Active; 'I' for Inactive)
REMARK    1  A    between atoms: C_6  and  N_1 
REMARK    2  A    between atoms: C_7  and  C_6 
ROOT
ATOM      1  N   UNL d   1      53.748  33.643  54.417  0.00  0.00    -0.268 N 
ATOM      2  C   UNL d   1      53.639  32.638  54.081  0.00  0.00     0.265 A 
ATOM      3  C   UNL d   1      53.171  34.026  54.009  0.00  0.00     0.067 A 
ATOM      4  C   UNL d   1      53.027  32.693  53.563  0.00  0.00     0.058 A 
ATOM      5  C   UNL d   1      52.784  33.467  53.539  0.00  0.00     0.021 A 
ATOM      6  O   UNL d   1      54.007  31.904  54.223  0.00  0.00    -0.267 OA
ATOM      7  C   UNL d   1      52.159  33.697  53.052  0.00  0.00     0.002 A 
ATOM      8  C   UNL d   1      52.929  34.814  53.989  0.00  0.00     0.018 A 
ATOM      9  C   UNL d   1      52.639  32.129  53.092  0.00  0.00     0.005 A 
ATOM     10  C   UNL d   1      52.304  35.044  53.503  0.00  0.00     0.002 A 
ATOM     11  C   UNL d   1      52.014  32.359  52.605  0.00  0.00     0.000 A 
ATOM     12  C   UNL d   1      51.771  33.155  52.586  0.00  0.00     0.000 A 
ATOM     13  C   UNL d   1      51.915  34.488  53.031  0.00  0.00     0.000 A 
ENDROOT
BRANCH   1  14
ATOM     14  C   UNL d   1      54.240  34.061  54.944  0.00  0.00     0.154 C 
BRANCH  14  15
ATOM     15  C   UNL d   1      54.935  33.693  55.207  0.00  0.00     0.230 C 
ATOM     16  O   UNL d   1      54.903  33.272  55.900  0.00  0.00    -0.643 OA
ATOM     17  O   UNL d   1      55.622  33.749  54.792  0.00  0.00    -0.643 OA
ENDBRANCH  14  15
ENDBRANCH   1  14
TORSDOF 2
ENDMDL
