MODEL 1
REMARK VINA RESULT:     105.3      0.000      0.000
REMARK  3 active torsions:
REMARK  status: ('A' for Active; 'I' for Inactive)
REMARK    1  A    between atoms: C_10  and  C_2 
REMARK    2  A    between atoms: C_4  and  C_10 
REMARK    3  A    between atoms: C_27  and  N_13 
ROOT
ATOM      1  C   UNL d   1      59.949  49.585  50.331  0.00  0.00     0.093 A 
ATOM      2  C   UNL d   1      58.293  49.666  50.445  0.00  0.00     0.035 A 
ATOM      3  C   UNL d   1      59.630  49.636  51.040  0.00  0.00    -0.012 A 
ATOM      4  C   UNL d   1      61.461  49.617  52.305  0.00  0.00     0.056 A 
ATOM      5  C   UNL d   1      58.608  49.615  49.724  0.00  0.00     0.180 A 
ATOM      6  C   UNL d   1      61.145  49.667  53.006  0.00  0.00    -0.012 A 
ATOM      7  C   UNL d   1      60.962  49.606  51.643  0.00  0.00    -0.016 A 
ATOM      8  C   UNL d   1      60.140  49.646  51.698  0.00  0.00    -0.007 A 
ATOM      9  C   UNL d   1      58.807  49.676  51.094  0.00  0.00    -0.001 A 
ATOM     10  C   UNL d   1      60.314  49.708  53.057  0.00  0.00    -0.004 A 
ATOM     11  C   UNL d   1      60.780  49.545  50.280  0.00  0.00    -0.016 A 
ATOM     12  C   UNL d   1      59.812  49.697  52.403  0.00  0.00    -0.001 A 
ATOM     13  C   UNL d   1      61.282  49.555  50.934  0.00  0.00    -0.007 A 
ATOM     14  C   UNL d   1      62.283  49.577  52.251  0.00  0.00    -0.015 A 
ATOM     15  C   UNL d   1      61.656  49.678  53.683  0.00  0.00     0.038 A 
ATOM     16  O   UNL d   1      58.282  49.594  49.017  0.00  0.00    -0.291 OA
ATOM     17  C   UNL d   1      60.273  49.534  49.614  0.00  0.00     0.017 C 
ATOM     18  C   UNL d   1      62.812  49.586  52.908  0.00  0.00     0.038 A 
ATOM     19  C   UNL d   1      62.489  49.638  53.624  0.00  0.00     0.195 A 
ATOM     20  C   UNL d   1      61.906  49.548  51.341  0.00  0.00     0.013 C 
ATOM     21  O   UNL d   1      62.976  49.648  54.271  0.00  0.00    -0.287 OA
ENDROOT
BRANCH   2  22
ATOM     22  C   UNL d   1      57.491  49.708  50.537  0.00  0.00     0.006 C 
BRANCH  22  23
ATOM     23  C   UNL d   1      57.049  49.092  50.853  0.00  0.00     0.039 A 
ATOM     24  C   UNL d   1      56.843  48.346  50.635  0.00  0.00     0.085 A 
ATOM     25  N   UNL d   1      56.366  48.023  51.248  0.00  0.00    -0.228 N 
ATOM     26  C   UNL d   1      57.115  48.041  49.899  0.00  0.00     0.021 C 
ATOM     27  N   UNL d   1      56.275  48.573  51.849  0.00  0.00    -0.164 NA
ATOM     28  C   UNL d   1      56.702  49.241  51.604  0.00  0.00     0.122 A 
BRANCH  25  29
ATOM     29  C   UNL d   1      56.035  47.252  51.238  0.00  0.00     0.101 C 
ATOM     30  C   UNL d   1      56.399  46.640  50.775  0.00  0.00     0.022 C 
ENDBRANCH  25  29
ENDBRANCH  22  23
ENDBRANCH   2  22
TORSDOF 3
ENDMDL
