MODEL 1
REMARK VINA RESULT:      -3.9      0.000      0.000
REMARK  4 active torsions:
REMARK  status: ('A' for Active; 'I' for Inactive)
REMARK    1  A    between atoms: N_5  and  S_1 
REMARK    2  A    between atoms: C_8  and  S_1 
REMARK    3  A    between atoms: C_2  and  C_11 
REMARK       I    between atoms: C_12  and  N_13 
REMARK    4  A    between atoms: N_13  and  C_21 
ROOT
ATOM      1  N   UNL d   1     -46.019  12.871  22.307  0.00  0.00    -0.229 N 
ATOM      2  C   UNL d   1     -47.757  12.614  22.789  0.00  0.00     0.039 A 
ATOM      3  C   UNL d   1     -46.694  13.086  21.725  0.00  0.00     0.092 A 
ATOM      4  C   UNL d   1     -46.216  12.528  23.128  0.00  0.00     0.092 A 
ATOM      5  C   UNL d   1     -47.090  12.398  23.373  0.00  0.00     0.023 A 
ATOM      6  C   UNL d   1     -47.561  12.957  21.968  0.00  0.00     0.023 A 
ENDROOT
BRANCH   1   7
ATOM      7  S   UNL d   1     -45.231  12.990  22.084  0.00  0.00     0.271 S 
ATOM      8  O   UNL d   1     -45.194  13.668  22.559  0.00  0.00    -0.200 OA
ATOM      9  O   UNL d   1     -45.271  12.312  21.610  0.00  0.00    -0.200 OA
BRANCH   7  10
ATOM     10  C   UNL d   1     -44.445  13.095  21.853  0.00  0.00     0.104 A 
ATOM     11  C   UNL d   1     -43.932  12.465  21.806  0.00  0.00     0.015 A 
ATOM     12  C   UNL d   1     -43.151  12.571  21.576  0.00  0.00     0.033 A 
ATOM     13  C   UNL d   1     -42.882  13.340  21.388  0.00  0.00     0.135 A 
ATOM     14  C   UNL d   1     -43.399  13.988  21.434  0.00  0.00     0.033 A 
ATOM     15  C   UNL d   1     -44.183  13.863  21.667  0.00  0.00     0.015 A 
BRANCH  13  16
ATOM     16  N   UNL d   1     -42.100  13.456  21.156  0.00  0.00    -0.365 NA
ATOM     17  C   UNL d   1     -41.314  13.581  20.924  0.00  0.00     0.328 C 
ATOM     18  O   UNL d   1     -41.386  14.385  21.073  0.00  0.00    -0.251 OA
ATOM     19  C   UNL d   1     -40.534  13.690  20.692  0.00  0.00     0.082 C 
ENDBRANCH  13  16
ENDBRANCH   7  10
ENDBRANCH   1   7
BRANCH   2  20
ATOM     20  C   UNL d   1     -48.631  12.483  23.034  0.00  0.00     0.163 A 
ATOM     21  N   UNL d   1     -49.133  13.036  23.160  0.00  0.00    -0.225 NA
ATOM     22  C   UNL d   1     -49.790  12.711  23.349  0.00  0.00     0.101 A 
ATOM     23  C   UNL d   1     -50.464  13.023  23.528  0.00  0.00     0.021 A 
ATOM     24  C   UNL d   1     -49.696  11.962  23.340  0.00  0.00     0.101 A 
ATOM     25  C   UNL d   1     -51.040  12.558  23.698  0.00  0.00     0.002 A 
ATOM     26  C   UNL d   1     -50.949  11.804  23.690  0.00  0.00     0.002 A 
ATOM     27  C   UNL d   1     -50.283  11.515  23.512  0.00  0.00     0.021 A 
ATOM     28  N   UNL d   1     -48.979  11.819  23.145  0.00  0.00    -0.225 NA
ENDBRANCH   2  20
TORSDOF 4
ENDMDL
MODEL 2
REMARK VINA RESULT:      -3.3      8.152      9.475
REMARK  4 active torsions:
REMARK  status: ('A' for Active; 'I' for Inactive)
REMARK    1  A    between atoms: N_5  and  S_1 
REMARK    2  A    between atoms: C_8  and  S_1 
REMARK    3  A    between atoms: C_2  and  C_11 
REMARK       I    between atoms: C_12  and  N_13 
REMARK    4  A    between atoms: N_13  and  C_21 
ROOT
ATOM      1  N   UNL d   1     -38.435  14.159  18.513  0.00  0.00    -0.229 N 
ATOM      2  C   UNL d   1     -38.601  14.272  20.323  0.00  0.00     0.039 A 
ATOM      3  C   UNL d   1     -38.061  13.517  19.049  0.00  0.00     0.092 A 
ATOM      4  C   UNL d   1     -38.891  14.856  18.883  0.00  0.00     0.092 A 
ATOM      5  C   UNL d   1     -38.976  14.915  19.795  0.00  0.00     0.023 A 
ATOM      6  C   UNL d   1     -38.145  13.575  19.952  0.00  0.00     0.023 A 
ENDROOT
BRANCH   1   7
ATOM      7  S   UNL d   1     -38.357  14.104  17.690  0.00  0.00     0.271 S 
ATOM      8  O   UNL d   1     -37.940  13.393  17.772  0.00  0.00    -0.200 OA
ATOM      9  O   UNL d   1     -38.776  14.815  17.611  0.00  0.00    -0.200 OA
BRANCH   7  10
ATOM     10  C   UNL d   1     -38.288  14.063  16.868  0.00  0.00     0.104 A 
ATOM     11  C   UNL d   1     -38.281  13.348  16.481  0.00  0.00     0.015 A 
ATOM     12  C   UNL d   1     -38.212  13.308  15.664  0.00  0.00     0.033 A 
ATOM     13  C   UNL d   1     -38.149  14.018  15.226  0.00  0.00     0.135 A 
ATOM     14  C   UNL d   1     -38.156  14.752  15.613  0.00  0.00     0.033 A 
ATOM     15  C   UNL d   1     -38.226  14.773  16.438  0.00  0.00     0.015 A 
BRANCH  13  16
ATOM     16  N   UNL d   1     -38.079  13.989  14.405  0.00  0.00    -0.365 NA
ATOM     17  C   UNL d   1     -38.009  13.953  13.580  0.00  0.00     0.328 C 
ATOM     18  O   UNL d   1     -37.960  13.133  13.610  0.00  0.00    -0.251 OA
ATOM     19  C   UNL d   1     -37.940  13.931  12.763  0.00  0.00     0.082 C 
ENDBRANCH  13  16
ENDBRANCH   7  10
ENDBRANCH   1   7
BRANCH   2  20
ATOM     20  C   UNL d   1     -38.686  14.331  21.234  0.00  0.00     0.163 A 
ATOM     21  N   UNL d   1     -38.884  13.759  21.688  0.00  0.00    -0.225 NA
ATOM     22  C   UNL d   1     -38.894  14.022  22.398  0.00  0.00     0.101 A 
ATOM     23  C   UNL d   1     -39.057  13.670  23.056  0.00  0.00     0.021 A 
ATOM     24  C   UNL d   1     -38.703  14.752  22.384  0.00  0.00     0.101 A 
ATOM     25  C   UNL d   1     -39.023  14.074  23.698  0.00  0.00     0.002 A 
ATOM     26  C   UNL d   1     -38.831  14.808  23.687  0.00  0.00     0.002 A 
ATOM     27  C   UNL d   1     -38.674  15.138  23.035  0.00  0.00     0.021 A 
ATOM     28  N   UNL d   1     -38.574  14.946  21.663  0.00  0.00    -0.225 NA
ENDBRANCH   2  20
TORSDOF 4
ENDMDL
MODEL 3
REMARK VINA RESULT:      -3.2      1.113      6.926
REMARK  4 active torsions:
REMARK  status: ('A' for Active; 'I' for Inactive)
REMARK    1  A    between atoms: N_5  and  S_1 
REMARK    2  A    between atoms: C_8  and  S_1 
REMARK    3  A    between atoms: C_2  and  C_11 
REMARK       I    between atoms: C_12  and  N_13 
REMARK    4  A    between atoms: N_13  and  C_21 
ROOT
ATOM      1  N   UNL d   1     -44.313  13.175  21.876  0.00  0.00    -0.229 N 
ATOM      2  C   UNL d   1     -42.648  13.617  21.283  0.00  0.00     0.039 A 
ATOM      3  C   UNL d   1     -44.099  14.052  21.720  0.00  0.00     0.092 A 
ATOM      4  C   UNL d   1     -43.694  12.522  21.735  0.00  0.00     0.092 A 
ATOM      5  C   UNL d   1     -42.855  12.742  21.437  0.00  0.00     0.023 A 
ATOM      6  C   UNL d   1     -43.268  14.271  21.424  0.00  0.00     0.023 A 
ENDROOT
BRANCH   1   7
ATOM      7  S   UNL d   1     -45.071  12.978  22.145  0.00  0.00     0.271 S 
ATOM      8  O   UNL d   1     -44.863  12.177  22.157  0.00  0.00    -0.200 OA
ATOM      9  O   UNL d   1     -45.276  13.781  22.131  0.00  0.00    -0.200 OA
BRANCH   7  10
ATOM     10  C   UNL d   1     -45.831  12.797  22.413  0.00  0.00     0.104 A 
ATOM     11  C   UNL d   1     -45.945  12.331  23.069  0.00  0.00     0.015 A 
ATOM     12  C   UNL d   1     -46.701  12.151  23.335  0.00  0.00     0.033 A 
ATOM     13  C   UNL d   1     -47.361  12.455  22.921  0.00  0.00     0.135 A 
ATOM     14  C   UNL d   1     -47.253  12.931  22.251  0.00  0.00     0.033 A 
ATOM     15  C   UNL d   1     -46.484  13.102  21.997  0.00  0.00     0.015 A 
BRANCH  13  16
ATOM     16  N   UNL d   1     -48.124  12.280  23.180  0.00  0.00    -0.365 NA
ATOM     17  C   UNL d   1     -48.892  12.100  23.436  0.00  0.00     0.328 C 
ATOM     18  O   UNL d   1     -48.931  11.472  22.907  0.00  0.00    -0.251 OA
ATOM     19  C   UNL d   1     -49.651  11.931  23.698  0.00  0.00     0.082 C 
ENDBRANCH  13  16
ENDBRANCH   7  10
ENDBRANCH   1   7
BRANCH   2  20
ATOM     20  C   UNL d   1     -41.810  13.838  20.986  0.00  0.00     0.163 A 
ATOM     21  N   UNL d   1     -41.630  13.979  20.264  0.00  0.00    -0.225 NA
ATOM     22  C   UNL d   1     -40.891  14.139  20.238  0.00  0.00     0.101 A 
ATOM     23  C   UNL d   1     -40.442  14.319  19.647  0.00  0.00     0.021 A 
ATOM     24  C   UNL d   1     -40.614  14.098  20.939  0.00  0.00     0.101 A 
ATOM     25  C   UNL d   1     -39.707  14.455  19.783  0.00  0.00     0.002 A 
ATOM     26  C   UNL d   1     -39.425  14.414  20.486  0.00  0.00     0.002 A 
ATOM     27  C   UNL d   1     -39.878  14.237  21.054  0.00  0.00     0.021 A 
ATOM     28  N   UNL d   1     -41.182  13.911  21.404  0.00  0.00    -0.225 NA
ENDBRANCH   2  20
TORSDOF 4
ENDMDL
MODEL 4
REMARK VINA RESULT:      -2.4      1.883      3.278
REMARK  4 active torsions:
REMARK  status: ('A' for Active; 'I' for Inactive)
REMARK    1  A    between atoms: N_5  and  S_1 
REMARK    2  A    between atoms: C_8  and  S_1 
REMARK    3  A    between atoms: C_2  and  C_11 
REMARK       I    between atoms: C_12  and  N_13 
REMARK    4  A    between atoms: N_13  and  C_21 
ROOT
ATOM      1  N   UNL d   1     -43.082  13.367  21.427  0.00  0.00    -0.229 N 
ATOM      2  C   UNL d   1     -44.676  12.889  22.167  0.00  0.00     0.039 A 
ATOM      3  C   UNL d   1     -43.189  12.531  21.786  0.00  0.00     0.092 A 
ATOM      4  C   UNL d   1     -43.773  13.961  21.438  0.00  0.00     0.092 A 
ATOM      5  C   UNL d   1     -44.577  13.722  21.810  0.00  0.00     0.023 A 
ATOM      6  C   UNL d   1     -43.985  12.294  22.155  0.00  0.00     0.023 A 
ENDROOT
BRANCH   1   7
ATOM      7  S   UNL d   1     -42.356  13.580  21.091  0.00  0.00     0.271 S 
ATOM      8  O   UNL d   1     -42.288  12.829  20.748  0.00  0.00    -0.200 OA
ATOM      9  O   UNL d   1     -42.426  14.330  21.435  0.00  0.00    -0.200 OA
BRANCH   7  10
ATOM     10  C   UNL d   1     -41.633  13.808  20.763  0.00  0.00     0.104 A 
ATOM     11  C   UNL d   1     -40.967  13.885  21.223  0.00  0.00     0.015 A 
ATOM     12  C   UNL d   1     -40.249  14.111  20.897  0.00  0.00     0.033 A 
ATOM     13  C   UNL d   1     -40.206  14.265  20.076  0.00  0.00     0.135 A 
ATOM     14  C   UNL d   1     -40.881  14.189  19.598  0.00  0.00     0.033 A 
ATOM     15  C   UNL d   1     -41.597  13.960  19.945  0.00  0.00     0.015 A 
BRANCH  13  16
ATOM     16  N   UNL d   1     -39.490  14.493  19.737  0.00  0.00    -0.365 NA
ATOM     17  C   UNL d   1     -38.767  14.715  19.397  0.00  0.00     0.328 C 
ATOM     18  O   UNL d   1     -38.536  13.929  19.347  0.00  0.00    -0.251 OA
ATOM     19  C   UNL d   1     -38.056  14.949  19.061  0.00  0.00     0.082 C 
ENDBRANCH  13  16
ENDBRANCH   7  10
ENDBRANCH   1   7
BRANCH   2  20
ATOM     20  C   UNL d   1     -45.479  12.650  22.539  0.00  0.00     0.163 A 
ATOM     21  N   UNL d   1     -46.133  13.016  22.429  0.00  0.00    -0.225 NA
ATOM     22  C   UNL d   1     -46.668  12.655  22.825  0.00  0.00     0.101 A 
ATOM     23  C   UNL d   1     -47.414  12.801  22.900  0.00  0.00     0.021 A 
ATOM     24  C   UNL d   1     -46.347  12.070  23.179  0.00  0.00     0.101 A 
ATOM     25  C   UNL d   1     -47.827  12.340  23.340  0.00  0.00     0.002 A 
ATOM     26  C   UNL d   1     -47.508  11.751  23.698  0.00  0.00     0.002 A 
ATOM     27  C   UNL d   1     -46.776  11.622  23.614  0.00  0.00     0.021 A 
ATOM     28  N   UNL d   1     -45.611  12.065  23.003  0.00  0.00    -0.225 NA
ENDBRANCH   2  20
TORSDOF 4
ENDMDL
