MODEL 1
REMARK VINA RESULT:      -0.9      0.000      0.000
REMARK  7 active torsions:
REMARK  status: ('A' for Active; 'I' for Inactive)
REMARK    1  A    between atoms: C_16  and  N_3 
REMARK    2  A    between atoms: C_15  and  N_8 
REMARK    3  A    between atoms: C_12  and  C_10 
REMARK    4  A    between atoms: C_11  and  N_14 
REMARK    5  A    between atoms: O_22  and  C_12 
REMARK    6  A    between atoms: C_13  and  C_15 
REMARK       I    between atoms: N_14  and  C_13 
REMARK    7  A    between atoms: C_28  and  O_22 
ROOT
ATOM      1  C   UNL d   1      58.762  -1.153  29.731  0.00  0.00     0.191 A 
ATOM      2  C   UNL d   1      58.221  -0.622  29.384  0.00  0.00     0.196 A 
ATOM      3  N   UNL d   1      58.986  -1.695  29.144  0.00  0.00    -0.193 N 
ATOM      4  N   UNL d   1      58.591  -1.497  28.456  0.00  0.00    -0.058 NA
ATOM      5  N   UNL d   1      58.125  -0.848  28.592  0.00  0.00    -0.122 NA
ATOM      6  N   UNL d   1      58.967  -1.067  30.516  0.00  0.00    -0.204 NA
ATOM      7  C   UNL d   1      57.902  -0.020  29.834  0.00  0.00     0.289 A 
ATOM      8  N   UNL d   1      58.106   0.071  30.627  0.00  0.00    -0.249 N 
ATOM      9  C   UNL d   1      58.646  -0.461  30.973  0.00  0.00     0.187 A 
ATOM     10  O   UNL d   1      57.362   0.511  29.488  0.00  0.00    -0.265 OA
ENDROOT
BRANCH   8  11
ATOM     11  C   UNL d   1      57.785   0.681  31.091  0.00  0.00     0.147 C 
BRANCH  11  12
ATOM     12  C   UNL d   1      57.884   0.679  31.917  0.00  0.00     0.297 C 
ATOM     13  N   UNL d   1      57.221   0.682  32.402  0.00  0.00    -0.207 NA
ATOM     14  O   UNL d   1      58.643   0.674  32.240  0.00  0.00    -0.264 OA
BRANCH  13  15
ATOM     15  C   UNL d   1      57.313   0.680  33.224  0.00  0.00     0.090 A 
ATOM     16  C   UNL d   1      56.654   0.677  33.703  0.00  0.00     0.081 A 
ATOM     17  C   UNL d   1      56.745   0.675  34.525  0.00  0.00     0.007 A 
ATOM     18  C   UNL d   1      57.501   0.677  34.855  0.00  0.00     0.000 A 
ATOM     19  C   UNL d   1      58.159   0.680  34.377  0.00  0.00     0.002 A 
ATOM     20  C   UNL d   1      58.065   0.682  33.563  0.00  0.00     0.019 A 
BRANCH  16  21
ATOM     21  C   UNL d   1      55.898   0.675  33.372  0.00  0.00     0.302 C 
ATOM     22  O   UNL d   1      55.807   0.677  32.550  0.00  0.00    -0.259 OA
BRANCH  21  23
ATOM     23  O   UNL d   1      55.233   0.672  33.865  0.00  0.00    -0.271 OA
BRANCH  23  24
ATOM     24  C   UNL d   1      54.533   0.306  33.617  0.00  0.00     0.126 C 
ATOM     25  C   UNL d   1      53.822   0.493  33.982  0.00  0.00     0.029 C 
ENDBRANCH  23  24
ENDBRANCH  21  23
ENDBRANCH  16  21
ENDBRANCH  13  15
ENDBRANCH  11  12
ENDBRANCH   8  11
BRANCH   3  26
ATOM     26  C   UNL d   1      59.497  -2.318  29.198  0.00  0.00     0.086 A 
ATOM     27  C   UNL d   1      60.312  -2.211  29.030  0.00  0.00     0.019 A 
ATOM     28  C   UNL d   1      60.820  -2.841  29.086  0.00  0.00     0.002 A 
ATOM     29  C   UNL d   1      60.536  -3.601  29.310  0.00  0.00     0.000 A 
ATOM     30  C   UNL d   1      59.745  -3.696  29.470  0.00  0.00     0.002 A 
ATOM     31  C   UNL d   1      61.063  -4.262  29.369  0.00  0.00     0.000 C 
ATOM     32  C   UNL d   1      59.220  -3.065  29.417  0.00  0.00     0.019 A 
ENDBRANCH   3  26
TORSDOF 7
ENDMDL
MODEL 2
REMARK VINA RESULT:      -0.7      1.709      5.690
REMARK  7 active torsions:
REMARK  status: ('A' for Active; 'I' for Inactive)
REMARK    1  A    between atoms: C_16  and  N_3 
REMARK    2  A    between atoms: C_15  and  N_8 
REMARK    3  A    between atoms: C_12  and  C_10 
REMARK    4  A    between atoms: C_11  and  N_14 
REMARK    5  A    between atoms: O_22  and  C_12 
REMARK    6  A    between atoms: C_13  and  C_15 
REMARK       I    between atoms: N_14  and  C_13 
REMARK    7  A    between atoms: C_28  and  O_22 
ROOT
ATOM      1  C   UNL d   1      56.263  -0.360  32.511  0.00  0.00     0.191 A 
ATOM      2  C   UNL d   1      56.597  -0.966  32.048  0.00  0.00     0.196 A 
ATOM      3  N   UNL d   1      55.906  -0.718  33.170  0.00  0.00    -0.193 N 
ATOM      4  N   UNL d   1      56.021  -1.525  33.107  0.00  0.00    -0.058 NA
ATOM      5  N   UNL d   1      56.438  -1.685  32.432  0.00  0.00    -0.122 NA
ATOM      6  N   UNL d   1      56.331   0.418  32.270  0.00  0.00    -0.204 NA
ATOM      7  C   UNL d   1      56.989  -0.778  31.358  0.00  0.00     0.289 A 
ATOM      8  N   UNL d   1      57.060   0.004  31.110  0.00  0.00    -0.249 N 
ATOM      9  C   UNL d   1      56.726   0.611  31.573  0.00  0.00     0.187 A 
ATOM     10  O   UNL d   1      57.322  -1.385  30.895  0.00  0.00    -0.265 OA
ENDROOT
BRANCH   8  11
ATOM     11  C   UNL d   1      57.458   0.204  30.409  0.00  0.00     0.147 C 
BRANCH  11  12
ATOM     12  C   UNL d   1      58.289   0.199  30.379  0.00  0.00     0.297 C 
ATOM     13  N   UNL d   1      58.667  -0.122  29.724  0.00  0.00    -0.207 NA
ATOM     14  O   UNL d   1      58.724   0.516  31.004  0.00  0.00    -0.264 OA
BRANCH  13  15
ATOM     15  C   UNL d   1      59.494  -0.129  29.689  0.00  0.00     0.090 A 
ATOM     16  C   UNL d   1      59.873  -0.726  29.285  0.00  0.00     0.081 A 
ATOM     17  C   UNL d   1      60.700  -0.734  29.249  0.00  0.00     0.007 A 
ATOM     18  C   UNL d   1      61.133  -0.138  29.621  0.00  0.00     0.000 A 
ATOM     19  C   UNL d   1      60.754   0.458  30.024  0.00  0.00     0.002 A 
ATOM     20  C   UNL d   1      59.935   0.462  30.058  0.00  0.00     0.019 A 
BRANCH  16  21
ATOM     21  C   UNL d   1      59.440  -1.322  28.914  0.00  0.00     0.302 C 
ATOM     22  O   UNL d   1      58.777  -1.125  28.458  0.00  0.00    -0.259 OA
BRANCH  21  23
ATOM     23  O   UNL d   1      59.669  -2.112  28.997  0.00  0.00    -0.271 OA
BRANCH  23  24
ATOM     24  C   UNL d   1      59.112  -2.719  28.912  0.00  0.00     0.126 C 
ATOM     25  C   UNL d   1      59.358  -3.501  28.903  0.00  0.00     0.029 C 
ENDBRANCH  23  24
ENDBRANCH  21  23
ENDBRANCH  16  21
ENDBRANCH  13  15
ENDBRANCH  11  12
ENDBRANCH   8  11
BRANCH   3  26
ATOM     26  C   UNL d   1      55.509  -0.372  33.782  0.00  0.00     0.086 A 
ATOM     27  C   UNL d   1      55.010   0.287  33.643  0.00  0.00     0.019 A 
ATOM     28  C   UNL d   1      54.614   0.629  34.263  0.00  0.00     0.002 A 
ATOM     29  C   UNL d   1      54.700   0.327  35.044  0.00  0.00     0.000 A 
ATOM     30  C   UNL d   1      55.185  -0.313  35.169  0.00  0.00     0.002 A 
ATOM     31  C   UNL d   1      54.287   0.681  35.694  0.00  0.00     0.000 C 
ATOM     32  C   UNL d   1      55.592  -0.668  34.549  0.00  0.00     0.019 A 
ENDBRANCH   3  26
TORSDOF 7
ENDMDL
MODEL 3
REMARK VINA RESULT:      -0.1      1.597      6.304
REMARK  7 active torsions:
REMARK  status: ('A' for Active; 'I' for Inactive)
REMARK    1  A    between atoms: C_16  and  N_3 
REMARK    2  A    between atoms: C_15  and  N_8 
REMARK    3  A    between atoms: C_12  and  C_10 
REMARK    4  A    between atoms: C_11  and  N_14 
REMARK    5  A    between atoms: O_22  and  C_12 
REMARK    6  A    between atoms: C_13  and  C_15 
REMARK       I    between atoms: N_14  and  C_13 
REMARK    7  A    between atoms: C_28  and  O_22 
ROOT
ATOM      1  C   UNL d   1      55.781   0.650  33.618  0.00  0.00     0.191 A 
ATOM      2  C   UNL d   1      56.590   0.654  33.816  0.00  0.00     0.196 A 
ATOM      3  N   UNL d   1      55.351   0.666  34.328  0.00  0.00    -0.193 N 
ATOM      4  N   UNL d   1      55.888   0.681  34.944  0.00  0.00    -0.058 NA
ATOM      5  N   UNL d   1      56.641   0.674  34.644  0.00  0.00    -0.122 NA
ATOM      6  N   UNL d   1      55.557   0.631  32.833  0.00  0.00    -0.204 NA
ATOM      7  C   UNL d   1      57.151   0.641  33.224  0.00  0.00     0.289 A 
ATOM      8  N   UNL d   1      56.930   0.622  32.431  0.00  0.00    -0.249 N 
ATOM      9  C   UNL d   1      56.121   0.617  32.232  0.00  0.00     0.187 A 
ATOM     10  O   UNL d   1      57.960   0.645  33.423  0.00  0.00    -0.265 OA
ENDROOT
BRANCH   8  11
ATOM     11  C   UNL d   1      57.496   0.608  31.822  0.00  0.00     0.147 C 
BRANCH  11  12
ATOM     12  C   UNL d   1      57.566  -0.056  31.327  0.00  0.00     0.297 C 
ATOM     13  N   UNL d   1      58.183  -0.093  30.787  0.00  0.00    -0.207 NA
ATOM     14  O   UNL d   1      57.017  -0.669  31.382  0.00  0.00    -0.264 OA
BRANCH  13  15
ATOM     15  C   UNL d   1      58.259  -0.751  30.291  0.00  0.00     0.090 A 
ATOM     16  C   UNL d   1      58.795  -0.733  29.678  0.00  0.00     0.081 A 
ATOM     17  C   UNL d   1      58.870  -1.391  29.182  0.00  0.00     0.007 A 
ATOM     18  C   UNL d   1      58.403  -2.059  29.310  0.00  0.00     0.000 A 
ATOM     19  C   UNL d   1      57.868  -2.076  29.922  0.00  0.00     0.002 A 
ATOM     20  C   UNL d   1      57.795  -1.423  30.412  0.00  0.00     0.019 A 
BRANCH  16  21
ATOM     21  C   UNL d   1      59.262  -0.065  29.550  0.00  0.00     0.302 C 
ATOM     22  O   UNL d   1      58.911   0.640  29.295  0.00  0.00    -0.259 OA
BRANCH  21  23
ATOM     23  O   UNL d   1      60.078  -0.103  29.677  0.00  0.00    -0.271 OA
BRANCH  23  24
ATOM     24  C   UNL d   1      60.576   0.484  29.370  0.00  0.00     0.126 C 
ATOM     25  C   UNL d   1      61.130   0.293  28.796  0.00  0.00     0.029 C 
ENDBRANCH  23  24
ENDBRANCH  21  23
ENDBRANCH  16  21
ENDBRANCH  13  15
ENDBRANCH  11  12
ENDBRANCH   8  11
BRANCH   3  26
ATOM     26  C   UNL d   1      54.551   0.669  34.437  0.00  0.00     0.086 A 
ATOM     27  C   UNL d   1      54.231   0.661  35.212  0.00  0.00     0.019 A 
ATOM     28  C   UNL d   1      53.427   0.664  35.314  0.00  0.00     0.002 A 
ATOM     29  C   UNL d   1      52.910   0.674  34.649  0.00  0.00     0.000 A 
ATOM     30  C   UNL d   1      53.229   0.681  33.902  0.00  0.00     0.002 A 
ATOM     31  C   UNL d   1      52.069   0.676  34.753  0.00  0.00     0.000 C 
ATOM     32  C   UNL d   1      54.043   0.678  33.785  0.00  0.00     0.019 A 
ENDBRANCH   3  26
TORSDOF 7
ENDMDL
MODEL 4
REMARK VINA RESULT:       1.0      1.650      5.619
REMARK  7 active torsions:
REMARK  status: ('A' for Active; 'I' for Inactive)
REMARK    1  A    between atoms: C_16  and  N_3 
REMARK    2  A    between atoms: C_15  and  N_8 
REMARK    3  A    between atoms: C_12  and  C_10 
REMARK    4  A    between atoms: C_11  and  N_14 
REMARK    5  A    between atoms: O_22  and  C_12 
REMARK    6  A    between atoms: C_13  and  C_15 
REMARK       I    between atoms: N_14  and  C_13 
REMARK    7  A    between atoms: C_28  and  O_22 
ROOT
ATOM      1  C   UNL d   1      57.456   0.101  31.694  0.00  0.00     0.191 A 
ATOM      2  C   UNL d   1      58.233   0.382  31.584  0.00  0.00     0.196 A 
ATOM      3  N   UNL d   1      57.255   0.235  32.488  0.00  0.00    -0.193 N 
ATOM      4  N   UNL d   1      57.896   0.589  32.852  0.00  0.00    -0.058 NA
ATOM      5  N   UNL d   1      58.493   0.682  32.312  0.00  0.00    -0.122 NA
ATOM      6  N   UNL d   1      57.052  -0.229  31.066  0.00  0.00    -0.204 NA
ATOM      7  C   UNL d   1      58.583   0.323  30.849  0.00  0.00     0.289 A 
ATOM      8  N   UNL d   1      58.179  -0.009  30.213  0.00  0.00    -0.249 N 
ATOM      9  C   UNL d   1      57.403  -0.290  30.323  0.00  0.00     0.187 A 
ATOM     10  O   UNL d   1      59.359   0.604  30.739  0.00  0.00    -0.265 OA
ENDROOT
BRANCH   8  11
ATOM     11  C   UNL d   1      58.529  -0.072  29.461  0.00  0.00     0.147 C 
BRANCH  11  12
ATOM     12  C   UNL d   1      59.179  -0.576  29.339  0.00  0.00     0.297 C 
ATOM     13  N   UNL d   1      59.078  -1.268  28.909  0.00  0.00    -0.207 NA
ATOM     14  O   UNL d   1      59.917  -0.376  29.650  0.00  0.00    -0.264 OA
BRANCH  13  15
ATOM     15  C   UNL d   1      59.721  -1.773  28.784  0.00  0.00     0.090 A 
ATOM     16  C   UNL d   1      59.588  -2.556  28.603  0.00  0.00     0.081 A 
ATOM     17  C   UNL d   1      60.231  -3.062  28.479  0.00  0.00     0.007 A 
ATOM     18  C   UNL d   1      61.001  -2.771  28.538  0.00  0.00     0.000 A 
ATOM     19  C   UNL d   1      61.133  -1.989  28.718  0.00  0.00     0.002 A 
ATOM     20  C   UNL d   1      60.494  -1.491  28.842  0.00  0.00     0.019 A 
BRANCH  16  21
ATOM     21  C   UNL d   1      58.818  -2.847  28.544  0.00  0.00     0.302 C 
ATOM     22  O   UNL d   1      58.185  -2.321  28.455  0.00  0.00    -0.259 OA
BRANCH  21  23
ATOM     23  O   UNL d   1      58.682  -3.662  28.574  0.00  0.00    -0.271 OA
BRANCH  23  24
ATOM     24  C   UNL d   1      57.923  -3.953  28.732  0.00  0.00     0.126 C 
ATOM     25  C   UNL d   1      57.812  -4.754  28.870  0.00  0.00     0.029 C 
ENDBRANCH  23  24
ENDBRANCH  21  23
ENDBRANCH  16  21
ENDBRANCH  13  15
ENDBRANCH  11  12
ENDBRANCH   8  11
BRANCH   3  26
ATOM     26  C   UNL d   1      56.566   0.063  32.873  0.00  0.00     0.086 A 
ATOM     27  C   UNL d   1      56.475  -0.670  33.270  0.00  0.00     0.019 A 
ATOM     28  C   UNL d   1      55.781  -0.835  33.654  0.00  0.00     0.002 A 
ATOM     29  C   UNL d   1      55.150  -0.278  33.658  0.00  0.00     0.000 A 
ATOM     30  C   UNL d   1      55.246   0.430  33.270  0.00  0.00     0.002 A 
ATOM     31  C   UNL d   1      54.423  -0.448  34.059  0.00  0.00     0.000 C 
ATOM     32  C   UNL d   1      55.946   0.609  32.877  0.00  0.00     0.019 A 
ENDBRANCH   3  26
TORSDOF 7
ENDMDL
