MODEL 1
REMARK VINA RESULT:      -2.2      0.000      0.000
REMARK  2 active torsions:
REMARK  status: ('A' for Active; 'I' for Inactive)
REMARK    1  A    between atoms: N_2  and  N_1 
REMARK    2  A    between atoms: N_8  and  C_10 
ROOT
ATOM      1  N   UNL d   1     -42.102-122.805 -50.430  0.00  0.00    -0.171 N 
ATOM      2  C   UNL d   1     -42.060-123.065 -51.204  0.00  0.00     0.283 A 
ATOM      3  C   UNL d   1     -41.747-122.440 -51.663  0.00  0.00     0.085 A 
ATOM      4  C   UNL d   1     -41.822-122.030 -50.390  0.00  0.00     0.282 A 
ATOM      5  C   UNL d   1     -41.598-121.794 -51.155  0.00  0.00     0.064 A 
ATOM      6  C   UNL d   1     -41.579-122.376 -52.465  0.00  0.00     0.131 A 
ATOM      7  O   UNL d   1     -42.294-123.817 -51.456  0.00  0.00    -0.265 OA
ATOM      8  O   UNL d   1     -41.776-121.566 -49.687  0.00  0.00    -0.265 OA
ATOM      9  C   UNL d   1     -41.284-121.094 -51.458  0.00  0.00     0.005 A 
ATOM     10  C   UNL d   1     -41.268-121.682 -52.769  0.00  0.00     0.024 A 
ATOM     11  C   UNL d   1     -41.123-121.049 -52.272  0.00  0.00     0.002 A 
ENDROOT
BRANCH   1  12
ATOM     12  N   UNL d   1     -42.361-123.171 -49.740  0.00  0.00    -0.189 N 
ATOM     13  C   UNL d   1     -41.984-123.568 -49.134  0.00  0.00     0.169 A 
ATOM     14  S   UNL d   1     -42.556-123.808 -48.596  0.00  0.00    -0.051 SA
ATOM     15  S   UNL d   1     -41.142-123.710 -49.069  0.00  0.00    -0.050 SA
ATOM     16  C   UNL d   1     -43.291-123.559 -48.869  0.00  0.00     0.100 A 
ATOM     17  C   UNL d   1     -43.179-123.168 -49.571  0.00  0.00     0.287 A 
ATOM     18  O   UNL d   1     -43.772-122.831 -50.026  0.00  0.00    -0.265 OA
ENDBRANCH   1  12
BRANCH   6  19
ATOM     19  N   UNL d   1     -41.730-123.030 -52.979  0.00  0.00    -0.114 N 
ATOM     20  O   UNL d   1     -41.239-123.690 -52.955  0.00  0.00    -0.532 OA
ATOM     21  O   UNL d   1     -42.363-123.004 -53.499  0.00  0.00    -0.532 OA
ENDBRANCH   6  19
TORSDOF 2
ENDMDL
MODEL 2
REMARK VINA RESULT:      -1.5      1.797      2.770
REMARK  2 active torsions:
REMARK  status: ('A' for Active; 'I' for Inactive)
REMARK    1  A    between atoms: N_2  and  N_1 
REMARK    2  A    between atoms: N_8  and  C_10 
ROOT
ATOM      1  N   UNL d   1     -41.859-122.538 -52.463  0.00  0.00    -0.171 N 
ATOM      2  C   UNL d   1     -42.106-122.119 -53.119  0.00  0.00     0.283 A 
ATOM      3  C   UNL d   1     -41.873-122.551 -53.796  0.00  0.00     0.085 A 
ATOM      4  C   UNL d   1     -41.475-123.225 -52.710  0.00  0.00     0.282 A 
ATOM      5  C   UNL d   1     -41.479-123.242 -53.541  0.00  0.00     0.064 A 
ATOM      6  C   UNL d   1     -41.967-122.409 -54.601  0.00  0.00     0.131 A 
ATOM      7  O   UNL d   1     -42.512-121.399 -53.088  0.00  0.00    -0.265 OA
ATOM      8  O   UNL d   1     -41.139-123.805 -52.197  0.00  0.00    -0.265 OA
ATOM      9  C   UNL d   1     -41.185-123.779 -54.094  0.00  0.00     0.005 A 
ATOM     10  C   UNL d   1     -41.676-122.940 -55.152  0.00  0.00     0.024 A 
ATOM     11  C   UNL d   1     -41.290-123.616 -54.902  0.00  0.00     0.002 A 
ENDROOT
BRANCH   1  12
ATOM     12  N   UNL d   1     -41.930-122.389 -51.657  0.00  0.00    -0.189 N 
ATOM     13  C   UNL d   1     -42.300-122.776 -51.040  0.00  0.00     0.169 A 
ATOM     14  S   UNL d   1     -42.166-122.342 -50.355  0.00  0.00    -0.051 SA
ATOM     15  S   UNL d   1     -42.748-123.503 -51.095  0.00  0.00    -0.050 SA
ATOM     16  C   UNL d   1     -41.712-121.684 -50.547  0.00  0.00     0.100 A 
ATOM     17  C   UNL d   1     -41.562-121.706 -51.344  0.00  0.00     0.287 A 
ATOM     18  O   UNL d   1     -41.126-121.151 -51.760  0.00  0.00    -0.265 OA
ENDBRANCH   1  12
BRANCH   6  19
ATOM     19  N   UNL d   1     -42.365-121.710 -54.859  0.00  0.00    -0.114 N 
ATOM     20  O   UNL d   1     -42.028-121.239 -55.444  0.00  0.00    -0.532 OA
ATOM     21  O   UNL d   1     -43.086-121.504 -54.528  0.00  0.00    -0.532 OA
ENDBRANCH   6  19
TORSDOF 2
ENDMDL
