MODEL 1
REMARK VINA RESULT:      52.4      0.000      0.000
REMARK  5 active torsions:
REMARK  status: ('A' for Active; 'I' for Inactive)
REMARK    1  A    between atoms: N_4  and  C_1 
REMARK    2  A    between atoms: N_5  and  C_1 
REMARK       I    between atoms: C_2  and  N_3 
REMARK    3  A    between atoms: C_8  and  C_2 
REMARK    4  A    between atoms: N_3  and  N_4 
REMARK    5  A    between atoms: C_9  and  N_5 
ROOT
ATOM      1  N   UNL d   1      60.694  48.354  50.568  0.00  0.00    -0.273 N 
ATOM      2  H   UNL d   1      60.203  48.038  51.142  0.00  0.00     0.189 HD
ENDROOT
BRANCH   1   3
ATOM      3  N   UNL d   1      61.213  47.862  50.140  0.00  0.00    -0.264 N 
ATOM      4  C   UNL d   1      61.190  47.039  50.282  0.00  0.00     0.271 C 
ATOM      5  O   UNL d   1      60.678  46.711  50.823  0.00  0.00    -0.266 OA
ATOM      6  H   UNL d   1      61.724  48.178  49.600  0.00  0.00     0.190 HD
BRANCH   4   7
ATOM      7  C   UNL d   1      61.711  46.535  49.852  0.00  0.00     0.057 A 
ATOM      8  C   UNL d   1      62.472  46.784  49.663  0.00  0.00     0.005 A 
ATOM      9  C   UNL d   1      62.979  46.284  49.241  0.00  0.00     0.000 A 
ATOM     10  C   UNL d   1      62.725  45.535  49.007  0.00  0.00     0.000 A 
ATOM     11  C   UNL d   1      61.966  45.291  49.197  0.00  0.00     0.000 A 
ATOM     12  C   UNL d   1      61.454  45.775  49.615  0.00  0.00     0.005 A 
ENDBRANCH   4   7
ENDBRANCH   1   3
BRANCH   1  13
ATOM     13  C   UNL d   1      60.669  49.167  50.419  0.00  0.00     0.191 C 
ATOM     14  S   UNL d   1      60.280  49.457  49.752  0.00  0.00    -0.039 SA
BRANCH  13  15
ATOM     15  N   UNL d   1      61.040  49.693  50.948  0.00  0.00    -0.331 N 
ATOM     16  H   UNL d   1      61.625  50.201  50.680  0.00  0.00     0.168 HD
BRANCH  15  17
ATOM     17  C   UNL d   1      60.814  49.697  51.738  0.00  0.00     0.058 A 
ATOM     18  C   UNL d   1      60.007  49.695  51.927  0.00  0.00     0.017 A 
ATOM     19  C   UNL d   1      59.776  49.698  52.721  0.00  0.00     0.002 A 
ATOM     20  C   UNL d   1      60.343  49.704  53.320  0.00  0.00     0.000 A 
ATOM     21  C   UNL d   1      61.151  49.707  53.108  0.00  0.00     0.002 A 
ATOM     22  C   UNL d   1      61.381  49.703  52.338  0.00  0.00     0.017 A 
ENDBRANCH  15  17
ENDBRANCH  13  15
ENDBRANCH   1  13
TORSDOF 5
ENDMDL
MODEL 2
REMARK VINA RESULT:      55.3      1.626      4.593
REMARK  5 active torsions:
REMARK  status: ('A' for Active; 'I' for Inactive)
REMARK    1  A    between atoms: N_4  and  C_1 
REMARK    2  A    between atoms: N_5  and  C_1 
REMARK       I    between atoms: C_2  and  N_3 
REMARK    3  A    between atoms: C_8  and  C_2 
REMARK    4  A    between atoms: N_3  and  N_4 
REMARK    5  A    between atoms: C_9  and  N_5 
ROOT
ATOM      1  N   UNL d   1      61.085  48.171  50.668  0.00  0.00    -0.273 N 
ATOM      2  H   UNL d   1      61.651  48.761  50.718  0.00  0.00     0.189 HD
ENDROOT
BRANCH   1   3
ATOM      3  N   UNL d   1      60.276  48.355  50.744  0.00  0.00    -0.264 N 
ATOM      4  C   UNL d   1      60.027  49.133  50.569  0.00  0.00     0.271 C 
ATOM      5  O   UNL d   1      60.550  49.708  50.329  0.00  0.00    -0.266 OA
ATOM      6  H   UNL d   1      59.749  47.791  50.981  0.00  0.00     0.190 HD
BRANCH   4   7
ATOM      7  C   UNL d   1      59.209  49.326  50.643  0.00  0.00     0.057 A 
ATOM      8  C   UNL d   1      58.858  49.383  51.385  0.00  0.00     0.005 A 
ATOM      9  C   UNL d   1      58.056  49.573  51.450  0.00  0.00     0.000 A 
ATOM     10  C   UNL d   1      57.603  49.707  50.774  0.00  0.00     0.000 A 
ATOM     11  C   UNL d   1      57.956  49.649  50.037  0.00  0.00     0.000 A 
ATOM     12  C   UNL d   1      58.750  49.462  49.958  0.00  0.00     0.005 A 
ENDBRANCH   4   7
ENDBRANCH   1   3
BRANCH   1  13
ATOM     13  C   UNL d   1      61.328  47.390  50.540  0.00  0.00     0.191 C 
ATOM     14  S   UNL d   1      61.173  46.809  51.105  0.00  0.00    -0.039 SA
BRANCH  13  15
ATOM     15  N   UNL d   1      61.729  47.194  49.837  0.00  0.00    -0.331 N 
ATOM     16  H   UNL d   1      62.114  47.776  49.408  0.00  0.00     0.168 HD
BRANCH  15  17
ATOM     17  C   UNL d   1      61.735  46.413  49.580  0.00  0.00     0.058 A 
ATOM     18  C   UNL d   1      62.438  46.090  49.287  0.00  0.00     0.017 A 
ATOM     19  C   UNL d   1      62.447  45.304  49.028  0.00  0.00     0.002 A 
ATOM     20  C   UNL d   1      61.761  44.847  49.062  0.00  0.00     0.000 A 
ATOM     21  C   UNL d   1      61.063  45.193  49.361  0.00  0.00     0.002 A 
ATOM     22  C   UNL d   1      61.049  45.956  49.614  0.00  0.00     0.017 A 
ENDBRANCH  15  17
ENDBRANCH  13  15
ENDBRANCH   1  13
TORSDOF 5
ENDMDL
