MODEL 1
REMARK VINA RESULT:      -7.2      0.000      0.000
REMARK  8 active torsions:
REMARK  status: ('A' for Active; 'I' for Inactive)
REMARK    1  A    between atoms: N_6  and  C_1 
REMARK    2  A    between atoms: N_2  and  C_3 
REMARK       I    between atoms: C_4  and  N_2 
REMARK    3  A    between atoms: C_3  and  N_6 
REMARK    4  A    between atoms: C_10  and  C_4 
REMARK    5  A    between atoms: C_9  and  C_7 
REMARK    6  A    between atoms: C_12  and  C_9 
REMARK    7  A    between atoms: O_17  and  C_12 
REMARK    8  A    between atoms: C_21  and  O_17 
ROOT
ATOM      1  C   UNL d   1      52.064  33.934  53.078  0.00  0.00     0.225 C 
ATOM      2  S   UNL d   1      52.283  34.475  53.663  0.00  0.00    -0.037 SA
ENDROOT
BRANCH   1   3
ATOM      3  N   UNL d   1      52.175  33.093  53.202  0.00  0.00    -0.179 NA
ATOM      4  C   UNL d   1      52.951  32.776  53.175  0.00  0.00     0.281 C 
ATOM      5  O   UNL d   1      53.613  33.295  53.026  0.00  0.00    -0.265 OA
BRANCH   4   6
ATOM      6  C   UNL d   1      53.099  31.985  53.287  0.00  0.00     0.058 A 
ATOM      7  C   UNL d   1      53.620  31.725  53.844  0.00  0.00     0.005 A 
ATOM      8  C   UNL d   1      54.015  32.273  54.314  0.00  0.00     0.000 C 
ATOM      9  C   UNL d   1      53.753  30.928  53.939  0.00  0.00     0.000 A 
ATOM     10  C   UNL d   1      53.349  30.377  53.460  0.00  0.00     0.000 A 
ATOM     11  C   UNL d   1      52.806  30.616  52.878  0.00  0.00     0.000 A 
ATOM     12  C   UNL d   1      52.669  31.438  52.779  0.00  0.00     0.005 A 
ENDBRANCH   4   6
ENDBRANCH   1   3
BRANCH   1  13
ATOM     13  N   UNL d   1      51.736  34.173  52.360  0.00  0.00    -0.192 NA
BRANCH  13  14
ATOM     14  C   UNL d   1      50.915  34.326  52.342  0.00  0.00     0.196 A 
ATOM     15  N   UNL d   1      50.381  34.535  52.954  0.00  0.00    -0.220 NA
ATOM     16  C   UNL d   1      49.642  34.619  52.628  0.00  0.00     0.095 A 
ATOM     17  C   UNL d   1      49.689  34.464  51.797  0.00  0.00     0.058 A 
ATOM     18  S   UNL d   1      50.481  34.285  51.641  0.00  0.00    -0.046 SA
BRANCH  16  19
ATOM     19  C   UNL d   1      48.945  34.821  53.020  0.00  0.00     0.088 C 
BRANCH  19  20
ATOM     20  C   UNL d   1      48.692  35.592  53.077  0.00  0.00     0.302 C 
ATOM     21  O   UNL d   1      49.066  36.132  53.565  0.00  0.00    -0.259 OA
BRANCH  20  22
ATOM     22  O   UNL d   1      48.036  35.850  52.634  0.00  0.00    -0.271 OA
BRANCH  22  23
ATOM     23  C   UNL d   1      47.494  36.404  53.017  0.00  0.00     0.126 C 
ATOM     24  C   UNL d   1      46.887  36.563  52.682  0.00  0.00     0.029 C 
ENDBRANCH  22  23
ENDBRANCH  20  22
ENDBRANCH  19  20
ENDBRANCH  16  19
ENDBRANCH  13  14
ENDBRANCH   1  13
TORSDOF 8
ENDMDL
MODEL 2
REMARK VINA RESULT:      -7.1      1.819      2.768
REMARK  8 active torsions:
REMARK  status: ('A' for Active; 'I' for Inactive)
REMARK    1  A    between atoms: N_6  and  C_1 
REMARK    2  A    between atoms: N_2  and  C_3 
REMARK       I    between atoms: C_4  and  N_2 
REMARK    3  A    between atoms: C_3  and  N_6 
REMARK    4  A    between atoms: C_10  and  C_4 
REMARK    5  A    between atoms: C_9  and  C_7 
REMARK    6  A    between atoms: C_12  and  C_9 
REMARK    7  A    between atoms: O_17  and  C_12 
REMARK    8  A    between atoms: C_21  and  O_17 
ROOT
ATOM      1  C   UNL d   1      53.964  32.665  54.326  0.00  0.00     0.225 C 
ATOM      2  S   UNL d   1      54.620  32.794  53.841  0.00  0.00    -0.037 SA
ENDROOT
BRANCH   1   3
ATOM      3  N   UNL d   1      53.553  31.913  54.308  0.00  0.00    -0.179 NA
ATOM      4  C   UNL d   1      53.816  31.317  53.781  0.00  0.00     0.281 C 
ATOM      5  O   UNL d   1      54.487  31.469  53.273  0.00  0.00    -0.265 OA
BRANCH   4   6
ATOM      6  C   UNL d   1      53.454  30.591  53.732  0.00  0.00     0.058 A 
ATOM      7  C   UNL d   1      52.942  30.410  53.137  0.00  0.00     0.005 A 
ATOM      8  C   UNL d   1      52.778  30.974  52.560  0.00  0.00     0.000 C 
ATOM      9  C   UNL d   1      52.591  29.677  53.108  0.00  0.00     0.000 A 
ATOM     10  C   UNL d   1      52.760  29.110  53.696  0.00  0.00     0.000 A 
ATOM     11  C   UNL d   1      53.284  29.268  54.322  0.00  0.00     0.000 A 
ATOM     12  C   UNL d   1      53.646  30.024  54.352  0.00  0.00     0.005 A 
ENDBRANCH   4   6
ENDBRANCH   1   3
BRANCH   1  13
ATOM     13  N   UNL d   1      53.679  33.242  54.842  0.00  0.00    -0.192 NA
BRANCH  13  14
ATOM     14  C   UNL d   1      53.246  33.876  54.513  0.00  0.00     0.196 A 
ATOM     15  N   UNL d   1      52.513  33.888  54.106  0.00  0.00    -0.220 NA
ATOM     16  C   UNL d   1      52.347  34.657  53.905  0.00  0.00     0.095 A 
ATOM     17  C   UNL d   1      52.974  35.154  54.181  0.00  0.00     0.058 A 
ATOM     18  S   UNL d   1      53.518  34.654  54.553  0.00  0.00    -0.046 SA
BRANCH  16  19
ATOM     19  C   UNL d   1      51.684  34.933  53.499  0.00  0.00     0.088 C 
BRANCH  19  20
ATOM     20  C   UNL d   1      51.364  34.527  52.871  0.00  0.00     0.302 C 
ATOM     21  O   UNL d   1      51.803  34.359  52.201  0.00  0.00    -0.259 OA
BRANCH  20  22
ATOM     22  O   UNL d   1      50.573  34.272  52.898  0.00  0.00    -0.271 OA
BRANCH  22  23
ATOM     23  C   UNL d   1      50.069  34.473  52.224  0.00  0.00     0.126 C 
ATOM     24  C   UNL d   1      49.365  34.450  52.315  0.00  0.00     0.029 C 
ENDBRANCH  22  23
ENDBRANCH  20  22
ENDBRANCH  19  20
ENDBRANCH  16  19
ENDBRANCH  13  14
ENDBRANCH   1  13
TORSDOF 8
ENDMDL
MODEL 3
REMARK VINA RESULT:      -6.9      1.068      1.732
REMARK  8 active torsions:
REMARK  status: ('A' for Active; 'I' for Inactive)
REMARK    1  A    between atoms: N_6  and  C_1 
REMARK    2  A    between atoms: N_2  and  C_3 
REMARK       I    between atoms: C_4  and  N_2 
REMARK    3  A    between atoms: C_3  and  N_6 
REMARK    4  A    between atoms: C_10  and  C_4 
REMARK    5  A    between atoms: C_9  and  C_7 
REMARK    6  A    between atoms: C_12  and  C_9 
REMARK    7  A    between atoms: O_17  and  C_12 
REMARK    8  A    between atoms: C_21  and  O_17 
ROOT
ATOM      1  C   UNL d   1      51.413  33.946  52.796  0.00  0.00     0.225 C 
ATOM      2  S   UNL d   1      51.660  34.248  52.068  0.00  0.00    -0.037 SA
ENDROOT
BRANCH   1   3
ATOM      3  N   UNL d   1      51.970  33.864  53.442  0.00  0.00    -0.179 NA
ATOM      4  C   UNL d   1      52.645  33.377  53.338  0.00  0.00     0.281 C 
ATOM      5  O   UNL d   1      52.764  32.975  52.593  0.00  0.00    -0.265 OA
BRANCH   4   6
ATOM      6  C   UNL d   1      53.197  33.272  53.925  0.00  0.00     0.058 A 
ATOM      7  C   UNL d   1      53.523  32.551  54.078  0.00  0.00     0.005 A 
ATOM      8  C   UNL d   1      53.292  31.901  53.629  0.00  0.00     0.000 C 
ATOM      9  C   UNL d   1      54.074  32.469  54.670  0.00  0.00     0.000 A 
ATOM     10  C   UNL d   1      54.304  33.132  55.122  0.00  0.00     0.000 A 
ATOM     11  C   UNL d   1      53.985  33.887  54.987  0.00  0.00     0.000 A 
ATOM     12  C   UNL d   1      53.417  33.973  54.376  0.00  0.00     0.005 A 
ENDBRANCH   4   6
ENDBRANCH   1   3
BRANCH   1  13
ATOM     13  N   UNL d   1      50.634  33.714  52.934  0.00  0.00    -0.192 NA
BRANCH  13  14
ATOM     14  C   UNL d   1      50.033  34.281  52.809  0.00  0.00     0.196 A 
ATOM     15  N   UNL d   1      49.757  34.907  53.296  0.00  0.00    -0.220 NA
ATOM     16  C   UNL d   1      49.160  35.290  52.902  0.00  0.00     0.095 A 
ATOM     17  C   UNL d   1      49.041  34.915  52.152  0.00  0.00     0.058 A 
ATOM     18  S   UNL d   1      49.588  34.297  52.115  0.00  0.00    -0.046 SA
BRANCH  16  19
ATOM     19  C   UNL d   1      48.725  35.939  53.167  0.00  0.00     0.088 C 
BRANCH  19  20
ATOM     20  C   UNL d   1      47.948  35.870  53.400  0.00  0.00     0.302 C 
ATOM     21  O   UNL d   1      47.349  35.734  52.861  0.00  0.00    -0.259 OA
BRANCH  20  22
ATOM     22  O   UNL d   1      47.747  35.937  54.205  0.00  0.00    -0.271 OA
BRANCH  22  23
ATOM     23  C   UNL d   1      47.041  36.398  54.398  0.00  0.00     0.126 C 
ATOM     24  C   UNL d   1      46.892  36.509  55.085  0.00  0.00     0.029 C 
ENDBRANCH  22  23
ENDBRANCH  20  22
ENDBRANCH  19  20
ENDBRANCH  16  19
ENDBRANCH  13  14
ENDBRANCH   1  13
TORSDOF 8
ENDMDL
MODEL 4
REMARK VINA RESULT:      -6.8      1.612      5.395
REMARK  8 active torsions:
REMARK  status: ('A' for Active; 'I' for Inactive)
REMARK    1  A    between atoms: N_6  and  C_1 
REMARK    2  A    between atoms: N_2  and  C_3 
REMARK       I    between atoms: C_4  and  N_2 
REMARK    3  A    between atoms: C_3  and  N_6 
REMARK    4  A    between atoms: C_10  and  C_4 
REMARK    5  A    between atoms: C_9  and  C_7 
REMARK    6  A    between atoms: C_12  and  C_9 
REMARK    7  A    between atoms: O_17  and  C_12 
REMARK    8  A    between atoms: C_21  and  O_17 
ROOT
ATOM      1  C   UNL d   1      52.411  34.100  53.473  0.00  0.00     0.225 C 
ATOM      2  S   UNL d   1      52.957  34.707  53.348  0.00  0.00    -0.037 SA
ENDROOT
BRANCH   1   3
ATOM      3  N   UNL d   1      51.747  33.998  52.941  0.00  0.00    -0.179 NA
ATOM      4  C   UNL d   1      51.141  34.577  52.929  0.00  0.00     0.281 C 
ATOM      5  O   UNL d   1      51.197  35.256  53.446  0.00  0.00    -0.265 OA
BRANCH   4   6
ATOM      6  C   UNL d   1      50.495  34.518  52.440  0.00  0.00     0.058 A 
ATOM      7  C   UNL d   1      49.754  34.716  52.688  0.00  0.00     0.005 A 
ATOM      8  C   UNL d   1      49.645  34.986  53.458  0.00  0.00     0.000 C 
ATOM      9  C   UNL d   1      49.122  34.649  52.181  0.00  0.00     0.000 A 
ATOM     10  C   UNL d   1      49.239  34.374  51.402  0.00  0.00     0.000 A 
ATOM     11  C   UNL d   1      49.991  34.163  51.118  0.00  0.00     0.000 A 
ATOM     12  C   UNL d   1      50.643  34.232  51.641  0.00  0.00     0.005 A 
ENDBRANCH   4   6
ENDBRANCH   1   3
BRANCH   1  13
ATOM     13  N   UNL d   1      52.477  33.573  54.104  0.00  0.00    -0.192 NA
BRANCH  13  14
ATOM     14  C   UNL d   1      53.016  32.940  54.025  0.00  0.00     0.196 A 
ATOM     15  N   UNL d   1      52.940  32.199  53.638  0.00  0.00    -0.220 NA
ATOM     16  C   UNL d   1      53.636  31.792  53.733  0.00  0.00     0.095 A 
ATOM     17  C   UNL d   1      54.172  32.265  54.185  0.00  0.00     0.058 A 
ATOM     18  S   UNL d   1      53.771  32.968  54.355  0.00  0.00    -0.046 SA
BRANCH  16  19
ATOM     19  C   UNL d   1      53.815  31.039  53.446  0.00  0.00     0.088 C 
BRANCH  19  20
ATOM     20  C   UNL d   1      53.333  30.399  53.588  0.00  0.00     0.302 C 
ATOM     21  O   UNL d   1      52.727  30.195  53.077  0.00  0.00    -0.259 OA
BRANCH  20  22
ATOM     22  O   UNL d   1      53.449  29.932  54.267  0.00  0.00    -0.271 OA
BRANCH  22  23
ATOM     23  C   UNL d   1      53.286  29.085  54.197  0.00  0.00     0.126 C 
ATOM     24  C   UNL d   1      53.390  28.676  54.769  0.00  0.00     0.029 C 
ENDBRANCH  22  23
ENDBRANCH  20  22
ENDBRANCH  19  20
ENDBRANCH  16  19
ENDBRANCH  13  14
ENDBRANCH   1  13
TORSDOF 8
ENDMDL
MODEL 5
REMARK VINA RESULT:      -6.4      1.029      5.585
REMARK  8 active torsions:
REMARK  status: ('A' for Active; 'I' for Inactive)
REMARK    1  A    between atoms: N_6  and  C_1 
REMARK    2  A    between atoms: N_2  and  C_3 
REMARK       I    between atoms: C_4  and  N_2 
REMARK    3  A    between atoms: C_3  and  N_6 
REMARK    4  A    between atoms: C_10  and  C_4 
REMARK    5  A    between atoms: C_9  and  C_7 
REMARK    6  A    between atoms: C_12  and  C_9 
REMARK    7  A    between atoms: O_17  and  C_12 
REMARK    8  A    between atoms: C_21  and  O_17 
ROOT
ATOM      1  C   UNL d   1      50.721  34.206  52.902  0.00  0.00     0.225 C 
ATOM      2  S   UNL d   1      50.588  33.391  52.898  0.00  0.00    -0.037 SA
ENDROOT
BRANCH   1   3
ATOM      3  N   UNL d   1      50.076  34.749  53.058  0.00  0.00    -0.179 NA
ATOM      4  C   UNL d   1      49.442  34.796  52.512  0.00  0.00     0.281 C 
ATOM      5  O   UNL d   1      49.449  34.303  51.814  0.00  0.00    -0.265 OA
BRANCH   4   6
ATOM      6  C   UNL d   1      48.812  35.297  52.623  0.00  0.00     0.058 A 
ATOM      7  C   UNL d   1      48.279  35.446  52.038  0.00  0.00     0.005 A 
ATOM      8  C   UNL d   1      48.371  35.081  51.306  0.00  0.00     0.000 C 
ATOM      9  C   UNL d   1      47.656  35.952  52.170  0.00  0.00     0.000 A 
ATOM     10  C   UNL d   1      47.567  36.319  52.914  0.00  0.00     0.000 A 
ATOM     11  C   UNL d   1      48.101  36.185  53.537  0.00  0.00     0.000 A 
ATOM     12  C   UNL d   1      48.744  35.663  53.400  0.00  0.00     0.005 A 
ENDBRANCH   4   6
ENDBRANCH   1   3
BRANCH   1  13
ATOM     13  N   UNL d   1      51.466  34.530  52.759  0.00  0.00    -0.192 NA
BRANCH  13  14
ATOM     14  C   UNL d   1      52.091  34.301  53.264  0.00  0.00     0.196 A 
ATOM     15  N   UNL d   1      52.406  33.544  53.439  0.00  0.00    -0.220 NA
ATOM     16  C   UNL d   1      53.014  33.639  53.968  0.00  0.00     0.095 A 
ATOM     17  C   UNL d   1      53.100  34.463  54.144  0.00  0.00     0.058 A 
ATOM     18  S   UNL d   1      52.522  34.853  53.699  0.00  0.00    -0.046 SA
BRANCH  16  19
ATOM     19  C   UNL d   1      53.486  33.047  54.297  0.00  0.00     0.088 C 
BRANCH  19  20
ATOM     20  C   UNL d   1      53.764  32.424  53.853  0.00  0.00     0.302 C 
ATOM     21  O   UNL d   1      54.411  32.505  53.358  0.00  0.00    -0.259 OA
BRANCH  20  22
ATOM     22  O   UNL d   1      53.391  31.681  53.896  0.00  0.00    -0.271 OA
BRANCH  22  23
ATOM     23  C   UNL d   1      53.841  30.996  53.619  0.00  0.00     0.126 C 
ATOM     24  C   UNL d   1      53.518  30.363  53.617  0.00  0.00     0.029 C 
ENDBRANCH  22  23
ENDBRANCH  20  22
ENDBRANCH  19  20
ENDBRANCH  16  19
ENDBRANCH  13  14
ENDBRANCH   1  13
TORSDOF 8
ENDMDL
