MODEL 1
REMARK VINA RESULT:       5.8      0.000      0.000
REMARK  5 active torsions:
REMARK  status: ('A' for Active; 'I' for Inactive)
REMARK    1  A    between atoms: S_5  and  C_2 
REMARK    2  A    between atoms: C_12  and  S_5 
REMARK    3  A    between atoms: N_11  and  C_8 
REMARK    4  A    between atoms: C_19  and  N_11 
REMARK    5  A    between atoms: C_32  and  C_26 
ROOT
ATOM      1  C   UNL d   1      32.589  20.541 -21.474  0.00  0.00     0.197 A 
ATOM      2  C   UNL d   1      32.474  19.745 -21.646  0.00  0.00     0.227 A 
ATOM      3  N   UNL d   1      32.341  20.675 -20.696  0.00  0.00    -0.192 N 
ATOM      4  N   UNL d   1      32.889  21.168 -21.927  0.00  0.00    -0.206 NA
ATOM      5  N   UNL d   1      32.152  19.377 -20.970  0.00  0.00    -0.115 NA
ATOM      6  N   UNL d   1      32.072  19.960 -20.384  0.00  0.00    -0.058 NA
ATOM      7  C   UNL d   1      32.942  21.932 -21.603  0.00  0.00     0.166 A 
ATOM      8  C   UNL d   1      32.692  22.057 -20.825  0.00  0.00     0.054 A 
ATOM      9  C   UNL d   1      32.393  21.438 -20.368  0.00  0.00     0.089 A 
ATOM     10  C   UNL d   1      32.144  21.566 -19.591  0.00  0.00     0.020 A 
ATOM     11  C   UNL d   1      32.742  22.816 -20.493  0.00  0.00     0.016 A 
ATOM     12  C   UNL d   1      32.494  22.945 -19.717  0.00  0.00     0.058 A 
ATOM     13  C   UNL d   1      32.196  22.321 -19.267  0.00  0.00     0.013 A 
ATOM     14 CL   UNL d   1      32.546  23.702 -19.395  0.00  0.00    -0.082 Cl
ENDROOT
BRANCH   2  15
ATOM     15  S   UNL d   1      32.644  19.365 -22.358  0.00  0.00     0.231 S 
ATOM     16  O   UNL d   1      32.916  20.062 -22.701  0.00  0.00    -0.215 OA
ATOM     17  O   UNL d   1      32.371  18.669 -22.012  0.00  0.00    -0.215 OA
BRANCH  15  18
ATOM     18  C   UNL d   1      32.792  18.930 -23.041  0.00  0.00     0.090 A 
ATOM     19  C   UNL d   1      32.687  18.122 -23.051  0.00  0.00     0.011 A 
ATOM     20  C   UNL d   1      32.834  17.689 -23.731  0.00  0.00     0.001 A 
ATOM     21  C   UNL d   1      33.093  18.079 -24.417  0.00  0.00     0.000 A 
ATOM     22  C   UNL d   1      33.199  18.900 -24.406  0.00  0.00     0.001 A 
ATOM     23  C   UNL d   1      33.051  19.326 -23.725  0.00  0.00     0.011 A 
BRANCH  21  24
ATOM     24  C   UNL d   1      33.240  17.651 -25.097  0.00  0.00     0.000 C 
ATOM     25  C   UNL d   1      33.210  16.824 -25.086  0.00  0.00     0.000 C 
ENDBRANCH  21  24
ENDBRANCH  15  18
ENDBRANCH   2  15
BRANCH   7  26
ATOM     26  N   UNL d   1      33.241  22.556 -22.053  0.00  0.00    -0.227 NA
BRANCH  26  27
ATOM     27  C   UNL d   1      32.886  22.750 -22.775  0.00  0.00     0.083 A 
ATOM     28  C   UNL d   1      33.238  22.521 -23.482  0.00  0.00     0.021 A 
ATOM     29  C   UNL d   1      32.890  22.711 -24.199  0.00  0.00     0.031 A 
ATOM     30  C   UNL d   1      32.176  23.139 -24.208  0.00  0.00     0.140 A 
ATOM     31  C   UNL d   1      31.823  23.369 -23.488  0.00  0.00     0.031 A 
ATOM     32  F   UNL d   1      31.828  23.329 -24.925  0.00  0.00    -0.204 F 
ATOM     33  C   UNL d   1      32.185  23.170 -22.780  0.00  0.00     0.021 A 
ENDBRANCH  26  27
ENDBRANCH   7  26
TORSDOF 5
ENDMDL
