MODEL 1
REMARK VINA RESULT:      50.4      0.000      0.000
REMARK  5 active torsions:
REMARK  status: ('A' for Active; 'I' for Inactive)
REMARK    1  A    between atoms: S_9  and  C_2 
REMARK    2  A    between atoms: C_7  and  C_18 
REMARK       I    between atoms: N_13  and  C_7 
REMARK    3  A    between atoms: C_18  and  S_9 
REMARK    4  A    between atoms: C_20  and  N_13 
REMARK    5  A    between atoms: C_19  and  C_20 
ROOT
ATOM      1  C   UNL d   1     -50.603  27.110  33.626  0.00  0.00     0.286 C 
ATOM      2  N   UNL d   1     -50.109  27.666  33.991  0.00  0.00    -0.206 NA
ATOM      3  O   UNL d   1     -51.332  27.345  33.316  0.00  0.00    -0.265 OA
ENDROOT
BRANCH   2   4
ATOM      4  C   UNL d   1     -49.366  27.432  34.309  0.00  0.00     0.102 C 
BRANCH   4   5
ATOM      5  C   UNL d   1     -48.905  27.983  34.744  0.00  0.00     0.021 A 
ATOM      6  C   UNL d   1     -48.711  28.723  34.416  0.00  0.00     0.028 A 
ATOM      7  C   UNL d   1     -48.254  29.258  34.858  0.00  0.00     0.119 A 
ATOM      8  O   UNL d   1     -47.979  30.007  34.693  0.00  0.00    -0.300 OA
ATOM      9  C   UNL d   1     -47.999  29.053  35.614  0.00  0.00     0.119 A 
ATOM     10  C   UNL d   1     -47.554  30.282  35.330  0.00  0.00     0.304 A 
ATOM     11  O   UNL d   1     -47.568  29.676  35.913  0.00  0.00    -0.300 OA
ATOM     12  C   UNL d   1     -48.198  28.319  35.929  0.00  0.00     0.026 A 
ATOM     13  C   UNL d   1     -48.656  27.785  35.482  0.00  0.00     0.004 A 
ENDBRANCH   4   5
ENDBRANCH   2   4
BRANCH   1  14
ATOM     14  C   UNL d   1     -50.354  26.325  33.579  0.00  0.00     0.101 C 
BRANCH  14  15
ATOM     15  S   UNL d   1     -49.588  26.124  33.348  0.00  0.00    -0.041 SA
BRANCH  15  16
ATOM     16  C   UNL d   1     -50.291  25.702  33.359  0.00  0.00     0.233 A 
ATOM     17  N   UNL d   1     -50.381  24.872  33.306  0.00  0.00    -0.029 NA
ATOM     18  C   UNL d   1     -51.183  24.704  33.340  0.00  0.00     0.788 A 
ATOM     19  N   UNL d   1     -51.594  25.404  33.413  0.00  0.00     0.050 NA
ATOM     20  N   UNL d   1     -51.522  23.944  33.306  0.00  0.00     0.064 N 
ATOM     21  N   UNL d   1     -51.062  26.029  33.426  0.00  0.00    -0.105 NA
ENDBRANCH  15  16
ENDBRANCH  14  15
ENDBRANCH   1  14
TORSDOF 5
ENDMDL
MODEL 2
REMARK VINA RESULT:      51.8      2.287      3.527
REMARK  5 active torsions:
REMARK  status: ('A' for Active; 'I' for Inactive)
REMARK    1  A    between atoms: S_9  and  C_2 
REMARK    2  A    between atoms: C_7  and  C_18 
REMARK       I    between atoms: N_13  and  C_7 
REMARK    3  A    between atoms: C_18  and  S_9 
REMARK    4  A    between atoms: C_20  and  N_13 
REMARK    5  A    between atoms: C_19  and  C_20 
ROOT
ATOM      1  C   UNL d   1     -52.286  24.200  33.626  0.00  0.00     0.286 C 
ATOM      2  N   UNL d   1     -51.740  24.770  33.373  0.00  0.00    -0.206 NA
ATOM      3  O   UNL d   1     -52.115  23.396  33.541  0.00  0.00    -0.265 OA
ENDROOT
BRANCH   2   4
ATOM      4  C   UNL d   1     -51.910  25.589  33.458  0.00  0.00     0.102 C 
BRANCH   4   5
ATOM      5  C   UNL d   1     -51.285  26.149  33.435  0.00  0.00     0.021 A 
ATOM      6  C   UNL d   1     -51.449  26.963  33.382  0.00  0.00     0.028 A 
ATOM      7  C   UNL d   1     -50.821  27.506  33.359  0.00  0.00     0.119 A 
ATOM      8  O   UNL d   1     -50.802  28.319  33.309  0.00  0.00    -0.300 OA
ATOM      9  C   UNL d   1     -50.043  27.234  33.390  0.00  0.00     0.119 A 
ATOM     10  C   UNL d   1     -50.029  28.570  33.308  0.00  0.00     0.304 A 
ATOM     11  O   UNL d   1     -49.548  27.880  33.359  0.00  0.00    -0.300 OA
ATOM     12  C   UNL d   1     -49.892  26.428  33.442  0.00  0.00     0.026 A 
ATOM     13  C   UNL d   1     -50.525  25.887  33.465  0.00  0.00     0.004 A 
ENDBRANCH   4   5
ENDBRANCH   2   4
BRANCH   1  14
ATOM     14  C   UNL d   1     -52.997  24.449  33.963  0.00  0.00     0.101 C 
BRANCH  14  15
ATOM     15  S   UNL d   1     -53.121  25.233  34.188  0.00  0.00    -0.041 SA
BRANCH  15  16
ATOM     16  C   UNL d   1     -53.417  24.523  34.472  0.00  0.00     0.233 A 
ATOM     17  N   UNL d   1     -53.679  24.362  35.250  0.00  0.00    -0.029 NA
ATOM     18  C   UNL d   1     -53.926  23.581  35.275  0.00  0.00     0.788 A 
ATOM     19  N   UNL d   1     -53.824  23.251  34.536  0.00  0.00     0.050 NA
ATOM     20  N   UNL d   1     -54.229  23.188  35.944  0.00  0.00     0.064 N 
ATOM     21  N   UNL d   1     -53.512  23.816  34.030  0.00  0.00    -0.105 NA
ENDBRANCH  15  16
ENDBRANCH  14  15
ENDBRANCH   1  14
TORSDOF 5
ENDMDL
MODEL 3
REMARK VINA RESULT:      52.3      2.697      3.369
REMARK  5 active torsions:
REMARK  status: ('A' for Active; 'I' for Inactive)
REMARK    1  A    between atoms: S_9  and  C_2 
REMARK    2  A    between atoms: C_7  and  C_18 
REMARK       I    between atoms: N_13  and  C_7 
REMARK    3  A    between atoms: C_18  and  S_9 
REMARK    4  A    between atoms: C_20  and  N_13 
REMARK    5  A    between atoms: C_19  and  C_20 
ROOT
ATOM      1  C   UNL d   1     -50.592  26.413  34.029  0.00  0.00     0.286 C 
ATOM      2  N   UNL d   1     -50.660  26.702  34.803  0.00  0.00    -0.206 NA
ATOM      3  O   UNL d   1     -49.954  26.641  33.556  0.00  0.00    -0.265 OA
ENDROOT
BRANCH   2   4
ATOM      4  C   UNL d   1     -51.308  26.472  35.288  0.00  0.00     0.102 C 
BRANCH   4   5
ATOM      5  C   UNL d   1     -51.243  26.527  36.123  0.00  0.00     0.021 A 
ATOM      6  C   UNL d   1     -51.807  26.164  36.615  0.00  0.00     0.028 A 
ATOM      7  C   UNL d   1     -51.731  26.227  37.440  0.00  0.00     0.119 A 
ATOM      8  O   UNL d   1     -52.182  25.939  38.054  0.00  0.00    -0.300 OA
ATOM      9  C   UNL d   1     -51.100  26.648  37.763  0.00  0.00     0.119 A 
ATOM     10  C   UNL d   1     -51.851  26.168  38.761  0.00  0.00     0.304 A 
ATOM     11  O   UNL d   1     -51.164  26.618  38.574  0.00  0.00    -0.300 OA
ATOM     12  C   UNL d   1     -50.548  27.004  37.267  0.00  0.00     0.026 A 
ATOM     13  C   UNL d   1     -50.628  26.938  36.440  0.00  0.00     0.004 A 
ENDBRANCH   4   5
ENDBRANCH   2   4
BRANCH   1  14
ATOM     14  C   UNL d   1     -51.170  25.898  33.743  0.00  0.00     0.101 C 
BRANCH  14  15
ATOM     15  S   UNL d   1     -51.816  26.168  33.306  0.00  0.00    -0.041 SA
BRANCH  15  16
ATOM     16  C   UNL d   1     -51.407  25.458  33.306  0.00  0.00     0.233 A 
ATOM     17  N   UNL d   1     -51.734  24.687  33.306  0.00  0.00    -0.029 NA
ATOM     18  C   UNL d   1     -51.114  24.151  33.306  0.00  0.00     0.788 A 
ATOM     19  N   UNL d   1     -50.411  24.565  33.306  0.00  0.00     0.050 NA
ATOM     20  N   UNL d   1     -51.188  23.322  33.306  0.00  0.00     0.064 N 
ATOM     21  N   UNL d   1     -50.572  25.370  33.306  0.00  0.00    -0.105 NA
ENDBRANCH  15  16
ENDBRANCH  14  15
ENDBRANCH   1  14
TORSDOF 5
ENDMDL
MODEL 4
REMARK VINA RESULT:      52.9      2.786      4.430
REMARK  5 active torsions:
REMARK  status: ('A' for Active; 'I' for Inactive)
REMARK    1  A    between atoms: S_9  and  C_2 
REMARK    2  A    between atoms: C_7  and  C_18 
REMARK       I    between atoms: N_13  and  C_7 
REMARK    3  A    between atoms: C_18  and  S_9 
REMARK    4  A    between atoms: C_20  and  N_13 
REMARK    5  A    between atoms: C_19  and  C_20 
ROOT
ATOM      1  C   UNL d   1     -47.523  29.989  36.026  0.00  0.00     0.286 C 
ATOM      2  N   UNL d   1     -47.422  30.726  35.661  0.00  0.00    -0.206 NA
ATOM      3  O   UNL d   1     -47.603  29.942  36.848  0.00  0.00    -0.265 OA
ENDROOT
BRANCH   2   4
ATOM      4  C   UNL d   1     -47.339  30.779  34.825  0.00  0.00     0.102 C 
BRANCH   4   5
ATOM      5  C   UNL d   1     -47.424  31.522  34.444  0.00  0.00     0.021 A 
ATOM      6  C   UNL d   1     -48.179  31.825  34.272  0.00  0.00     0.028 A 
ATOM      7  C   UNL d   1     -48.248  32.562  33.894  0.00  0.00     0.119 A 
ATOM      8  O   UNL d   1     -48.894  32.997  33.658  0.00  0.00    -0.300 OA
ATOM      9  C   UNL d   1     -47.569  32.984  33.693  0.00  0.00     0.119 A 
ATOM     10  C   UNL d   1     -48.641  33.687  33.311  0.00  0.00     0.304 A 
ATOM     11  O   UNL d   1     -47.800  33.677  33.334  0.00  0.00    -0.300 OA
ATOM     12  C   UNL d   1     -46.827  32.675  33.867  0.00  0.00     0.026 A 
ATOM     13  C   UNL d   1     -46.763  31.936  34.246  0.00  0.00     0.004 A 
ENDBRANCH   4   5
ENDBRANCH   2   4
BRANCH   1  14
ATOM     14  C   UNL d   1     -47.541  29.309  35.558  0.00  0.00     0.101 C 
BRANCH  14  15
ATOM     15  S   UNL d   1     -46.852  28.969  35.258  0.00  0.00    -0.041 SA
BRANCH  15  16
ATOM     16  C   UNL d   1     -47.617  28.687  35.341  0.00  0.00     0.233 A 
ATOM     17  N   UNL d   1     -48.114  28.394  34.735  0.00  0.00    -0.029 NA
ATOM     18  C   UNL d   1     -48.826  28.176  35.078  0.00  0.00     0.788 A 
ATOM     19  N   UNL d   1     -48.787  28.325  35.879  0.00  0.00     0.050 NA
ATOM     20  N   UNL d   1     -49.481  27.856  34.676  0.00  0.00     0.064 N 
ATOM     21  N   UNL d   1     -48.050  28.639  36.058  0.00  0.00    -0.105 NA
ENDBRANCH  15  16
ENDBRANCH  14  15
ENDBRANCH   1  14
TORSDOF 5
ENDMDL
