MODEL 1
REMARK VINA RESULT:     103.9      0.000      0.000
REMARK  7 active torsions:
REMARK  status: ('A' for Active; 'I' for Inactive)
REMARK    1  A    between atoms: N_3  and  S_1 
REMARK    2  A    between atoms: C_7  and  S_1 
REMARK    3  A    between atoms: N_2  and  C_6 
REMARK    4  A    between atoms: C_5  and  N_3 
REMARK    5  A    between atoms: C_10  and  N_4 
REMARK    6  A    between atoms: C_6  and  C_5 
REMARK    7  A    between atoms: C_11  and  C_6 
ROOT
ATOM      1  C   UNL d   1      60.471  47.896  50.499  0.00  0.00     0.086 C 
ENDROOT
BRANCH   1   2
ATOM      2  N   UNL d   1      60.734  47.098  50.501  0.00  0.00    -0.300 N 
ATOM      3  C   UNL d   1      61.282  46.837  49.936  0.00  0.00     0.100 A 
ATOM      4  C   UNL d   1      61.538  46.054  49.940  0.00  0.00     0.100 A 
ATOM      5  N   UNL d   1      61.247  45.531  50.507  0.00  0.00    -0.301 N 
ATOM      6  C   UNL d   1      60.699  45.793  51.072  0.00  0.00     0.100 A 
ATOM      7  C   UNL d   1      60.444  46.576  51.067  0.00  0.00     0.100 A 
BRANCH   5   8
ATOM      8  C   UNL d   1      61.503  44.749  50.511  0.00  0.00     0.064 A 
ATOM      9  C   UNL d   1      61.378  44.281  51.178  0.00  0.00     0.020 A 
ATOM     10  C   UNL d   1      61.634  43.495  51.184  0.00  0.00     0.031 A 
ATOM     11  C   UNL d   1      62.014  43.180  50.523  0.00  0.00     0.140 A 
ATOM     12  C   UNL d   1      62.138  43.651  49.856  0.00  0.00     0.031 A 
ATOM     13  F   UNL d   1      62.276  42.385  50.521  0.00  0.00    -0.204 F 
ATOM     14  C   UNL d   1      61.883  44.434  49.850  0.00  0.00     0.020 A 
ENDBRANCH   5   8
ENDBRANCH   1   2
BRANCH   1  15
ATOM     15  C   UNL d   1      59.923  48.158  49.934  0.00  0.00     0.130 C 
BRANCH  15  16
ATOM     16  N   UNL d   1      59.432  48.812  50.100  0.00  0.00    -0.155 NA
BRANCH  16  17
ATOM     17  S   UNL d   1      59.111  49.255  49.491  0.00  0.00     0.285 S 
ATOM     18  O   UNL d   1      58.784  49.707  48.871  0.00  0.00    -0.198 OA
ATOM     19  O   UNL d   1      59.798  49.145  49.042  0.00  0.00    -0.198 OA
BRANCH  17  20
ATOM     20  C   UNL d   1      58.418  49.369  49.940  0.00  0.00     0.105 A 
ATOM     21  C   UNL d   1      58.477  49.559  50.741  0.00  0.00     0.015 A 
ATOM     22  C   UNL d   1      57.796  49.672  51.190  0.00  0.00     0.030 A 
ATOM     23  C   UNL d   1      57.043  49.594  50.830  0.00  0.00     0.140 A 
ATOM     24  C   UNL d   1      56.988  49.403  50.025  0.00  0.00     0.030 A 
ATOM     25  F   UNL d   1      56.336  49.707  51.276  0.00  0.00    -0.204 F 
ATOM     26  C   UNL d   1      57.678  49.290  49.581  0.00  0.00     0.015 A 
ENDBRANCH  17  20
ENDBRANCH  16  17
ENDBRANCH  15  16
ENDBRANCH   1  15
BRANCH   1  27
ATOM     27  C   UNL d   1      60.764  48.426  51.071  0.00  0.00     0.037 A 
ATOM     28  C   UNL d   1      60.809  48.187  51.857  0.00  0.00     0.100 A 
ATOM     29  N   UNL d   1      61.098  48.706  52.429  0.00  0.00    -0.242 NA
ATOM     30  C   UNL d   1      61.341  49.464  52.206  0.00  0.00     0.099 A 
ATOM     31  C   UNL d   1      61.297  49.704  51.420  0.00  0.00     0.021 A 
ATOM     32  C   UNL d   1      61.007  49.182  50.851  0.00  0.00     0.005 A 
ENDBRANCH   1  27
TORSDOF 7
ENDMDL
