MODEL 1
REMARK VINA RESULT:      -2.8      0.000      0.000
REMARK  3 active torsions:
REMARK  status: ('A' for Active; 'I' for Inactive)
REMARK    1  A    between atoms: C_8  and  C_1 
REMARK    2  A    between atoms: N_4  and  C_2 
REMARK       I    between atoms: C_6  and  N_4 
REMARK    3  A    between atoms: C_9  and  C_6 
ROOT
ATOM      1  C   UNL d   1      59.367  -0.623  28.919  0.00  0.00     0.177 A 
ATOM      2  C   UNL d   1      58.765  -1.025  29.316  0.00  0.00     0.114 A 
ATOM      3  O   UNL d   1      59.844  -1.186  28.528  0.00  0.00    -0.301 OA
ATOM      4  C   UNL d   1      58.858  -1.831  29.178  0.00  0.00     0.043 A 
ATOM      5  C   UNL d   1      59.537  -1.930  28.682  0.00  0.00     0.102 A 
ATOM      6  C   UNL d   1      58.432  -2.486  29.426  0.00  0.00     0.004 A 
ATOM      7  C   UNL d   1      59.762  -2.684  28.456  0.00  0.00     0.025 A 
ATOM      8  C   UNL d   1      58.658  -3.251  29.197  0.00  0.00     0.000 A 
ATOM      9  C   UNL d   1      59.313  -3.355  28.719  0.00  0.00     0.002 A 
ENDROOT
BRANCH   2  10
ATOM     10  N   UNL d   1      58.163  -0.648  29.780  0.00  0.00    -0.206 NA
ATOM     11  C   UNL d   1      58.083  -0.842  30.578  0.00  0.00     0.279 C 
ATOM     12  O   UNL d   1      58.587  -1.409  30.947  0.00  0.00    -0.265 OA
BRANCH  11  13
ATOM     13  C   UNL d   1      57.496  -0.477  31.040  0.00  0.00     0.058 A 
ATOM     14  C   UNL d   1      57.405   0.335  31.068  0.00  0.00     0.007 A 
ATOM     15  C   UNL d   1      56.812   0.680  31.536  0.00  0.00     0.030 A 
ATOM     16  C   UNL d   1      56.308   0.199  31.979  0.00  0.00     0.140 A 
ATOM     17  C   UNL d   1      56.388  -0.611  31.960  0.00  0.00     0.030 A 
ATOM     18  F   UNL d   1      55.716   0.530  32.447  0.00  0.00    -0.204 F 
ATOM     19  C   UNL d   1      56.981  -0.961  31.492  0.00  0.00     0.007 A 
ENDBRANCH  11  13
ENDBRANCH   2  10
BRANCH   1  20
ATOM     20  C   UNL d   1      59.455   0.195  28.928  0.00  0.00     0.321 C 
ATOM     21  O   UNL d   1      60.043   0.548  29.412  0.00  0.00    -0.261 OA
ATOM     22  N   UNL d   1      58.961   0.680  28.457  0.00  0.00    -0.101 N 
ENDBRANCH   1  20
TORSDOF 3
ENDMDL
MODEL 2
REMARK VINA RESULT:      -2.6      2.182      2.568
REMARK  3 active torsions:
REMARK  status: ('A' for Active; 'I' for Inactive)
REMARK    1  A    between atoms: C_8  and  C_1 
REMARK    2  A    between atoms: N_4  and  C_2 
REMARK       I    between atoms: C_6  and  N_4 
REMARK    3  A    between atoms: C_9  and  C_6 
ROOT
ATOM      1  C   UNL d   1      59.464   0.672  31.150  0.00  0.00     0.177 A 
ATOM      2  C   UNL d   1      58.670   0.666  30.926  0.00  0.00     0.114 A 
ATOM      3  O   UNL d   1      59.931   0.678  30.459  0.00  0.00    -0.301 OA
ATOM      4  C   UNL d   1      58.634   0.669  30.104  0.00  0.00     0.043 A 
ATOM      5  C   UNL d   1      59.429   0.677  29.811  0.00  0.00     0.102 A 
ATOM      6  C   UNL d   1      58.004   0.667  29.578  0.00  0.00     0.004 A 
ATOM      7  C   UNL d   1      59.559   0.681  29.003  0.00  0.00     0.025 A 
ATOM      8  C   UNL d   1      58.135   0.671  28.759  0.00  0.00     0.000 A 
ATOM      9  C   UNL d   1      58.900   0.678  28.470  0.00  0.00     0.002 A 
ENDROOT
BRANCH   2  10
ATOM     10  N   UNL d   1      58.019   0.659  31.470  0.00  0.00    -0.206 NA
ATOM     11  C   UNL d   1      57.487   0.028  31.459  0.00  0.00     0.279 C 
ATOM     12  O   UNL d   1      57.574  -0.614  30.920  0.00  0.00    -0.265 OA
BRANCH  11  13
ATOM     13  C   UNL d   1      56.846   0.013  31.989  0.00  0.00     0.058 A 
ATOM     14  C   UNL d   1      56.393   0.677  32.144  0.00  0.00     0.007 A 
ATOM     15  C   UNL d   1      55.756   0.640  32.677  0.00  0.00     0.030 A 
ATOM     16  C   UNL d   1      55.578  -0.071  33.055  0.00  0.00     0.140 A 
ATOM     17  C   UNL d   1      56.021  -0.739  32.909  0.00  0.00     0.030 A 
ATOM     18  F   UNL d   1      54.949  -0.119  33.585  0.00  0.00    -0.204 F 
ATOM     19  C   UNL d   1      56.659  -0.707  32.376  0.00  0.00     0.007 A 
ENDBRANCH  11  13
ENDBRANCH   2  10
BRANCH   1  20
ATOM     20  C   UNL d   1      59.719   0.671  31.933  0.00  0.00     0.321 C 
ATOM     21  O   UNL d   1      59.156   0.682  32.556  0.00  0.00    -0.261 OA
ATOM     22  N   UNL d   1      60.536   0.658  32.113  0.00  0.00    -0.101 N 
ENDBRANCH   1  20
TORSDOF 3
ENDMDL
MODEL 3
REMARK VINA RESULT:      -0.9      2.543      4.892
REMARK  3 active torsions:
REMARK  status: ('A' for Active; 'I' for Inactive)
REMARK    1  A    between atoms: C_8  and  C_1 
REMARK    2  A    between atoms: N_4  and  C_2 
REMARK       I    between atoms: C_6  and  N_4 
REMARK    3  A    between atoms: C_9  and  C_6 
ROOT
ATOM      1  C   UNL d   1      57.365   0.671  33.823  0.00  0.00     0.177 A 
ATOM      2  C   UNL d   1      56.935   0.660  33.119  0.00  0.00     0.114 A 
ATOM      3  O   UNL d   1      56.826   0.681  34.460  0.00  0.00    -0.301 OA
ATOM      4  C   UNL d   1      56.133   0.663  33.307  0.00  0.00     0.043 A 
ATOM      5  C   UNL d   1      56.067   0.676  34.151  0.00  0.00     0.102 A 
ATOM      6  C   UNL d   1      55.458   0.656  32.843  0.00  0.00     0.004 A 
ATOM      7  C   UNL d   1      55.324   0.681  34.495  0.00  0.00     0.025 A 
ATOM      8  C   UNL d   1      54.704   0.661  33.189  0.00  0.00     0.000 A 
ATOM      9  C   UNL d   1      54.632   0.674  34.004  0.00  0.00     0.002 A 
ENDROOT
BRANCH   2  10
ATOM     10  N   UNL d   1      57.282   0.648  32.346  0.00  0.00    -0.206 NA
ATOM     11  C   UNL d   1      57.171  -0.010  31.860  0.00  0.00     0.279 C 
ATOM     12  O   UNL d   1      56.719  -0.675  32.113  0.00  0.00    -0.265 OA
BRANCH  11  13
ATOM     13  C   UNL d   1      57.509  -0.029  31.100  0.00  0.00     0.058 A 
ATOM     14  C   UNL d   1      57.630   0.649  30.659  0.00  0.00     0.007 A 
ATOM     15  C   UNL d   1      57.969   0.607  29.901  0.00  0.00     0.030 A 
ATOM     16  C   UNL d   1      58.186  -0.125  29.589  0.00  0.00     0.140 A 
ATOM     17  C   UNL d   1      58.070  -0.807  30.018  0.00  0.00     0.030 A 
ATOM     18  F   UNL d   1      58.522  -0.178  28.839  0.00  0.00    -0.204 F 
ATOM     19  C   UNL d   1      57.732  -0.771  30.777  0.00  0.00     0.007 A 
ENDBRANCH  11  13
ENDBRANCH   2  10
BRANCH   1  20
ATOM     20  C   UNL d   1      58.187   0.671  33.858  0.00  0.00     0.321 C 
ATOM     21  O   UNL d   1      58.575   0.663  34.602  0.00  0.00    -0.261 OA
ATOM     22  N   UNL d   1      58.641   0.679  33.155  0.00  0.00    -0.101 N 
ENDBRANCH   1  20
TORSDOF 3
ENDMDL
MODEL 4
REMARK VINA RESULT:      -0.9      0.986      1.997
REMARK  3 active torsions:
REMARK  status: ('A' for Active; 'I' for Inactive)
REMARK    1  A    between atoms: C_8  and  C_1 
REMARK    2  A    between atoms: N_4  and  C_2 
REMARK       I    between atoms: C_6  and  N_4 
REMARK    3  A    between atoms: C_9  and  C_6 
ROOT
ATOM      1  C   UNL d   1      58.881  -1.509  29.246  0.00  0.00     0.177 A 
ATOM      2  C   UNL d   1      58.812  -0.756  29.576  0.00  0.00     0.114 A 
ATOM      3  O   UNL d   1      59.634  -1.573  28.893  0.00  0.00    -0.301 OA
ATOM      4  C   UNL d   1      59.512  -0.348  29.433  0.00  0.00     0.043 A 
ATOM      5  C   UNL d   1      60.028  -0.863  29.004  0.00  0.00     0.102 A 
ATOM      6  C   UNL d   1      59.758   0.410  29.628  0.00  0.00     0.004 A 
ATOM      7  C   UNL d   1      60.771  -0.596  28.786  0.00  0.00     0.025 A 
ATOM      8  C   UNL d   1      60.510   0.682  29.408  0.00  0.00     0.000 A 
ATOM      9  C   UNL d   1      61.014   0.190  28.992  0.00  0.00     0.002 A 
ENDROOT
BRANCH   2  10
ATOM     10  N   UNL d   1      58.126  -0.475  29.987  0.00  0.00    -0.206 NA
ATOM     11  C   UNL d   1      58.115  -0.479  30.813  0.00  0.00     0.279 C 
ATOM     12  O   UNL d   1      58.773  -0.758  31.262  0.00  0.00    -0.265 OA
BRANCH  11  13
ATOM     13  C   UNL d   1      57.446  -0.204  31.224  0.00  0.00     0.058 A 
ATOM     14  C   UNL d   1      56.995   0.422  30.953  0.00  0.00     0.007 A 
ATOM     15  C   UNL d   1      56.330   0.681  31.379  0.00  0.00     0.030 A 
ATOM     16  C   UNL d   1      56.121   0.304  32.082  0.00  0.00     0.140 A 
ATOM     17  C   UNL d   1      56.562  -0.321  32.363  0.00  0.00     0.030 A 
ATOM     18  F   UNL d   1      55.465   0.552  32.513  0.00  0.00    -0.204 F 
ATOM     19  C   UNL d   1      57.229  -0.584  31.939  0.00  0.00     0.007 A 
ENDBRANCH  11  13
ENDBRANCH   2  10
BRANCH   1  20
ATOM     20  C   UNL d   1      58.288  -2.079  29.278  0.00  0.00     0.321 C 
ATOM     21  O   UNL d   1      58.221  -2.577  29.951  0.00  0.00    -0.261 OA
ATOM     22  N   UNL d   1      57.749  -2.167  28.644  0.00  0.00    -0.101 N 
ENDBRANCH   1  20
TORSDOF 3
ENDMDL
