MODEL 1
REMARK VINA RESULT:      24.9      0.000      0.000
REMARK  4 active torsions:
REMARK  status: ('A' for Active; 'I' for Inactive)
REMARK    1  A    between atoms: N_3  and  C_2 
REMARK       I    between atoms: C_6  and  N_3 
REMARK    2  A    between atoms: C_8  and  C_4 
REMARK    3  A    between atoms: C_9  and  C_6 
REMARK    4  A    between atoms: C_12  and  C_8 
ROOT
ATOM      1  N   UNL d   1     -57.669 -98.826 -44.641  0.00  0.00    -0.181 NA
ATOM      2  C   UNL d   1     -57.034 -98.790 -44.114  0.00  0.00     0.281 C 
ATOM      3  O   UNL d   1     -57.168 -98.756 -43.306  0.00  0.00    -0.265 OA
ENDROOT
BRANCH   1   4
ATOM      4  C   UNL d   1     -58.441 -98.827 -44.359  0.00  0.00     0.216 A 
ATOM      5  N   UNL d   1     -58.672 -98.773 -43.569  0.00  0.00    -0.200 NA
ATOM      6  C   UNL d   1     -59.500 -98.796 -43.541  0.00  0.00     0.175 A 
ATOM      7  N   UNL d   1     -59.776 -98.865 -44.325  0.00  0.00    -0.187 NA
ATOM      8  S   UNL d   1     -59.125 -98.884 -44.818  0.00  0.00     0.054 SA
BRANCH   6   9
ATOM      9  C   UNL d   1     -59.961 -98.757 -42.863  0.00  0.00     0.082 C 
BRANCH   9  10
ATOM     10  C   UNL d   1     -59.868 -99.322 -42.266  0.00  0.00     0.199 C 
ATOM     11  O   UNL d   1     -59.803-100.120 -42.466  0.00  0.00    -0.286 OA
ATOM     12  C   UNL d   1     -59.841 -99.089 -41.471  0.00  0.00     0.045 C 
ENDBRANCH   9  10
ENDBRANCH   6   9
ENDBRANCH   1   4
BRANCH   2  13
ATOM     13  C   UNL d   1     -56.261 -98.789 -44.404  0.00  0.00     0.060 A 
ATOM     14  C   UNL d   1     -56.126 -98.794 -45.221  0.00  0.00     0.034 A 
ATOM     15  C   UNL d   1     -55.356 -98.792 -45.514  0.00  0.00     0.140 A 
ATOM     16  F   UNL d   1     -55.231 -98.797 -46.330  0.00  0.00    -0.204 F 
ATOM     17  C   UNL d   1     -54.723 -98.786 -44.992  0.00  0.00     0.030 A 
ATOM     18  C   UNL d   1     -54.854 -98.782 -44.178  0.00  0.00     0.003 A 
ATOM     19  C   UNL d   1     -55.624 -98.783 -43.884  0.00  0.00     0.005 A 
ENDBRANCH   2  13
TORSDOF 4
ENDMDL
MODEL 2
REMARK VINA RESULT:      26.8      4.166      4.676
REMARK  4 active torsions:
REMARK  status: ('A' for Active; 'I' for Inactive)
REMARK    1  A    between atoms: N_3  and  C_2 
REMARK       I    between atoms: C_6  and  N_3 
REMARK    2  A    between atoms: C_8  and  C_4 
REMARK    3  A    between atoms: C_9  and  C_6 
REMARK    4  A    between atoms: C_12  and  C_8 
ROOT
ATOM      1  N   UNL d   1     -54.714-100.920 -42.189  0.00  0.00    -0.181 NA
ATOM      2  C   UNL d   1     -54.721-100.987 -43.012  0.00  0.00     0.281 C 
ATOM      3  O   UNL d   1     -54.727-101.727 -43.367  0.00  0.00    -0.265 OA
ENDROOT
BRANCH   1   4
ATOM      4  C   UNL d   1     -54.713-101.594 -41.718  0.00  0.00     0.216 A 
ATOM      5  N   UNL d   1     -54.713-101.612 -40.893  0.00  0.00    -0.200 NA
ATOM      6  C   UNL d   1     -54.712-102.405 -40.654  0.00  0.00     0.175 A 
ATOM      7  N   UNL d   1     -54.713-102.876 -41.343  0.00  0.00    -0.187 NA
ATOM      8  S   UNL d   1     -54.713-102.373 -41.987  0.00  0.00     0.054 SA
BRANCH   6   9
ATOM      9  C   UNL d   1     -54.712-102.675 -39.879  0.00  0.00     0.082 C 
BRANCH   9  10
ATOM     10  C   UNL d   1     -55.422-102.729 -39.458  0.00  0.00     0.199 C 
ATOM     11  O   UNL d   1     -56.135-102.797 -39.869  0.00  0.00    -0.286 OA
ATOM     12  C   UNL d   1     -55.418-102.714 -38.630  0.00  0.00     0.045 C 
ENDBRANCH   9  10
ENDBRANCH   6   9
ENDBRANCH   1   4
BRANCH   2  13
ATOM     13  C   UNL d   1     -54.721-100.307 -43.479  0.00  0.00     0.060 A 
ATOM     14  C   UNL d   1     -54.731-100.372 -44.305  0.00  0.00     0.034 A 
ATOM     15  C   UNL d   1     -54.731 -99.695 -44.774  0.00  0.00     0.140 A 
ATOM     16  F   UNL d   1     -54.741 -99.769 -45.597  0.00  0.00    -0.204 F 
ATOM     17  C   UNL d   1     -54.722 -98.955 -44.420  0.00  0.00     0.030 A 
ATOM     18  C   UNL d   1     -54.712 -98.887 -43.597  0.00  0.00     0.003 A 
ATOM     19  C   UNL d   1     -54.711 -99.564 -43.127  0.00  0.00     0.005 A 
ENDBRANCH   2  13
TORSDOF 4
ENDMDL
