MODEL 1
REMARK VINA RESULT:      -9.8      0.000      0.000
REMARK  3 active torsions:
REMARK  status: ('A' for Active; 'I' for Inactive)
REMARK       I    between atoms: C_6  and  N_1 
REMARK    1  A    between atoms: C_7  and  C_3 
REMARK    2  A    between atoms: C_8  and  C_4 
REMARK    3  A    between atoms: C_20  and  C_18 
ROOT
ATOM      1  N   UNL d   1      53.025  32.416  53.476  0.00  0.00    -0.193 N 
ATOM      2  N   UNL d   1      52.335  32.538  53.059  0.00  0.00    -0.163 NA
ATOM      3  C   UNL d   1      53.241  33.127  53.837  0.00  0.00     0.110 A 
ATOM      4  C   UNL d   1      52.122  33.328  53.164  0.00  0.00     0.103 A 
ATOM      5  C   UNL d   1      52.677  33.679  53.637  0.00  0.00     0.042 A 
ATOM      6  C   UNL d   1      53.454  31.683  53.531  0.00  0.00     0.281 C 
ATOM      7  O   UNL d   1      54.131  31.641  53.963  0.00  0.00    -0.265 OA
ATOM      8  C   UNL d   1      53.161  31.021  53.134  0.00  0.00     0.068 C 
ENDROOT
BRANCH   4   9
ATOM      9  C   UNL d   1      51.459  33.692  52.840  0.00  0.00     0.019 A 
ATOM     10  C   UNL d   1      51.491  34.023  52.084  0.00  0.00     0.002 A 
ATOM     11  C   UNL d   1      50.828  34.388  51.760  0.00  0.00     0.000 A 
ATOM     12  C   UNL d   1      50.123  34.423  52.195  0.00  0.00     0.000 A 
ATOM     13  C   UNL d   1      50.088  34.093  52.949  0.00  0.00     0.000 A 
ATOM     14  C   UNL d   1      50.754  33.727  53.275  0.00  0.00     0.002 A 
BRANCH  12  15
ATOM     15  C   UNL d   1      49.457  34.788  51.871  0.00  0.00     0.000 C 
ATOM     16  C   UNL d   1      49.044  34.427  51.255  0.00  0.00     0.000 C 
ENDBRANCH  12  15
ENDBRANCH   4   9
BRANCH   3  17
ATOM     17  C   UNL d   1      53.912  33.241  54.313  0.00  0.00     0.118 A 
ATOM     18  O   UNL d   1      54.664  33.430  54.045  0.00  0.00    -0.304 OA
ATOM     19  C   UNL d   1      55.179  33.496  54.703  0.00  0.00     0.123 A 
ATOM     20  C   UNL d   1      54.730  33.344  55.381  0.00  0.00     0.029 A 
ATOM     21  C   UNL d   1      53.944  33.187  55.123  0.00  0.00     0.028 A 
ENDBRANCH   3  17
TORSDOF 3
ENDMDL
MODEL 2
REMARK VINA RESULT:      -8.9      0.861      1.988
REMARK  3 active torsions:
REMARK  status: ('A' for Active; 'I' for Inactive)
REMARK       I    between atoms: C_6  and  N_1 
REMARK    1  A    between atoms: C_7  and  C_3 
REMARK    2  A    between atoms: C_8  and  C_4 
REMARK    3  A    between atoms: C_20  and  C_18 
ROOT
ATOM      1  N   UNL d   1      53.360  32.451  53.422  0.00  0.00    -0.193 N 
ATOM      2  N   UNL d   1      52.929  33.130  53.286  0.00  0.00    -0.163 NA
ATOM      3  C   UNL d   1      52.870  31.800  53.292  0.00  0.00     0.110 A 
ATOM      4  C   UNL d   1      52.169  32.897  53.070  0.00  0.00     0.103 A 
ATOM      5  C   UNL d   1      52.140  32.088  53.076  0.00  0.00     0.042 A 
ATOM      6  C   UNL d   1      54.178  32.416  53.659  0.00  0.00     0.281 C 
ATOM      7  O   UNL d   1      54.535  31.705  53.774  0.00  0.00    -0.265 OA
ATOM      8  C   UNL d   1      54.591  33.123  53.765  0.00  0.00     0.068 C 
ENDROOT
BRANCH   4   9
ATOM      9  C   UNL d   1      51.548  33.404  52.882  0.00  0.00     0.019 A 
ATOM     10  C   UNL d   1      51.565  33.844  52.183  0.00  0.00     0.002 A 
ATOM     11  C   UNL d   1      50.944  34.351  51.995  0.00  0.00     0.000 A 
ATOM     12  C   UNL d   1      50.298  34.421  52.509  0.00  0.00     0.000 A 
ATOM     13  C   UNL d   1      50.279  33.983  53.207  0.00  0.00     0.000 A 
ATOM     14  C   UNL d   1      50.901  33.474  53.396  0.00  0.00     0.002 A 
BRANCH  12  15
ATOM     15  C   UNL d   1      49.675  34.929  52.321  0.00  0.00     0.000 C 
ATOM     16  C   UNL d   1      49.083  34.686  51.800  0.00  0.00     0.000 C 
ENDBRANCH  12  15
ENDBRANCH   4   9
BRANCH   3  17
ATOM     17  C   UNL d   1      53.094  31.004  53.371  0.00  0.00     0.118 A 
ATOM     18  O   UNL d   1      53.181  30.599  54.079  0.00  0.00    -0.304 OA
ATOM     19  C   UNL d   1      53.413  29.810  53.914  0.00  0.00     0.123 A 
ATOM     20  C   UNL d   1      53.468  29.738  53.091  0.00  0.00     0.029 A 
ATOM     21  C   UNL d   1      53.266  30.489  52.768  0.00  0.00     0.028 A 
ENDBRANCH   3  17
TORSDOF 3
ENDMDL
MODEL 3
REMARK VINA RESULT:      -8.8      1.643      4.270
REMARK  3 active torsions:
REMARK  status: ('A' for Active; 'I' for Inactive)
REMARK       I    between atoms: C_6  and  N_1 
REMARK    1  A    between atoms: C_7  and  C_3 
REMARK    2  A    between atoms: C_8  and  C_4 
REMARK    3  A    between atoms: C_20  and  C_18 
ROOT
ATOM      1  N   UNL d   1      52.472  33.781  53.261  0.00  0.00    -0.193 N 
ATOM      2  N   UNL d   1      52.966  33.167  53.470  0.00  0.00    -0.163 NA
ATOM      3  C   UNL d   1      51.777  33.464  52.949  0.00  0.00     0.110 A 
ATOM      4  C   UNL d   1      52.574  32.465  53.285  0.00  0.00     0.103 A 
ATOM      5  C   UNL d   1      51.853  32.653  52.969  0.00  0.00     0.042 A 
ATOM      6  C   UNL d   1      52.641  34.611  53.350  0.00  0.00     0.281 C 
ATOM      7  O   UNL d   1      52.100  35.161  53.120  0.00  0.00    -0.265 OA
ATOM      8  C   UNL d   1      53.365  34.837  53.674  0.00  0.00     0.068 C 
ENDROOT
BRANCH   4   9
ATOM      9  C   UNL d   1      52.870  31.706  53.403  0.00  0.00     0.019 A 
ATOM     10  C   UNL d   1      53.438  31.565  53.986  0.00  0.00     0.002 A 
ATOM     11  C   UNL d   1      53.734  30.806  54.104  0.00  0.00     0.000 A 
ATOM     12  C   UNL d   1      53.461  30.179  53.636  0.00  0.00     0.000 A 
ATOM     13  C   UNL d   1      52.895  30.317  53.053  0.00  0.00     0.000 A 
ATOM     14  C   UNL d   1      52.597  31.079  52.934  0.00  0.00     0.002 A 
BRANCH  12  15
ATOM     15  C   UNL d   1      53.758  29.418  53.754  0.00  0.00     0.000 C 
ATOM     16  C   UNL d   1      53.513  28.973  54.405  0.00  0.00     0.000 C 
ENDBRANCH  12  15
ENDBRANCH   4   9
BRANCH   3  17
ATOM     17  C   UNL d   1      51.129  33.902  52.670  0.00  0.00     0.118 A 
ATOM     18  O   UNL d   1      51.034  34.183  51.905  0.00  0.00    -0.304 OA
ATOM     19  C   UNL d   1      50.307  34.596  51.855  0.00  0.00     0.123 A 
ATOM     20  C   UNL d   1      49.955  34.565  52.604  0.00  0.00     0.029 A 
ATOM     21  C   UNL d   1      50.479  34.130  53.100  0.00  0.00     0.028 A 
ENDBRANCH   3  17
TORSDOF 3
ENDMDL
MODEL 4
REMARK VINA RESULT:      -8.7      1.579      3.762
REMARK  3 active torsions:
REMARK  status: ('A' for Active; 'I' for Inactive)
REMARK       I    between atoms: C_6  and  N_1 
REMARK    1  A    between atoms: C_7  and  C_3 
REMARK    2  A    between atoms: C_8  and  C_4 
REMARK    3  A    between atoms: C_20  and  C_18 
ROOT
ATOM      1  N   UNL d   1      52.147  33.694  53.045  0.00  0.00    -0.193 N 
ATOM      2  N   UNL d   1      52.152  32.894  52.892  0.00  0.00    -0.163 NA
ATOM      3  C   UNL d   1      52.703  33.852  53.634  0.00  0.00     0.110 A 
ATOM      4  C   UNL d   1      52.715  32.554  53.389  0.00  0.00     0.103 A 
ATOM      5  C   UNL d   1      53.045  33.142  53.837  0.00  0.00     0.042 A 
ATOM      6  C   UNL d   1      51.652  34.274  52.664  0.00  0.00     0.281 C 
ATOM      7  O   UNL d   1      51.705  35.049  52.870  0.00  0.00    -0.265 OA
ATOM      8  C   UNL d   1      51.123  34.023  52.082  0.00  0.00     0.068 C 
ENDROOT
BRANCH   4   9
ATOM      9  C   UNL d   1      52.905  31.753  53.421  0.00  0.00     0.019 A 
ATOM     10  C   UNL d   1      52.476  31.204  52.977  0.00  0.00     0.002 A 
ATOM     11  C   UNL d   1      52.666  30.404  53.009  0.00  0.00     0.000 A 
ATOM     12  C   UNL d   1      53.291  30.147  53.490  0.00  0.00     0.000 A 
ATOM     13  C   UNL d   1      53.720  30.693  53.933  0.00  0.00     0.000 A 
ATOM     14  C   UNL d   1      53.530  31.496  53.902  0.00  0.00     0.002 A 
BRANCH  12  15
ATOM     15  C   UNL d   1      53.481  29.344  53.522  0.00  0.00     0.000 C 
ATOM     16  C   UNL d   1      53.412  28.929  54.231  0.00  0.00     0.000 C 
ENDBRANCH  12  15
ENDBRANCH   4   9
BRANCH   3  17
ATOM     17  C   UNL d   1      52.871  34.601  53.951  0.00  0.00     0.118 A 
ATOM     18  O   UNL d   1      52.503  34.939  54.602  0.00  0.00    -0.304 OA
ATOM     19  C   UNL d   1      52.835  35.697  54.738  0.00  0.00     0.123 A 
ATOM     20  C   UNL d   1      53.414  35.819  54.160  0.00  0.00     0.029 A 
ATOM     21  C   UNL d   1      53.425  35.128  53.678  0.00  0.00     0.028 A 
ENDBRANCH   3  17
TORSDOF 3
ENDMDL
MODEL 5
REMARK VINA RESULT:      -8.3      2.428      3.637
REMARK  3 active torsions:
REMARK  status: ('A' for Active; 'I' for Inactive)
REMARK       I    between atoms: C_6  and  N_1 
REMARK    1  A    between atoms: C_7  and  C_3 
REMARK    2  A    between atoms: C_8  and  C_4 
REMARK    3  A    between atoms: C_20  and  C_18 
ROOT
ATOM      1  N   UNL d   1      54.283  33.537  54.564  0.00  0.00    -0.193 N 
ATOM      2  N   UNL d   1      54.332  32.747  54.364  0.00  0.00    -0.163 NA
ATOM      3  C   UNL d   1      53.534  33.814  54.355  0.00  0.00     0.110 A 
ATOM      4  C   UNL d   1      53.609  32.536  54.029  0.00  0.00     0.103 A 
ATOM      5  C   UNL d   1      53.130  33.188  54.027  0.00  0.00     0.042 A 
ATOM      6  C   UNL d   1      54.898  34.000  54.928  0.00  0.00     0.281 C 
ATOM      7  O   UNL d   1      54.774  34.776  55.096  0.00  0.00    -0.265 OA
ATOM      8  C   UNL d   1      55.618  33.636  55.103  0.00  0.00     0.068 C 
ENDROOT
BRANCH   4   9
ATOM      9  C   UNL d   1      53.413  31.787  53.747  0.00  0.00     0.019 A 
ATOM     10  C   UNL d   1      52.948  31.705  53.070  0.00  0.00     0.002 A 
ATOM     11  C   UNL d   1      52.752  30.957  52.787  0.00  0.00     0.000 A 
ATOM     12  C   UNL d   1      53.023  30.282  53.185  0.00  0.00     0.000 A 
ATOM     13  C   UNL d   1      53.488  30.361  53.860  0.00  0.00     0.000 A 
ATOM     14  C   UNL d   1      53.685  31.112  54.144  0.00  0.00     0.002 A 
BRANCH  12  15
ATOM     15  C   UNL d   1      52.826  29.532  52.901  0.00  0.00     0.000 C 
ATOM     16  C   UNL d   1      52.528  28.959  53.414  0.00  0.00     0.000 C 
ENDBRANCH  12  15
ENDBRANCH   4   9
BRANCH   3  17
ATOM     17  C   UNL d   1      53.259  34.589  54.464  0.00  0.00     0.118 A 
ATOM     18  O   UNL d   1      53.012  34.914  55.176  0.00  0.00    -0.304 OA
ATOM     19  C   UNL d   1      52.778  35.709  55.046  0.00  0.00     0.123 A 
ATOM     20  C   UNL d   1      52.885  35.867  54.241  0.00  0.00     0.029 A 
ATOM     21  C   UNL d   1      53.184  35.161  53.892  0.00  0.00     0.028 A 
ENDBRANCH   3  17
TORSDOF 3
ENDMDL
MODEL 6
REMARK VINA RESULT:      -7.1      1.393      2.294
REMARK  3 active torsions:
REMARK  status: ('A' for Active; 'I' for Inactive)
REMARK       I    between atoms: C_6  and  N_1 
REMARK    1  A    between atoms: C_7  and  C_3 
REMARK    2  A    between atoms: C_8  and  C_4 
REMARK    3  A    between atoms: C_20  and  C_18 
ROOT
ATOM      1  N   UNL d   1      52.091  34.083  53.265  0.00  0.00    -0.193 N 
ATOM      2  N   UNL d   1      51.485  34.613  53.134  0.00  0.00    -0.163 NA
ATOM      3  C   UNL d   1      51.848  33.338  53.005  0.00  0.00     0.110 A 
ATOM      4  C   UNL d   1      50.864  34.194  52.791  0.00  0.00     0.103 A 
ATOM      5  C   UNL d   1      51.091  33.421  52.716  0.00  0.00     0.042 A 
ATOM      6  C   UNL d   1      52.848  34.263  53.610  0.00  0.00     0.281 C 
ATOM      7  O   UNL d   1      53.397  33.684  53.707  0.00  0.00    -0.265 OA
ATOM      8  C   UNL d   1      53.004  35.040  53.841  0.00  0.00     0.068 C 
ENDROOT
BRANCH   4   9
ATOM      9  C   UNL d   1      50.138  34.512  52.566  0.00  0.00     0.019 A 
ATOM     10  C   UNL d   1      49.839  34.374  51.809  0.00  0.00     0.002 A 
ATOM     11  C   UNL d   1      49.114  34.692  51.584  0.00  0.00     0.000 A 
ATOM     12  C   UNL d   1      48.681  35.153  52.120  0.00  0.00     0.000 A 
ATOM     13  C   UNL d   1      48.978  35.292  52.875  0.00  0.00     0.000 A 
ATOM     14  C   UNL d   1      49.706  34.973  53.102  0.00  0.00     0.002 A 
BRANCH  12  15
ATOM     15  C   UNL d   1      47.954  35.472  51.894  0.00  0.00     0.000 C 
ATOM     16  C   UNL d   1      47.404  35.698  52.465  0.00  0.00     0.000 C 
ENDBRANCH  12  15
ENDBRANCH   4   9
BRANCH   3  17
ATOM     17  C   UNL d   1      52.301  32.644  53.038  0.00  0.00     0.118 A 
ATOM     18  O   UNL d   1      52.840  32.396  52.472  0.00  0.00    -0.304 OA
ATOM     19  C   UNL d   1      53.177  31.669  52.718  0.00  0.00     0.123 A 
ATOM     20  C   UNL d   1      52.835  31.473  53.446  0.00  0.00     0.029 A 
ATOM     21  C   UNL d   1      52.292  32.089  53.632  0.00  0.00     0.028 A 
ENDBRANCH   3  17
TORSDOF 3
ENDMDL
