MODEL 1
REMARK VINA RESULT:      95.4      0.000      0.000
REMARK  4 active torsions:
REMARK  status: ('A' for Active; 'I' for Inactive)
REMARK    1  A    between atoms: C_4  and  C_1 
REMARK    2  A    between atoms: C_9  and  N_2 
REMARK    3  A    between atoms: C_10  and  N_3 
REMARK    4  A    between atoms: O_15  and  C_12 
ROOT
ATOM      1  C   UNL d   1      58.994  49.269  51.838  0.00  0.00     0.133 A 
ATOM      2  N   UNL d   1      59.765  49.358  51.586  0.00  0.00    -0.290 N 
ATOM      3  N   UNL d   1      58.962  49.485  52.628  0.00  0.00    -0.290 N 
ATOM      4  C   UNL d   1      59.725  49.708  52.856  0.00  0.00     0.101 A 
ATOM      5  C   UNL d   1      60.195  49.629  52.233  0.00  0.00     0.101 A 
ENDROOT
BRANCH   1   6
ATOM      6  C   UNL d   1      58.442  48.999  51.285  0.00  0.00     0.036 A 
ATOM      7  C   UNL d   1      57.793  49.486  51.082  0.00  0.00     0.047 A 
ATOM      8  C   UNL d   1      57.243  49.216  50.530  0.00  0.00     0.218 A 
ATOM      9  O   UNL d   1      56.591  49.705  50.326  0.00  0.00    -0.284 OA
ATOM     10  C   UNL d   1      57.337  48.474  50.186  0.00  0.00     0.133 A 
ATOM     11  C   UNL d   1      57.978  47.998  50.389  0.00  0.00     0.028 A 
ATOM     12  C   UNL d   1      58.527  48.267  50.938  0.00  0.00     0.005 A 
BRANCH  10  13
ATOM     13  O   UNL d   1      56.777  48.196  49.622  0.00  0.00    -0.325 OA
ATOM     14  C   UNL d   1      57.033  47.982  48.868  0.00  0.00     0.181 C 
ENDBRANCH  10  13
ENDBRANCH   1   6
BRANCH   2  15
ATOM     15  C   UNL d   1      60.286  49.282  50.934  0.00  0.00     0.066 A 
ATOM     16  C   UNL d   1      60.968  48.834  51.002  0.00  0.00     0.018 A 
ATOM     17  C   UNL d   1      61.489  48.748  50.379  0.00  0.00     0.002 A 
ATOM     18  C   UNL d   1      61.330  49.122  49.652  0.00  0.00     0.000 A 
ATOM     19  C   UNL d   1      60.636  49.582  49.572  0.00  0.00     0.002 A 
ATOM     20  C   UNL d   1      60.114  49.659  50.222  0.00  0.00     0.018 A 
ENDBRANCH   2  15
BRANCH   3  21
ATOM     21  C   UNL d   1      58.368  49.523  53.198  0.00  0.00     0.066 A 
ATOM     22  C   UNL d   1      58.540  49.416  54.000  0.00  0.00     0.018 A 
ATOM     23  C   UNL d   1      57.960  49.453  54.557  0.00  0.00     0.002 A 
ATOM     24  C   UNL d   1      57.164  49.600  54.343  0.00  0.00     0.000 A 
ATOM     25  C   UNL d   1      56.993  49.707  53.538  0.00  0.00     0.002 A 
ATOM     26  C   UNL d   1      57.587  49.669  52.969  0.00  0.00     0.018 A 
ENDBRANCH   3  21
TORSDOF 4
ENDMDL
