MODEL 1
REMARK VINA RESULT:      14.5      0.000      0.000
REMARK  1 active torsions:
REMARK  status: ('A' for Active; 'I' for Inactive)
REMARK    1  A    between atoms: C_2  and  C_1 
ROOT
ATOM      1  C   UNL d   1     -51.413  25.538  33.322  0.00  0.00     0.089 A 
ATOM      2  C   UNL d   1     -50.929  24.875  33.312  0.00  0.00     0.302 A 
ATOM      3  C   UNL d   1     -52.240  25.454  33.328  0.00  0.00     0.009 A 
ATOM      4  O   UNL d   1     -51.268  24.120  33.306  0.00  0.00    -0.273 OA
ATOM      5  C   UNL d   1     -52.570  24.694  33.322  0.00  0.00     0.023 A 
ATOM      6  C   UNL d   1     -52.086  24.031  33.311  0.00  0.00     0.103 A 
ATOM      7  O   UNL d   1     -50.108  24.978  33.307  0.00  0.00    -0.259 OA
ATOM      8  C   UNL d   1     -53.396  24.612  33.327  0.00  0.00     0.002 A 
ATOM      9  C   UNL d   1     -52.424  23.278  33.306  0.00  0.00     0.025 A 
ATOM     10  C   UNL d   1     -53.725  23.853  33.321  0.00  0.00     0.000 A 
ATOM     11  C   UNL d   1     -53.241  23.189  33.311  0.00  0.00     0.002 A 
ENDROOT
BRANCH   1  12
ATOM     12  C   UNL d   1     -51.068  26.296  33.328  0.00  0.00     0.140 A 
ATOM     13  S   UNL d   1     -51.382  27.055  33.310  0.00  0.00    -0.024 SA
ATOM     14  C   UNL d   1     -50.759  27.581  33.328  0.00  0.00     0.236 A 
ATOM     15  N   UNL d   1     -50.807  28.416  33.319  0.00  0.00    -0.118 N 
ATOM     16  N   UNL d   1     -50.064  27.172  33.356  0.00  0.00    -0.119 NA
ATOM     17  N   UNL d   1     -50.241  26.370  33.357  0.00  0.00    -0.139 NA
ENDBRANCH   1  12
TORSDOF 1
ENDMDL
MODEL 2
REMARK VINA RESULT:      14.5      1.892      3.455
REMARK  1 active torsions:
REMARK  status: ('A' for Active; 'I' for Inactive)
REMARK    1  A    between atoms: C_2  and  C_1 
ROOT
ATOM      1  C   UNL d   1     -51.569  25.168  33.335  0.00  0.00     0.089 A 
ATOM      2  C   UNL d   1     -50.753  25.073  33.351  0.00  0.00     0.302 A 
ATOM      3  C   UNL d   1     -51.903  25.929  33.320  0.00  0.00     0.009 A 
ATOM      4  O   UNL d   1     -50.264  25.740  33.352  0.00  0.00    -0.273 OA
ATOM      5  C   UNL d   1     -51.404  26.590  33.322  0.00  0.00     0.023 A 
ATOM      6  C   UNL d   1     -50.589  26.496  33.338  0.00  0.00     0.103 A 
ATOM      7  O   UNL d   1     -50.440  24.307  33.365  0.00  0.00    -0.259 OA
ATOM      8  C   UNL d   1     -51.739  27.350  33.307  0.00  0.00     0.002 A 
ATOM      9  C   UNL d   1     -50.099  27.160  33.340  0.00  0.00     0.025 A 
ATOM     10  C   UNL d   1     -51.240  28.010  33.309  0.00  0.00     0.000 A 
ATOM     11  C   UNL d   1     -50.424  27.915  33.325  0.00  0.00     0.002 A 
ENDROOT
BRANCH   1  12
ATOM     12  C   UNL d   1     -52.059  24.495  33.333  0.00  0.00     0.140 A 
ATOM     13  S   UNL d   1     -52.875  24.394  33.355  0.00  0.00    -0.024 SA
ATOM     14  C   UNL d   1     -53.026  23.593  33.340  0.00  0.00     0.236 A 
ATOM     15  N   UNL d   1     -53.776  23.224  33.353  0.00  0.00    -0.118 N 
ATOM     16  N   UNL d   1     -52.328  23.189  33.311  0.00  0.00    -0.119 NA
ATOM     17  N   UNL d   1     -51.716  23.738  33.306  0.00  0.00    -0.139 NA
ENDBRANCH   1  12
TORSDOF 1
ENDMDL
