MODEL 1
REMARK VINA RESULT:      43.2      0.000      0.000
REMARK  6 active torsions:
REMARK  status: ('A' for Active; 'I' for Inactive)
REMARK    1  A    between atoms: C_7  and  C_4 
REMARK    2  A    between atoms: O_17  and  C_6 
REMARK    3  A    between atoms: C_8  and  C_7 
REMARK    4  A    between atoms: C_12  and  C_8 
REMARK    5  A    between atoms: O_21  and  C_11 
REMARK    6  A    between atoms: O_22  and  C_18 
ROOT
ATOM      1  C   UNL d   1      15.369  13.728  -0.074  0.00  0.00     0.090 A 
ATOM      2  C   UNL d   1      16.138  14.018  -0.081  0.00  0.00     0.302 A 
ATOM      3  O   UNL d   1      16.048  14.805  -0.112  0.00  0.00    -0.273 OA
ATOM      4  C   UNL d   1      15.286  15.001  -0.123  0.00  0.00     0.107 A 
ATOM      5  C   UNL d   1      14.842  14.332  -0.099  0.00  0.00     0.030 A 
ATOM      6  C   UNL d   1      15.093  12.929  -0.044  0.00  0.00     0.121 A 
ATOM      7  C   UNL d   1      14.037  14.188  -0.097  0.00  0.00     0.004 A 
ATOM      8  O   UNL d   1      16.864  13.566  -0.061  0.00  0.00    -0.259 OA
ATOM      9  C   UNL d   1      14.274  12.793  -0.043  0.00  0.00     0.117 A 
ATOM     10  C   UNL d   1      13.767  13.408  -0.069  0.00  0.00     0.026 A 
ENDROOT
BRANCH   4  11
ATOM     11  C   UNL d   1      14.983  15.785  -0.154  0.00  0.00     0.067 C 
BRANCH  11  12
ATOM     12  C   UNL d   1      15.311  16.408  -0.592  0.00  0.00     0.198 C 
ATOM     13  O   UNL d   1      15.833  16.934  -0.140  0.00  0.00    -0.286 OA
BRANCH  12  14
ATOM     14  C   UNL d   1      15.189  16.542  -1.334  0.00  0.00     0.039 A 
ATOM     15  C   UNL d   1      15.347  17.265  -1.619  0.00  0.00     0.005 A 
ATOM     16  C   UNL d   1      15.213  17.413  -2.431  0.00  0.00     0.024 A 
ATOM     17  C   UNL d   1      14.917  16.849  -2.992  0.00  0.00     0.094 A 
ATOM     18  C   UNL d   1      14.761  16.094  -2.648  0.00  0.00     0.024 A 
ATOM     19  C   UNL d   1      14.899  15.991  -1.881  0.00  0.00     0.005 A 
BRANCH  17  20
ATOM     20  O   UNL d   1      14.793  17.014  -3.781  0.00  0.00    -0.328 OA
ATOM     21  C   UNL d   1      15.245  16.560  -4.503  0.00  0.00     0.181 C 
ENDBRANCH  17  20
ENDBRANCH  12  14
ENDBRANCH  11  12
ENDBRANCH   4  11
BRANCH   6  22
ATOM     22  O   UNL d   1      15.600  12.295  -0.018  0.00  0.00    -0.326 OA
ATOM     23  C   UNL d   1      15.759  11.888  -0.677  0.00  0.00     0.181 C 
ENDBRANCH   6  22
BRANCH   9  24
ATOM     24  O   UNL d   1      13.946  12.034  -0.015  0.00  0.00    -0.326 OA
ATOM     25  C   UNL d   1      13.436  11.782  -0.587  0.00  0.00     0.181 C 
ENDBRANCH   9  24
TORSDOF 6
ENDMDL
