MODEL 1
REMARK VINA RESULT:      -5.6      0.000      0.000
REMARK  4 active torsions:
REMARK  status: ('A' for Active; 'I' for Inactive)
REMARK    1  A    between atoms: N_4  and  C_8 
REMARK    2  A    between atoms: C_15  and  C_5 
REMARK    3  A    between atoms: O_17  and  C_15 
REMARK    4  A    between atoms: C_16  and  O_17 
ROOT
ATOM      1  C   UNL d   1     -41.141-121.748 -52.146  0.00  0.00     0.144 C 
ENDROOT
BRANCH   1   2
ATOM      2  C   UNL d   1     -41.410-121.934 -52.899  0.00  0.00     0.142 A 
ATOM      3  N   UNL d   1     -42.010-121.547 -53.306  0.00  0.00    -0.057 NA
ATOM      4  C   UNL d   1     -42.093-121.914 -54.028  0.00  0.00     0.735 A 
ATOM      5  N   UNL d   1     -41.546-122.529 -54.074  0.00  0.00    -0.136 N 
ATOM      6  N   UNL d   1     -42.598-121.774 -54.666  0.00  0.00    -0.059 NA
ATOM      7  C   UNL d   1     -41.133-122.530 -53.372  0.00  0.00     0.120 A 
ATOM      8  C   UNL d   1     -41.488-123.015 -54.744  0.00  0.00     0.100 A 
ATOM      9  C   UNL d   1     -42.009-122.865 -55.394  0.00  0.00     0.041 A 
ATOM     10  C   UNL d   1     -42.561-122.240 -55.343  0.00  0.00     0.119 A 
ENDBRANCH   1   2
BRANCH   1  11
ATOM     11  O   UNL d   1     -41.357-122.222 -51.490  0.00  0.00    -0.303 OA
BRANCH  11  12
ATOM     12  C   UNL d   1     -41.570-122.688 -50.838  0.00  0.00     0.102 A 
ATOM     13  C   UNL d   1     -42.235-122.492 -50.380  0.00  0.00     0.048 A 
ATOM     14  C   UNL d   1     -42.451-122.950 -49.732  0.00  0.00     0.129 A 
ATOM     15  C   UNL d   1     -41.998-123.621 -49.530  0.00  0.00     0.024 A 
ATOM     16  C   UNL d   1     -41.335-123.817 -49.986  0.00  0.00     0.004 A 
ATOM     17  C   UNL d   1     -41.127-123.353 -50.632  0.00  0.00     0.025 A 
BRANCH  14  18
ATOM     18  N   UNL d   1     -43.115-122.743 -49.287  0.00  0.00    -0.114 N 
ATOM     19  O   UNL d   1     -43.869-122.817 -49.620  0.00  0.00    -0.532 OA
ATOM     20  O   UNL d   1     -43.036-122.465 -48.522  0.00  0.00    -0.532 OA
ENDBRANCH  14  18
ENDBRANCH  11  12
ENDBRANCH   1  11
TORSDOF 4
ENDMDL
