MODEL 1
REMARK VINA RESULT:     253.3      0.000      0.000
REMARK  7 active torsions:
REMARK  status: ('A' for Active; 'I' for Inactive)
REMARK    1  A    between atoms: N_3  and  C_1 
REMARK       I    between atoms: C_7  and  N_3 
REMARK    2  A    between atoms: C_11  and  N_3 
REMARK    3  A    between atoms: S_5  and  C_10 
REMARK    4  A    between atoms: C_14  and  S_5 
REMARK    5  A    between atoms: C_9  and  C_7 
REMARK    6  A    between atoms: C_10  and  C_9 
REMARK    7  A    between atoms: C_18  and  C_11 
ROOT
ATOM      1  N   UNL d   1     -56.315 -99.965 -42.282  0.00  0.00    -0.253 N 
ATOM      2  C   UNL d   1     -57.123 -99.845 -42.472  0.00  0.00     0.267 C 
ATOM      3  O   UNL d   1     -57.662 -99.700 -41.869  0.00  0.00    -0.267 OA
ENDROOT
BRANCH   1   4
ATOM      4  C   UNL d   1     -56.073 -99.935 -41.495  0.00  0.00     0.182 A 
ATOM      5  N   UNL d   1     -56.563 -99.833 -40.833  0.00  0.00    -0.219 NA
ATOM      6  C   UNL d   1     -56.086 -99.837 -40.153  0.00  0.00     0.117 A 
ATOM      7  C   UNL d   1     -56.279 -99.759 -39.364  0.00  0.00     0.158 A 
ATOM      8  C   UNL d   1     -55.309 -99.942 -40.391  0.00  0.00     0.052 A 
ATOM      9  F   UNL d   1     -57.053 -99.655 -39.123  0.00  0.00    -0.203 F 
ATOM     10  C   UNL d   1     -55.683 -99.785 -38.805  0.00  0.00     0.031 A 
ATOM     11  C   UNL d   1     -54.897 -99.890 -39.035  0.00  0.00     0.003 A 
ATOM     12  C   UNL d   1     -54.713 -99.968 -39.833  0.00  0.00     0.008 A 
ATOM     13  S   UNL d   1     -55.293-100.003 -41.217  0.00  0.00    -0.048 SA
ENDBRANCH   1   4
BRANCH   1  14
ATOM     14  C   UNL d   1     -55.769-100.111 -42.880  0.00  0.00     0.086 C 
BRANCH  14  15
ATOM     15  C   UNL d   1     -55.703-100.867 -43.204  0.00  0.00     0.037 A 
ATOM     16  C   UNL d   1     -55.079-101.047 -43.709  0.00  0.00     0.100 A 
ATOM     17  N   UNL d   1     -55.013-101.803 -44.033  0.00  0.00    -0.242 NA
ATOM     18  C   UNL d   1     -55.572-102.379 -43.851  0.00  0.00     0.099 A 
ATOM     19  C   UNL d   1     -56.200-102.201 -43.344  0.00  0.00     0.021 A 
ATOM     20  C   UNL d   1     -56.266-101.445 -43.020  0.00  0.00     0.005 A 
ENDBRANCH  14  15
ENDBRANCH   1  14
BRANCH   2  21
ATOM     21  C   UNL d   1     -57.363 -99.875 -43.255  0.00  0.00     0.073 C 
BRANCH  21  22
ATOM     22  C   UNL d   1     -58.154 -99.721 -43.446  0.00  0.00     0.104 C 
BRANCH  22  23
ATOM     23  S   UNL d   1     -58.451 -99.941 -44.186  0.00  0.00     0.211 S 
ATOM     24  O   UNL d   1     -58.153-100.717 -44.078  0.00  0.00    -0.217 OA
ATOM     25  O   UNL d   1     -58.748 -99.170 -44.295  0.00  0.00    -0.217 OA
BRANCH  23  26
ATOM     26  C   UNL d   1     -58.747-100.165 -44.929  0.00  0.00     0.088 A 
ATOM     27  C   UNL d   1     -59.534-100.007 -45.120  0.00  0.00     0.011 A 
ATOM     28  C   UNL d   1     -59.833-100.227 -45.855  0.00  0.00     0.001 A 
ATOM     29  C   UNL d   1     -59.344-100.605 -46.400  0.00  0.00     0.000 A 
ATOM     30  C   UNL d   1     -58.565-100.762 -46.214  0.00  0.00     0.001 A 
ATOM     31  C   UNL d   1     -58.259-100.544 -45.477  0.00  0.00     0.011 A 
ENDBRANCH  23  26
ENDBRANCH  22  23
ENDBRANCH  21  22
ENDBRANCH   2  21
TORSDOF 7
ENDMDL
