MODEL 1
REMARK VINA RESULT:     -10.3      0.000      0.000
REMARK  5 active torsions:
REMARK  status: ('A' for Active; 'I' for Inactive)
REMARK    1  A    between atoms: C_10  and  N_2 
REMARK       I    between atoms: N_3  and  C_6 
REMARK    2  A    between atoms: C_6  and  C_14 
REMARK    3  A    between atoms: C_17  and  C_10 
REMARK    4  A    between atoms: O_13  and  C_12 
REMARK    5  A    between atoms: C_14  and  O_13 
ROOT
ATOM      1  C   UNL d   1      53.483  33.216  53.590  0.00  0.00     0.265 A 
ATOM      2  N   UNL d   1      53.260  32.505  53.218  0.00  0.00    -0.272 N 
ATOM      3  C   UNL d   1      52.938  33.843  53.610  0.00  0.00     0.059 A 
ATOM      4  C   UNL d   1      52.188  33.761  53.266  0.00  0.00     0.029 A 
ATOM      5  C   UNL d   1      51.976  33.054  52.900  0.00  0.00     0.021 A 
ATOM      6  C   UNL d   1      52.511  32.422  52.874  0.00  0.00     0.083 A 
ATOM      7  O   UNL d   1      54.226  33.298  53.931  0.00  0.00    -0.267 OA
ATOM      8  C   UNL d   1      51.646  34.389  53.288  0.00  0.00     0.100 A 
ATOM      9  C   UNL d   1      53.157  34.555  53.981  0.00  0.00     0.005 A 
ATOM     10  C   UNL d   1      52.611  35.182  54.001  0.00  0.00     0.002 A 
ATOM     11  C   UNL d   1      51.858  35.099  53.655  0.00  0.00     0.025 A 
ENDROOT
BRANCH   8  12
ATOM     12  O   UNL d   1      50.900  34.307  52.945  0.00  0.00    -0.300 OA
BRANCH  12  13
ATOM     13  C   UNL d   1      50.223  34.763  53.272  0.00  0.00     0.184 C 
BRANCH  13  14
ATOM     14  C   UNL d   1      49.573  34.821  52.623  0.00  0.00     0.290 C 
ATOM     15  N   UNL d   1      48.912  35.266  52.756  0.00  0.00    -0.272 N 
ATOM     16  C   UNL d   1      48.344  35.315  52.184  0.00  0.00     0.067 A 
ATOM     17  C   UNL d   1      48.824  35.655  53.452  0.00  0.00     0.083 A 
ATOM     18  C   UNL d   1      47.666  35.764  52.305  0.00  0.00     0.016 A 
ATOM     19  C   UNL d   1      48.422  34.928  51.480  0.00  0.00     0.018 A 
ATOM     20  C   UNL d   1      47.094  35.819  51.742  0.00  0.00     0.001 A 
ATOM     21  C   UNL d   1      47.592  36.154  53.020  0.00  0.00     0.003 A 
ATOM     22  C   UNL d   1      47.194  35.422  51.042  0.00  0.00     0.000 A 
ATOM     23  C   UNL d   1      47.863  34.969  50.902  0.00  0.00     0.002 A 
ATOM     24  C   UNL d   1      48.162  36.100  53.586  0.00  0.00     0.019 A 
ATOM     25  O   UNL d   1      49.687  34.373  51.836  0.00  0.00    -0.264 OA
ENDBRANCH  13  14
ENDBRANCH  12  13
ENDBRANCH   8  12
BRANCH   2  26
ATOM     26  C   UNL d   1      53.792  31.876  53.191  0.00  0.00     0.083 C 
BRANCH  26  27
ATOM     27  C   UNL d   1      53.558  31.125  53.441  0.00  0.00     0.018 A 
ATOM     28  C   UNL d   1      53.623  30.928  54.226  0.00  0.00     0.002 A 
ATOM     29  C   UNL d   1      53.392  30.183  54.479  0.00  0.00     0.007 A 
ATOM     30  C   UNL d   1      53.094  29.631  53.938  0.00  0.00     0.035 A 
ATOM     31  C   UNL d   1      53.029  29.834  53.138  0.00  0.00     0.007 A 
ATOM     32 BR   UNL d   1      52.860  28.879  54.184  0.00  0.00    -0.049 Br
ATOM     33  C   UNL d   1      53.261  30.586  52.879  0.00  0.00     0.002 A 
ENDBRANCH  26  27
ENDBRANCH   2  26
TORSDOF 5
ENDMDL
MODEL 2
REMARK VINA RESULT:      -7.6      2.268      3.911
REMARK  5 active torsions:
REMARK  status: ('A' for Active; 'I' for Inactive)
REMARK    1  A    between atoms: C_10  and  N_2 
REMARK       I    between atoms: N_3  and  C_6 
REMARK    2  A    between atoms: C_6  and  C_14 
REMARK    3  A    between atoms: C_17  and  C_10 
REMARK    4  A    between atoms: O_13  and  C_12 
REMARK    5  A    between atoms: C_14  and  O_13 
ROOT
ATOM      1  C   UNL d   1      50.507  34.155  51.687  0.00  0.00     0.265 A 
ATOM      2  N   UNL d   1      50.858  34.152  52.443  0.00  0.00    -0.272 N 
ATOM      3  C   UNL d   1      49.751  34.491  51.600  0.00  0.00     0.059 A 
ATOM      4  C   UNL d   1      49.356  34.814  52.253  0.00  0.00     0.029 A 
ATOM      5  C   UNL d   1      49.709  34.806  52.997  0.00  0.00     0.021 A 
ATOM      6  C   UNL d   1      50.462  34.475  53.096  0.00  0.00     0.083 A 
ATOM      7  O   UNL d   1      50.899  33.835  51.041  0.00  0.00    -0.267 OA
ATOM      8  C   UNL d   1      48.602  35.148  52.163  0.00  0.00     0.100 A 
ATOM      9  C   UNL d   1      49.398  34.496  50.847  0.00  0.00     0.005 A 
ATOM     10  C   UNL d   1      48.642  34.831  50.760  0.00  0.00     0.002 A 
ATOM     11  C   UNL d   1      48.245  35.156  51.416  0.00  0.00     0.025 A 
ENDROOT
BRANCH   8  12
ATOM     12  O   UNL d   1      48.208  35.470  52.813  0.00  0.00    -0.300 OA
BRANCH  12  13
ATOM     13  C   UNL d   1      47.496  35.969  52.682  0.00  0.00     0.184 C 
BRANCH  13  14
ATOM     14  C   UNL d   1      47.103  36.133  53.499  0.00  0.00     0.290 C 
ATOM     15  N   UNL d   1      46.310  36.275  53.541  0.00  0.00    -0.272 N 
ATOM     16  C   UNL d   1      45.970  36.419  54.258  0.00  0.00     0.067 A 
ATOM     17  C   UNL d   1      45.866  36.272  52.872  0.00  0.00     0.083 A 
ATOM     18  C   UNL d   1      45.163  36.564  54.317  0.00  0.00     0.016 A 
ATOM     19  C   UNL d   1      46.406  36.424  54.937  0.00  0.00     0.018 A 
ATOM     20  C   UNL d   1      44.813  36.709  55.028  0.00  0.00     0.001 A 
ATOM     21  C   UNL d   1      44.725  36.558  53.627  0.00  0.00     0.003 A 
ATOM     22  C   UNL d   1      45.272  36.709  55.697  0.00  0.00     0.000 A 
ATOM     23  C   UNL d   1      46.078  36.566  55.659  0.00  0.00     0.002 A 
ATOM     24  C   UNL d   1      45.071  36.414  52.914  0.00  0.00     0.019 A 
ATOM     25  O   UNL d   1      47.621  36.133  54.250  0.00  0.00    -0.264 OA
ENDBRANCH  13  14
ENDBRANCH  12  13
ENDBRANCH   8  12
BRANCH   2  26
ATOM     26  C   UNL d   1      51.606  33.822  52.543  0.00  0.00     0.083 C 
BRANCH  26  27
ATOM     27  C   UNL d   1      52.095  34.081  53.155  0.00  0.00     0.018 A 
ATOM     28  C   UNL d   1      52.452  34.809  53.100  0.00  0.00     0.002 A 
ATOM     29  C   UNL d   1      52.938  35.069  53.707  0.00  0.00     0.007 A 
ATOM     30  C   UNL d   1      53.067  34.596  54.373  0.00  0.00     0.035 A 
ATOM     31  C   UNL d   1      52.703  33.855  54.428  0.00  0.00     0.007 A 
ATOM     32 BR   UNL d   1      53.555  34.850  54.988  0.00  0.00    -0.049 Br
ATOM     33  C   UNL d   1      52.210  33.588  53.817  0.00  0.00     0.002 A 
ENDBRANCH  26  27
ENDBRANCH   2  26
TORSDOF 5
ENDMDL
