MODEL 1
REMARK VINA RESULT:       0.9      0.000      0.000
REMARK  4 active torsions:
REMARK  status: ('A' for Active; 'I' for Inactive)
REMARK    1  A    between atoms: N_3  and  S_1 
REMARK    2  A    between atoms: C_6  and  S_1 
REMARK       I    between atoms: C_2  and  N_4 
REMARK       I    between atoms: N_5  and  C_2 
REMARK    3  A    between atoms: C_14  and  N_5 
REMARK    4  A    between atoms: C_15  and  N_5 
ROOT
ATOM      1  C   UNL d   1     -41.768-123.404 -49.605  0.00  0.00     0.339 C 
ATOM      2  N   UNL d   1     -41.768-122.902 -52.029  0.00  0.00    -0.226 N 
ATOM      3  N   UNL d   1     -41.768-123.234 -50.426  0.00  0.00    -0.254 N 
ATOM      4  N   UNL d   1     -42.391-123.177 -49.124  0.00  0.00    -0.260 N 
ATOM      5  C   UNL d   1     -41.123-123.309 -51.692  0.00  0.00     0.111 A 
ATOM      6  C   UNL d   1     -42.401-122.667 -51.559  0.00  0.00     0.111 A 
ATOM      7  O   UNL d   1     -41.123-123.809 -49.281  0.00  0.00    -0.245 OA
ATOM      8  C   UNL d   1     -42.401-122.833 -50.759  0.00  0.00     0.104 A 
ATOM      9  C   UNL d   1     -41.123-123.475 -50.892  0.00  0.00     0.104 A 
ENDROOT
BRANCH   4  10
ATOM     10  C   UNL d   1     -43.043-122.765 -49.461  0.00  0.00     0.068 A 
ATOM     11  C   UNL d   1     -43.000-121.934 -49.541  0.00  0.00     0.018 A 
ATOM     12  C   UNL d   1     -43.640-121.519 -49.873  0.00  0.00     0.002 A 
ATOM     13  C   UNL d   1     -44.321-121.939 -50.122  0.00  0.00     0.000 A 
ATOM     14  C   UNL d   1     -44.358-122.771 -50.039  0.00  0.00     0.002 A 
ATOM     15  C   UNL d   1     -43.710-123.186 -49.704  0.00  0.00     0.018 A 
ENDBRANCH   4  10
BRANCH   4  16
ATOM     16  C   UNL d   1     -42.379-123.348 -48.330  0.00  0.00     0.068 A 
ATOM     17  C   UNL d   1     -41.689-123.218 -47.891  0.00  0.00     0.018 A 
ATOM     18  C   UNL d   1     -41.674-123.388 -47.092  0.00  0.00     0.002 A 
ATOM     19  C   UNL d   1     -42.346-123.689 -46.724  0.00  0.00     0.000 A 
ATOM     20  C   UNL d   1     -43.031-123.817 -47.163  0.00  0.00     0.002 A 
ATOM     21  C   UNL d   1     -43.043-123.646 -47.961  0.00  0.00     0.018 A 
ENDBRANCH   4  16
BRANCH   2  22
ATOM     22  S   UNL d   1     -41.768-122.734 -52.837  0.00  0.00     0.271 S 
ATOM     23  O   UNL d   1     -41.181-122.254 -53.159  0.00  0.00    -0.200 OA
ATOM     24  O   UNL d   1     -42.354-123.046 -53.323  0.00  0.00    -0.200 OA
BRANCH  22  25
ATOM     25  C   UNL d   1     -41.768-122.567 -53.644  0.00  0.00     0.104 A 
ATOM     26  C   UNL d   1     -41.475-123.128 -54.182  0.00  0.00     0.013 A 
ATOM     27  C   UNL d   1     -41.475-122.960 -54.990  0.00  0.00     0.001 A 
ATOM     28  C   UNL d   1     -41.768-122.232 -55.260  0.00  0.00     0.000 A 
ATOM     29  C   UNL d   1     -42.058-121.679 -54.720  0.00  0.00     0.001 A 
ATOM     30  C   UNL d   1     -41.768-122.065 -56.068  0.00  0.00     0.000 C 
ATOM     31  C   UNL d   1     -42.058-121.845 -53.917  0.00  0.00     0.013 A 
ENDBRANCH  22  25
ENDBRANCH   2  22
TORSDOF 4
ENDMDL
