MODEL 1
REMARK VINA RESULT:      63.8      0.000      0.000
REMARK  4 active torsions:
REMARK  status: ('A' for Active; 'I' for Inactive)
REMARK    1  A    between atoms: S_10  and  C_6 
REMARK    2  A    between atoms: C_16  and  S_10 
REMARK    3  A    between atoms: C_11  and  C_16 
REMARK       I    between atoms: N_13  and  C_11 
REMARK    4  A    between atoms: C_14  and  N_13 
ROOT
ATOM      1  C   UNL d   1      58.420  49.706  51.666  0.00  0.00     0.155 A 
ATOM      2  C   UNL d   1      58.510  49.704  50.843  0.00  0.00     0.107 A 
ATOM      3  N   UNL d   1      59.842  49.704  51.820  0.00  0.00    -0.250 N 
ATOM      4  C   UNL d   1      59.082  49.705  52.153  0.00  0.00     0.285 A 
ATOM      5  N   UNL d   1      59.271  49.703  50.509  0.00  0.00    -0.220 NA
ATOM      6  C   UNL d   1      59.928  49.703  51.005  0.00  0.00     0.182 A 
ATOM      7  N   UNL d   1      57.612  49.707  51.836  0.00  0.00    -0.239 NA
ATOM      8  C   UNL d   1      57.762  49.705  50.498  0.00  0.00     0.037 A 
ATOM      9  C   UNL d   1      57.200  49.707  51.115  0.00  0.00     0.083 A 
ATOM     10  O   UNL d   1      58.999  49.706  52.981  0.00  0.00    -0.265 OA
ATOM     11  C   UNL d   1      60.512  49.703  52.310  0.00  0.00     0.104 C 
ATOM     12  C   UNL d   1      57.510  49.704  49.714  0.00  0.00     0.003 A 
ATOM     13  C   UNL d   1      56.389  49.708  50.940  0.00  0.00     0.019 A 
ATOM     14  C   UNL d   1      56.701  49.705  49.539  0.00  0.00     0.000 A 
ATOM     15  C   UNL d   1      56.146  49.707  50.149  0.00  0.00     0.002 A 
ENDROOT
BRANCH   6  16
ATOM     16  S   UNL d   1      60.688  49.701  50.675  0.00  0.00    -0.044 SA
BRANCH  16  17
ATOM     17  C   UNL d   1      61.242  49.135  50.907  0.00  0.00     0.101 C 
BRANCH  17  18
ATOM     18  C   UNL d   1      61.359  48.459  50.451  0.00  0.00     0.286 C 
ATOM     19  N   UNL d   1      61.402  47.728  50.820  0.00  0.00    -0.208 NA
ATOM     20  O   UNL d   1      61.433  48.507  49.636  0.00  0.00    -0.265 OA
BRANCH  19  21
ATOM     21  C   UNL d   1      61.520  47.043  50.365  0.00  0.00     0.085 A 
ATOM     22  C   UNL d   1      61.238  46.327  50.634  0.00  0.00     0.019 A 
ATOM     23  C   UNL d   1      61.356  45.642  50.180  0.00  0.00     0.002 A 
ATOM     24  C   UNL d   1      61.070  44.898  50.446  0.00  0.00     0.000 C 
ATOM     25  C   UNL d   1      61.754  45.688  49.463  0.00  0.00     0.000 A 
ATOM     26  C   UNL d   1      62.039  46.418  49.192  0.00  0.00     0.002 A 
ATOM     27  C   UNL d   1      61.919  47.090  49.648  0.00  0.00     0.019 A 
ENDBRANCH  19  21
ENDBRANCH  17  18
ENDBRANCH  16  17
ENDBRANCH   6  16
TORSDOF 4
ENDMDL
