MODEL 1
REMARK VINA RESULT:      -2.2      0.000      0.000
REMARK  6 active torsions:
REMARK  status: ('A' for Active; 'I' for Inactive)
REMARK    1  A    between atoms: N_2  and  C_1 
REMARK    2  A    between atoms: N_7  and  C_1 
REMARK    3  A    between atoms: C_5  and  C_3 
REMARK    4  A    between atoms: C_6  and  C_5 
REMARK       I    between atoms: N_8  and  C_6 
REMARK    5  A    between atoms: C_18  and  N_7 
REMARK    6  A    between atoms: C_9  and  N_8 
ROOT
ATOM      1  N   UNL d   1     -42.474-122.780 -50.012  0.00  0.00    -0.278 N 
ATOM      2  C   UNL d   1     -42.266-122.452 -50.733  0.00  0.00     0.127 A 
ATOM      3  C   UNL d   1     -42.796-121.927 -51.120  0.00  0.00     0.274 A 
ATOM      4  N   UNL d   1     -43.523-121.739 -50.782  0.00  0.00    -0.318 N 
ATOM      5  O   UNL d   1     -42.588-121.598 -51.842  0.00  0.00    -0.266 OA
ATOM      6  C   UNL d   1     -43.199-122.599 -49.664  0.00  0.00     0.101 A 
ATOM      7  C   UNL d   1     -43.719-122.081 -50.048  0.00  0.00     0.094 A 
ATOM      8  H   UNL d   1     -44.049-121.225 -51.154  0.00  0.00     0.169 HD
ENDROOT
BRANCH   2   9
ATOM      9  C   UNL d   1     -41.548-122.633 -51.075  0.00  0.00     0.083 C 
BRANCH   9  10
ATOM     10  C   UNL d   1     -41.517-122.911 -51.846  0.00  0.00     0.259 C 
ATOM     11  N   UNL d   1     -41.241-122.417 -52.450  0.00  0.00    -0.321 N 
ATOM     12  H   UNL d   1     -40.996-121.645 -52.278  0.00  0.00     0.169 HD
ATOM     13  O   UNL d   1     -41.762-123.683 -52.018  0.00  0.00    -0.267 OA
BRANCH  11  14
ATOM     14  C   UNL d   1     -41.214-122.706 -53.220  0.00  0.00     0.059 A 
ATOM     15  C   UNL d   1     -41.176-122.157 -53.854  0.00  0.00     0.016 A 
ATOM     16  C   UNL d   1     -41.150-122.437 -54.626  0.00  0.00     0.001 A 
ATOM     17  C   UNL d   1     -41.166-121.343 -53.706  0.00  0.00     0.002 C 
ATOM     18  C   UNL d   1     -41.160-123.265 -54.775  0.00  0.00     0.000 A 
ATOM     19  C   UNL d   1     -41.197-123.811 -54.146  0.00  0.00     0.002 A 
ATOM     20  C   UNL d   1     -41.133-123.543 -55.556  0.00  0.00     0.000 C 
ATOM     21  C   UNL d   1     -41.224-123.520 -53.363  0.00  0.00     0.017 A 
ENDBRANCH  11  14
ENDBRANCH   9  10
ENDBRANCH   2   9
BRANCH   1  22
ATOM     22  C   UNL d   1     -41.956-123.294 -49.632  0.00  0.00     0.184 C 
ATOM     23  S   UNL d   1     -41.161-123.278 -49.843  0.00  0.00    -0.040 SA
BRANCH  22  24
ATOM     24  N   UNL d   1     -42.236-123.809 -49.056  0.00  0.00    -0.331 N 
ATOM     25  H   UNL d   1     -42.684-124.457 -49.289  0.00  0.00     0.168 HD
BRANCH  24  26
ATOM     26  C   UNL d   1     -42.074-123.685 -48.262  0.00  0.00     0.058 A 
ATOM     27  C   UNL d   1     -42.687-123.558 -47.731  0.00  0.00     0.017 A 
ATOM     28  C   UNL d   1     -42.526-123.433 -46.937  0.00  0.00     0.002 A 
ATOM     29  C   UNL d   1     -41.744-123.438 -46.676  0.00  0.00     0.000 A 
ATOM     30  C   UNL d   1     -41.126-123.565 -47.207  0.00  0.00     0.002 A 
ATOM     31  C   UNL d   1     -41.297-123.689 -48.003  0.00  0.00     0.017 A 
ENDBRANCH  24  26
ENDBRANCH  22  24
ENDBRANCH   1  22
TORSDOF 6
ENDMDL
