MODEL 1
REMARK VINA RESULT:      58.0      0.000      0.000
REMARK  5 active torsions:
REMARK  status: ('A' for Active; 'I' for Inactive)
REMARK    1  A    between atoms: C_10  and  C_4 
REMARK    2  A    between atoms: N_12  and  C_5 
REMARK    3  A    between atoms: N_11  and  C_22 
REMARK    4  A    between atoms: C_21  and  N_12 
REMARK    5  A    between atoms: C_22  and  C_21 
ROOT
ATOM      1  N   UNL d   1      14.543  13.751  -2.240  0.00  0.00    -0.195 N 
ATOM      2  C   UNL d   1      14.724  14.207  -1.578  0.00  0.00     0.167 A 
ATOM      3  N   UNL d   1      14.510  14.250  -2.888  0.00  0.00    -0.163 NA
ATOM      4  C   UNL d   1      14.800  14.984  -1.823  0.00  0.00     0.055 A 
ATOM      5  C   UNL d   1      14.433  12.938  -2.164  0.00  0.00     0.167 A 
ATOM      6  C   UNL d   1      14.670  15.012  -2.621  0.00  0.00     0.104 A 
ATOM      7  N   UNL d   1      14.795  13.852  -0.838  0.00  0.00    -0.227 NA
ATOM      8  C   UNL d   1      14.505  12.578  -1.416  0.00  0.00     0.058 A 
ATOM      9  C   UNL d   1      14.684  13.030  -0.760  0.00  0.00     0.086 A 
ATOM     10  C   UNL d   1      14.696  15.698  -3.085  0.00  0.00     0.023 C 
ATOM     11  C   UNL d   1      14.753  12.657  -0.014  0.00  0.00     0.021 C 
ENDROOT
BRANCH   5  12
ATOM     12  N   UNL d   1      14.252  12.481  -2.825  0.00  0.00    -0.224 NA
BRANCH  12  13
ATOM     13  C   UNL d   1      13.468  12.371  -3.049  0.00  0.00     0.120 C 
BRANCH  13  14
ATOM     14  C   UNL d   1      13.276  11.818  -3.642  0.00  0.00     0.101 C 
BRANCH  14  15
ATOM     15  N   UNL d   1      13.358  12.023  -4.433  0.00  0.00    -0.298 N 
ATOM     16  C   UNL d   1      12.769  12.472  -4.805  0.00  0.00     0.107 A 
ATOM     17  C   UNL d   1      12.851  12.678  -5.596  0.00  0.00     0.142 A 
ATOM     18  O   UNL d   1      13.519  12.441  -6.031  0.00  0.00    -0.300 OA
ATOM     19  C   UNL d   1      14.111  11.989  -5.658  0.00  0.00     0.142 A 
ATOM     20  C   UNL d   1      14.031  11.781  -4.861  0.00  0.00     0.107 A 
ENDBRANCH  14  15
ENDBRANCH  13  14
ENDBRANCH  12  13
ENDBRANCH   5  12
BRANCH   4  21
ATOM     21  C   UNL d   1      14.976  15.680  -1.407  0.00  0.00     0.004 A 
ATOM     22  C   UNL d   1      14.838  16.416  -1.764  0.00  0.00     0.001 A 
ATOM     23  C   UNL d   1      15.013  17.107  -1.350  0.00  0.00     0.011 A 
ATOM     24  C   UNL d   1      15.322  17.063  -0.587  0.00  0.00     0.058 A 
ATOM     25  C   UNL d   1      15.461  16.337  -0.229  0.00  0.00     0.011 A 
ATOM     26 CL   UNL d   1      15.496  17.764  -0.176  0.00  0.00    -0.082 Cl
ATOM     27  C   UNL d   1      15.286  15.640  -0.644  0.00  0.00     0.001 A 
ENDBRANCH   4  21
TORSDOF 5
ENDMDL
MODEL 2
REMARK VINA RESULT:      58.4      2.615      4.140
REMARK  5 active torsions:
REMARK  status: ('A' for Active; 'I' for Inactive)
REMARK    1  A    between atoms: C_10  and  C_4 
REMARK    2  A    between atoms: N_12  and  C_5 
REMARK    3  A    between atoms: N_11  and  C_22 
REMARK    4  A    between atoms: C_21  and  N_12 
REMARK    5  A    between atoms: C_22  and  C_21 
ROOT
ATOM      1  N   UNL d   1      13.127  13.124  -3.954  0.00  0.00    -0.195 N 
ATOM      2  C   UNL d   1      13.275  13.530  -4.655  0.00  0.00     0.167 A 
ATOM      3  N   UNL d   1      13.067  13.676  -3.352  0.00  0.00    -0.163 NA
ATOM      4  C   UNL d   1      13.305  14.329  -4.482  0.00  0.00     0.055 A 
ATOM      5  C   UNL d   1      13.066  12.302  -3.956  0.00  0.00     0.167 A 
ATOM      6  C   UNL d   1      13.179  14.420  -3.688  0.00  0.00     0.104 A 
ATOM      7  N   UNL d   1      13.363  13.115  -5.362  0.00  0.00    -0.227 NA
ATOM      8  C   UNL d   1      13.155  11.882  -4.670  0.00  0.00     0.058 A 
ATOM      9  C   UNL d   1      13.302  12.284  -5.365  0.00  0.00     0.086 A 
ATOM     10  C   UNL d   1      13.165  15.145  -3.287  0.00  0.00     0.023 C 
ATOM     11  C   UNL d   1      13.389  11.851  -6.076  0.00  0.00     0.021 C 
ENDROOT
BRANCH   5  12
ATOM     12  N   UNL d   1      12.918  11.897  -3.255  0.00  0.00    -0.224 NA
BRANCH  12  13
ATOM     13  C   UNL d   1      13.517  11.804  -2.697  0.00  0.00     0.120 C 
BRANCH  13  14
ATOM     14  C   UNL d   1      13.332  11.779  -1.885  0.00  0.00     0.101 C 
BRANCH  14  15
ATOM     15  N   UNL d   1      13.915  11.936  -1.329  0.00  0.00    -0.298 N 
ATOM     16  C   UNL d   1      13.706  12.247  -0.590  0.00  0.00     0.107 A 
ATOM     17  C   UNL d   1      14.290  12.404  -0.033  0.00  0.00     0.142 A 
ATOM     18  O   UNL d   1      15.091  12.254  -0.201  0.00  0.00    -0.300 OA
ATOM     19  C   UNL d   1      15.301  11.940  -0.943  0.00  0.00     0.142 A 
ATOM     20  C   UNL d   1      14.715  11.782  -1.506  0.00  0.00     0.107 A 
ENDBRANCH  14  15
ENDBRANCH  13  14
ENDBRANCH  12  13
ENDBRANCH   5  12
BRANCH   4  21
ATOM     21  C   UNL d   1      13.435  14.995  -4.960  0.00  0.00     0.004 A 
ATOM     22  C   UNL d   1      12.801  15.327  -5.379  0.00  0.00     0.001 A 
ATOM     23  C   UNL d   1      12.931  15.988  -5.854  0.00  0.00     0.011 A 
ATOM     24  C   UNL d   1      13.687  16.314  -5.909  0.00  0.00     0.058 A 
ATOM     25  C   UNL d   1      14.318  15.988  -5.495  0.00  0.00     0.011 A 
ATOM     26 CL   UNL d   1      13.811  16.981  -6.389  0.00  0.00    -0.082 Cl
ATOM     27  C   UNL d   1      14.189  15.323  -5.017  0.00  0.00     0.001 A 
ENDBRANCH   4  21
TORSDOF 5
ENDMDL
MODEL 3
REMARK VINA RESULT:      60.4      2.389      3.889
REMARK  5 active torsions:
REMARK  status: ('A' for Active; 'I' for Inactive)
REMARK    1  A    between atoms: C_10  and  C_4 
REMARK    2  A    between atoms: N_12  and  C_5 
REMARK    3  A    between atoms: N_11  and  C_22 
REMARK    4  A    between atoms: C_21  and  N_12 
REMARK    5  A    between atoms: C_22  and  C_21 
ROOT
ATOM      1  N   UNL d   1      13.431  14.002  -3.583  0.00  0.00    -0.195 N 
ATOM      2  C   UNL d   1      13.652  13.316  -3.183  0.00  0.00     0.167 A 
ATOM      3  N   UNL d   1      13.657  14.642  -3.127  0.00  0.00    -0.163 NA
ATOM      4  C   UNL d   1      14.012  13.539  -2.483  0.00  0.00     0.055 A 
ATOM      5  C   UNL d   1      13.051  13.950  -4.313  0.00  0.00     0.167 A 
ATOM      6  C   UNL d   1      14.016  14.347  -2.447  0.00  0.00     0.104 A 
ATOM      7  N   UNL d   1      13.494  12.577  -3.512  0.00  0.00    -0.227 NA
ATOM      8  C   UNL d   1      12.892  13.203  -4.645  0.00  0.00     0.058 A 
ATOM      9  C   UNL d   1      13.111  12.524  -4.249  0.00  0.00     0.086 A 
ATOM     10  C   UNL d   1      14.332  14.796  -1.826  0.00  0.00     0.023 C 
ATOM     11  C   UNL d   1      12.945  11.780  -4.594  0.00  0.00     0.021 C 
ENDROOT
BRANCH   5  12
ATOM     12  N   UNL d   1      12.830  14.636  -4.713  0.00  0.00    -0.224 NA
BRANCH  12  13
ATOM     13  C   UNL d   1      13.385  15.053  -5.154  0.00  0.00     0.120 C 
BRANCH  13  14
ATOM     14  C   UNL d   1      13.137  15.645  -5.686  0.00  0.00     0.101 C 
BRANCH  14  15
ATOM     15  N   UNL d   1      13.564  16.344  -5.746  0.00  0.00    -0.298 N 
ATOM     16  C   UNL d   1      14.190  16.491  -5.224  0.00  0.00     0.107 A 
ATOM     17  C   UNL d   1      14.617  17.190  -5.284  0.00  0.00     0.142 A 
ATOM     18  O   UNL d   1      14.429  17.756  -5.864  0.00  0.00    -0.300 OA
ATOM     19  C   UNL d   1      13.799  17.609  -6.389  0.00  0.00     0.142 A 
ATOM     20  C   UNL d   1      13.368  16.905  -6.330  0.00  0.00     0.107 A 
ENDBRANCH  14  15
ENDBRANCH  13  14
ENDBRANCH  12  13
ENDBRANCH   5  12
BRANCH   4  21
ATOM     21  C   UNL d   1      14.343  13.095  -1.865  0.00  0.00     0.004 A 
ATOM     22  C   UNL d   1      14.678  13.485  -1.215  0.00  0.00     0.001 A 
ATOM     23  C   UNL d   1      15.006  13.043  -0.601  0.00  0.00     0.011 A 
ATOM     24  C   UNL d   1      14.999  12.220  -0.637  0.00  0.00     0.058 A 
ATOM     25  C   UNL d   1      14.668  11.828  -1.280  0.00  0.00     0.011 A 
ATOM     26 CL   UNL d   1      15.331  11.780  -0.015  0.00  0.00    -0.082 Cl
ATOM     27  C   UNL d   1      14.337  12.271  -1.898  0.00  0.00     0.001 A 
ENDBRANCH   4  21
TORSDOF 5
ENDMDL
