MODEL 1
REMARK VINA RESULT:      -6.8      0.000      0.000
REMARK  3 active torsions:
REMARK  status: ('A' for Active; 'I' for Inactive)
REMARK    1  A    between atoms: S_11  and  C_2 
REMARK    2  A    between atoms: C_7  and  C_12 
REMARK    3  A    between atoms: C_12  and  S_11 
ROOT
ATOM      1  S   UNL d   1      53.103  32.245  53.215  0.00  0.00    -0.058 SA
ENDROOT
BRANCH   1   2
ATOM      2  C   UNL d   1      53.068  31.416  53.192  0.00  0.00     0.164 A 
ATOM      3  S   UNL d   1      53.367  30.897  53.763  0.00  0.00    -0.039 SA
ATOM      4  C   UNL d   1      53.210  30.126  53.516  0.00  0.00     0.134 A 
ATOM      5  N   UNL d   1      52.811  30.163  52.789  0.00  0.00    -0.140 NA
ATOM      6  C   UNL d   1      53.412  29.426  53.919  0.00  0.00     0.030 C 
ATOM      7  N   UNL d   1      52.720  30.966  52.584  0.00  0.00    -0.134 NA
ENDBRANCH   1   2
BRANCH   1   8
ATOM      8  C   UNL d   1      52.410  32.685  53.290  0.00  0.00     0.057 C 
BRANCH   8   9
ATOM      9  C   UNL d   1      52.443  33.509  53.366  0.00  0.00     0.095 A 
ATOM     10  N   UNL d   1      52.824  33.926  53.946  0.00  0.00    -0.238 NA
ATOM     11  C   UNL d   1      52.713  34.720  53.808  0.00  0.00     0.111 A 
ATOM     12  C   UNL d   1      52.999  35.353  54.252  0.00  0.00     0.028 C 
ATOM     13  S   UNL d   1      52.260  34.794  53.138  0.00  0.00    -0.066 SA
ATOM     14  C   UNL d   1      52.093  34.052  52.866  0.00  0.00     0.057 A 
ENDBRANCH   8   9
ENDBRANCH   1   8
TORSDOF 3
ENDMDL
MODEL 2
REMARK VINA RESULT:      -6.6      1.102      3.973
REMARK  3 active torsions:
REMARK  status: ('A' for Active; 'I' for Inactive)
REMARK    1  A    between atoms: S_11  and  C_2 
REMARK    2  A    between atoms: C_7  and  C_12 
REMARK    3  A    between atoms: C_12  and  S_11 
ROOT
ATOM      1  S   UNL d   1      53.055  32.863  53.763  0.00  0.00    -0.058 SA
ENDROOT
BRANCH   1   2
ATOM      2  C   UNL d   1      53.242  33.594  54.110  0.00  0.00     0.164 A 
ATOM      3  S   UNL d   1      52.847  34.310  53.986  0.00  0.00    -0.039 SA
ATOM      4  C   UNL d   1      53.219  34.890  54.440  0.00  0.00     0.134 A 
ATOM      5  N   UNL d   1      53.848  34.534  54.849  0.00  0.00    -0.140 NA
ATOM      6  C   UNL d   1      53.008  35.694  54.487  0.00  0.00     0.030 C 
ATOM      7  N   UNL d   1      53.865  33.726  54.646  0.00  0.00    -0.134 NA
ENDBRANCH   1   2
BRANCH   1   8
ATOM      8  C   UNL d   1      53.617  32.260  53.747  0.00  0.00     0.057 C 
BRANCH   8   9
ATOM      9  C   UNL d   1      53.393  31.484  53.562  0.00  0.00     0.095 A 
ATOM     10  N   UNL d   1      53.580  30.815  53.978  0.00  0.00    -0.238 NA
ATOM     11  C   UNL d   1      53.247  30.176  53.600  0.00  0.00     0.111 A 
ATOM     12  C   UNL d   1      53.289  29.382  53.821  0.00  0.00     0.028 C 
ATOM     13  S   UNL d   1      52.852  30.452  52.947  0.00  0.00    -0.066 SA
ATOM     14  C   UNL d   1      52.941  31.254  52.922  0.00  0.00     0.057 A 
ENDBRANCH   8   9
ENDBRANCH   1   8
TORSDOF 3
ENDMDL
MODEL 3
REMARK VINA RESULT:      -6.3      2.165      3.433
REMARK  3 active torsions:
REMARK  status: ('A' for Active; 'I' for Inactive)
REMARK    1  A    between atoms: S_11  and  C_2 
REMARK    2  A    between atoms: C_7  and  C_12 
REMARK    3  A    between atoms: C_12  and  S_11 
ROOT
ATOM      1  S   UNL d   1      52.145  33.788  53.611  0.00  0.00    -0.058 SA
ENDROOT
BRANCH   1   2
ATOM      2  C   UNL d   1      51.587  33.980  53.027  0.00  0.00     0.164 A 
ATOM      3  S   UNL d   1      50.782  34.124  53.148  0.00  0.00    -0.039 SA
ATOM      4  C   UNL d   1      50.439  34.294  52.417  0.00  0.00     0.134 A 
ATOM      5  N   UNL d   1      51.032  34.255  51.838  0.00  0.00    -0.140 NA
ATOM      6  C   UNL d   1      49.639  34.473  52.275  0.00  0.00     0.030 C 
ATOM      7  N   UNL d   1      51.750  34.060  52.215  0.00  0.00    -0.134 NA
ENDBRANCH   1   2
BRANCH   1   8
ATOM      8  C   UNL d   1      52.873  33.465  53.395  0.00  0.00     0.057 C 
BRANCH   8   9
ATOM      9  C   UNL d   1      53.444  33.297  53.971  0.00  0.00     0.095 A 
ATOM     10  N   UNL d   1      53.990  33.813  54.275  0.00  0.00    -0.238 NA
ATOM     11  C   UNL d   1      54.440  33.416  54.824  0.00  0.00     0.111 A 
ATOM     12  C   UNL d   1      55.062  33.715  55.275  0.00  0.00     0.028 C 
ATOM     13  S   UNL d   1      54.171  32.651  54.859  0.00  0.00    -0.066 SA
ATOM     14  C   UNL d   1      53.560  32.576  54.336  0.00  0.00     0.057 A 
ENDBRANCH   8   9
ENDBRANCH   1   8
TORSDOF 3
ENDMDL
MODEL 4
REMARK VINA RESULT:      -6.3      1.316      3.878
REMARK  3 active torsions:
REMARK  status: ('A' for Active; 'I' for Inactive)
REMARK    1  A    between atoms: S_11  and  C_2 
REMARK    2  A    between atoms: C_7  and  C_12 
REMARK    3  A    between atoms: C_12  and  S_11 
ROOT
ATOM      1  S   UNL d   1      52.131  32.879  53.286  0.00  0.00    -0.058 SA
ENDROOT
BRANCH   1   2
ATOM      2  C   UNL d   1      51.641  33.461  52.953  0.00  0.00     0.164 A 
ATOM      3  S   UNL d   1      50.883  33.669  53.211  0.00  0.00    -0.039 SA
ATOM      4  C   UNL d   1      50.601  34.270  52.721  0.00  0.00     0.134 A 
ATOM      5  N   UNL d   1      51.185  34.436  52.154  0.00  0.00    -0.140 NA
ATOM      6  C   UNL d   1      49.862  34.648  52.776  0.00  0.00     0.030 C 
ATOM      7  N   UNL d   1      51.835  33.934  52.296  0.00  0.00    -0.134 NA
ENDBRANCH   1   2
BRANCH   1   8
ATOM      8  C   UNL d   1      52.553  32.366  52.798  0.00  0.00     0.057 C 
BRANCH   8   9
ATOM      9  C   UNL d   1      52.919  31.693  53.113  0.00  0.00     0.095 A 
ATOM     10  N   UNL d   1      52.676  30.926  53.026  0.00  0.00    -0.238 NA
ATOM     11  C   UNL d   1      53.196  30.444  53.426  0.00  0.00     0.111 A 
ATOM     12  C   UNL d   1      53.172  29.623  53.492  0.00  0.00     0.028 C 
ATOM     13  S   UNL d   1      53.764  30.918  53.762  0.00  0.00    -0.066 SA
ATOM     14  C   UNL d   1      53.595  31.685  53.570  0.00  0.00     0.057 A 
ENDBRANCH   8   9
ENDBRANCH   1   8
TORSDOF 3
ENDMDL
MODEL 5
REMARK VINA RESULT:      -6.1      2.202      2.725
REMARK  3 active torsions:
REMARK  status: ('A' for Active; 'I' for Inactive)
REMARK    1  A    between atoms: S_11  and  C_2 
REMARK    2  A    between atoms: C_7  and  C_12 
REMARK    3  A    between atoms: C_12  and  S_11 
ROOT
ATOM      1  S   UNL d   1      52.706  33.474  53.713  0.00  0.00    -0.058 SA
ENDROOT
BRANCH   1   2
ATOM      2  C   UNL d   1      53.479  33.372  54.000  0.00  0.00     0.164 A 
ATOM      3  S   UNL d   1      53.785  33.682  54.702  0.00  0.00    -0.039 SA
ATOM      4  C   UNL d   1      54.572  33.444  54.766  0.00  0.00     0.134 A 
ATOM      5  N   UNL d   1      54.758  32.984  54.101  0.00  0.00    -0.140 NA
ATOM      6  C   UNL d   1      55.097  33.628  55.386  0.00  0.00     0.030 C 
ATOM      7  N   UNL d   1      54.078  32.937  53.620  0.00  0.00    -0.134 NA
ENDBRANCH   1   2
BRANCH   1   8
ATOM      8  C   UNL d   1      52.524  34.122  53.237  0.00  0.00     0.057 C 
BRANCH   8   9
ATOM      9  C   UNL d   1      51.776  34.190  52.889  0.00  0.00     0.095 A 
ATOM     10  N   UNL d   1      51.101  34.462  53.244  0.00  0.00    -0.238 NA
ATOM     11  C   UNL d   1      50.496  34.435  52.701  0.00  0.00     0.111 A 
ATOM     12  C   UNL d   1      49.709  34.657  52.813  0.00  0.00     0.028 C 
ATOM     13  S   UNL d   1      50.799  34.144  52.006  0.00  0.00    -0.066 SA
ATOM     14  C   UNL d   1      51.584  33.993  52.120  0.00  0.00     0.057 A 
ENDBRANCH   8   9
ENDBRANCH   1   8
TORSDOF 3
ENDMDL
MODEL 6
REMARK VINA RESULT:      -4.6     10.416     10.983
REMARK  3 active torsions:
REMARK  status: ('A' for Active; 'I' for Inactive)
REMARK    1  A    between atoms: S_11  and  C_2 
REMARK    2  A    between atoms: C_7  and  C_12 
REMARK    3  A    between atoms: C_12  and  S_11 
ROOT
ATOM      1  S   UNL d   1      44.498  29.823  59.727  0.00  0.00    -0.058 SA
ENDROOT
BRANCH   1   2
ATOM      2  C   UNL d   1      44.557  30.262  60.430  0.00  0.00     0.164 A 
ATOM      3  S   UNL d   1      44.358  30.000  61.189  0.00  0.00    -0.039 SA
ATOM      4  C   UNL d   1      44.503  30.616  61.718  0.00  0.00     0.134 A 
ATOM      5  N   UNL d   1      44.793  31.264  61.288  0.00  0.00    -0.140 NA
ATOM      6  C   UNL d   1      44.383  30.599  62.542  0.00  0.00     0.030 C 
ATOM      7  N   UNL d   1      44.827  31.047  60.484  0.00  0.00    -0.134 NA
ENDBRANCH   1   2
BRANCH   1   8
ATOM      8  C   UNL d   1      45.101  29.862  59.166  0.00  0.00     0.057 C 
BRANCH   8   9
ATOM      9  C   UNL d   1      45.073  29.389  58.486  0.00  0.00     0.095 A 
ATOM     10  N   UNL d   1      45.303  28.615  58.427  0.00  0.00    -0.238 NA
ATOM     11  C   UNL d   1      45.180  28.368  57.661  0.00  0.00     0.111 A 
ATOM     12  C   UNL d   1      45.332  27.624  57.342  0.00  0.00     0.028 C 
ATOM     13  S   UNL d   1      44.872  28.995  57.246  0.00  0.00    -0.066 SA
ATOM     14  C   UNL d   1      44.806  29.621  57.751  0.00  0.00     0.057 A 
ENDBRANCH   8   9
ENDBRANCH   1   8
TORSDOF 3
ENDMDL
MODEL 7
REMARK VINA RESULT:      -4.5      9.605      9.941
REMARK  3 active torsions:
REMARK  status: ('A' for Active; 'I' for Inactive)
REMARK    1  A    between atoms: S_11  and  C_2 
REMARK    2  A    between atoms: C_7  and  C_12 
REMARK    3  A    between atoms: C_12  and  S_11 
ROOT
ATOM      1  S   UNL d   1      44.897  28.432  57.425  0.00  0.00    -0.058 SA
ENDROOT
BRANCH   1   2
ATOM      2  C   UNL d   1      44.986  27.689  57.062  0.00  0.00     0.164 A 
ATOM      3  S   UNL d   1      44.380  27.223  56.747  0.00  0.00    -0.039 SA
ATOM      4  C   UNL d   1      44.717  26.534  56.445  0.00  0.00     0.134 A 
ATOM      5  N   UNL d   1      45.537  26.570  56.571  0.00  0.00    -0.140 NA
ATOM      6  C   UNL d   1      44.315  25.906  56.075  0.00  0.00     0.030 C 
ATOM      7  N   UNL d   1      45.708  27.290  56.956  0.00  0.00    -0.134 NA
ENDBRANCH   1   2
BRANCH   1   8
ATOM      8  C   UNL d   1      45.263  28.583  58.148  0.00  0.00     0.057 C 
BRANCH   8   9
ATOM      9  C   UNL d   1      45.146  29.307  58.533  0.00  0.00     0.095 A 
ATOM     10  N   UNL d   1      45.035  29.419  59.327  0.00  0.00    -0.238 NA
ATOM     11  C   UNL d   1      44.943  30.216  59.464  0.00  0.00     0.111 A 
ATOM     12  C   UNL d   1      44.816  30.591  60.188  0.00  0.00     0.028 C 
ATOM     13  S   UNL d   1      44.998  30.598  58.750  0.00  0.00    -0.066 SA
ATOM     14  C   UNL d   1      45.123  30.042  58.178  0.00  0.00     0.057 A 
ENDBRANCH   8   9
ENDBRANCH   1   8
TORSDOF 3
ENDMDL
MODEL 8
REMARK VINA RESULT:      -4.4     10.099     10.294
REMARK  3 active torsions:
REMARK  status: ('A' for Active; 'I' for Inactive)
REMARK    1  A    between atoms: S_11  and  C_2 
REMARK    2  A    between atoms: C_7  and  C_12 
REMARK    3  A    between atoms: C_12  and  S_11 
ROOT
ATOM      1  S   UNL d   1      44.684  29.166  58.878  0.00  0.00    -0.058 SA
ENDROOT
BRANCH   1   2
ATOM      2  C   UNL d   1      44.905  28.745  58.197  0.00  0.00     0.164 A 
ATOM      3  S   UNL d   1      45.045  27.932  58.148  0.00  0.00    -0.039 SA
ATOM      4  C   UNL d   1      45.249  27.753  57.369  0.00  0.00     0.134 A 
ATOM      5  N   UNL d   1      45.236  28.457  56.930  0.00  0.00    -0.140 NA
ATOM      6  C   UNL d   1      45.436  27.000  57.067  0.00  0.00     0.030 C 
ATOM      7  N   UNL d   1      45.022  29.079  57.443  0.00  0.00    -0.134 NA
ENDBRANCH   1   2
BRANCH   1   8
ATOM      8  C   UNL d   1      45.075  29.865  59.074  0.00  0.00     0.057 C 
BRANCH   8   9
ATOM      9  C   UNL d   1      44.846  30.300  59.741  0.00  0.00     0.095 A 
ATOM     10  N   UNL d   1      45.006  30.118  60.514  0.00  0.00    -0.238 NA
ATOM     11  C   UNL d   1      44.678  30.694  60.987  0.00  0.00     0.111 A 
ATOM     12  C   UNL d   1      44.698  30.741  61.810  0.00  0.00     0.028 C 
ATOM     13  S   UNL d   1      44.314  31.235  60.502  0.00  0.00    -0.066 SA
ATOM     14  C   UNL d   1      44.417  30.994  59.738  0.00  0.00     0.057 A 
ENDBRANCH   8   9
ENDBRANCH   1   8
TORSDOF 3
ENDMDL
