MODEL 1
REMARK VINA RESULT:      13.9      0.000      0.000
REMARK  4 active torsions:
REMARK  status: ('A' for Active; 'I' for Inactive)
REMARK    1  A    between atoms: C_6  and  N_1 
REMARK    2  A    between atoms: C_9  and  C_2 
REMARK    3  A    between atoms: O_14  and  C_10 
REMARK    4  A    between atoms: C_15  and  O_14 
ROOT
ATOM      1  C   UNL d   1     -51.630  25.836  33.307  0.00  0.00     0.086 A 
ATOM      2  C   UNL d   1     -52.441  25.693  33.307  0.00  0.00     0.021 A 
ATOM      3  C   UNL d   1     -51.101  25.207  33.306  0.00  0.00     0.021 A 
ATOM      4  C   UNL d   1     -52.198  24.286  33.307  0.00  0.00     0.100 A 
ATOM      5  C   UNL d   1     -51.385  24.432  33.306  0.00  0.00     0.026 A 
ATOM      6  C   UNL d   1     -52.724  24.918  33.307  0.00  0.00     0.026 A 
ENDROOT
BRANCH   1   7
ATOM      7  N   UNL d   1     -51.346  26.610  33.307  0.00  0.00    -0.191 N 
ATOM      8  C   UNL d   1     -50.556  26.839  33.307  0.00  0.00     0.200 A 
ATOM      9  N   UNL d   1     -50.524  27.667  33.307  0.00  0.00    -0.107 NA
ATOM     10  N   UNL d   1     -51.287  27.946  33.307  0.00  0.00    -0.022 NA
ATOM     11  N   UNL d   1     -51.800  27.295  33.307  0.00  0.00    -0.039 NA
BRANCH   8  12
ATOM     12  C   UNL d   1     -49.896  26.331  33.307  0.00  0.00     0.109 C 
ATOM     13 CL   UNL d   1     -49.093  26.468  33.466  0.00  0.00    -0.078 Cl
ENDBRANCH   8  12
ENDBRANCH   1   7
BRANCH   4  14
ATOM     14  O   UNL d   1     -52.480  23.515  33.307  0.00  0.00    -0.305 OA
BRANCH  14  15
ATOM     15  C   UNL d   1     -53.162  23.325  33.728  0.00  0.00     0.123 C 
ATOM     16  C   UNL d   1     -53.881  23.213  33.329  0.00  0.00     0.029 C 
ENDBRANCH  14  15
ENDBRANCH   4  14
TORSDOF 4
ENDMDL
MODEL 2
REMARK VINA RESULT:      16.6      1.410      1.735
REMARK  4 active torsions:
REMARK  status: ('A' for Active; 'I' for Inactive)
REMARK    1  A    between atoms: C_6  and  N_1 
REMARK    2  A    between atoms: C_9  and  C_2 
REMARK    3  A    between atoms: O_14  and  C_10 
REMARK    4  A    between atoms: C_15  and  O_14 
ROOT
ATOM      1  C   UNL d   1     -51.227  24.542  33.616  0.00  0.00     0.086 A 
ATOM      2  C   UNL d   1     -51.860  24.870  34.027  0.00  0.00     0.021 A 
ATOM      3  C   UNL d   1     -51.286  23.783  33.306  0.00  0.00     0.021 A 
ATOM      4  C   UNL d   1     -52.618  23.678  33.821  0.00  0.00     0.100 A 
ATOM      5  C   UNL d   1     -51.982  23.351  33.409  0.00  0.00     0.026 A 
ATOM      6  C   UNL d   1     -52.556  24.438  34.130  0.00  0.00     0.026 A 
ENDROOT
BRANCH   1   7
ATOM      7  N   UNL d   1     -50.532  24.974  33.514  0.00  0.00    -0.191 N 
ATOM      8  C   UNL d   1     -50.477  25.783  33.377  0.00  0.00     0.200 A 
ATOM      9  N   UNL d   1     -49.676  25.982  33.308  0.00  0.00    -0.107 NA
ATOM     10  N   UNL d   1     -49.240  25.304  33.402  0.00  0.00    -0.022 NA
ATOM     11  N   UNL d   1     -49.766  24.675  33.530  0.00  0.00    -0.039 NA
BRANCH   8  12
ATOM     12  C   UNL d   1     -51.114  26.317  33.316  0.00  0.00     0.109 C 
ATOM     13 CL   UNL d   1     -51.266  27.041  33.692  0.00  0.00    -0.078 Cl
ENDBRANCH   8  12
ENDBRANCH   1   7
BRANCH   4  14
ATOM     14  O   UNL d   1     -53.310  23.248  33.923  0.00  0.00    -0.305 OA
BRANCH  14  15
ATOM     15  C   UNL d   1     -53.854  23.190  33.307  0.00  0.00     0.123 C 
ATOM     16  C   UNL d   1     -54.657  23.349  33.445  0.00  0.00     0.029 C 
ENDBRANCH  14  15
ENDBRANCH   4  14
TORSDOF 4
ENDMDL
