MODEL 1
REMARK VINA RESULT:     117.1      0.000      0.000
REMARK  6 active torsions:
REMARK  status: ('A' for Active; 'I' for Inactive)
REMARK    1  A    between atoms: C_10  and  N_6 
REMARK    2  A    between atoms: S_14  and  C_9 
REMARK    3  A    between atoms: C_17  and  C_10 
REMARK    4  A    between atoms: N_13  and  C_25 
REMARK    5  A    between atoms: C_20  and  S_14 
REMARK    6  A    between atoms: C_25  and  C_20 
ROOT
ATOM      1  C   UNL d   1     -55.383-101.681 -43.531  0.00  0.00     0.174 A 
ATOM      2  C   UNL d   1     -55.267-100.870 -43.394  0.00  0.00     0.158 A 
ATOM      3  N   UNL d   1     -55.558-102.038 -42.808  0.00  0.00    -0.203 NA
ATOM      4  N   UNL d   1     -55.312-101.983 -44.300  0.00  0.00    -0.240 N 
ATOM      5  N   UNL d   1     -55.013-100.671 -44.787  0.00  0.00    -0.223 N 
ATOM      6  N   UNL d   1     -55.372-100.732 -42.587  0.00  0.00    -0.279 N 
ATOM      7  C   UNL d   1     -55.129-101.482 -44.924  0.00  0.00     0.343 A 
ATOM      8  C   UNL d   1     -55.082-100.368 -44.026  0.00  0.00     0.287 A 
ATOM      9  C   UNL d   1     -55.550-101.455 -42.234  0.00  0.00     0.181 A 
ATOM     10  O   UNL d   1     -55.058-101.787 -45.696  0.00  0.00    -0.245 OA
ATOM     11  O   UNL d   1     -54.967 -99.561 -43.890  0.00  0.00    -0.265 OA
ATOM     12  C   UNL d   1     -55.428-102.789 -44.436  0.00  0.00     0.105 C 
ATOM     13  C   UNL d   1     -54.829-100.169 -45.415  0.00  0.00     0.107 C 
ENDROOT
BRANCH   9  14
ATOM     14  S   UNL d   1     -55.699-101.575 -41.421  0.00  0.00    -0.048 SA
BRANCH  14  15
ATOM     15  C   UNL d   1     -55.390-102.231 -41.039  0.00  0.00     0.057 C 
BRANCH  15  16
ATOM     16  C   UNL d   1     -55.887-102.714 -40.592  0.00  0.00     0.087 C 
BRANCH  16  17
ATOM     17  N   UNL d   1     -55.852-102.679 -39.773  0.00  0.00    -0.302 N 
ATOM     18  C   UNL d   1     -55.123-102.676 -39.395  0.00  0.00     0.080 A 
ATOM     19  C   UNL d   1     -55.087-102.642 -38.576  0.00  0.00     0.019 A 
ATOM     20  C   UNL d   1     -55.777-102.610 -38.136  0.00  0.00     0.003 A 
ATOM     21  C   UNL d   1     -56.506-102.614 -38.514  0.00  0.00     0.019 A 
ATOM     22  C   UNL d   1     -56.547-102.648 -39.335  0.00  0.00     0.080 A 
ENDBRANCH  16  17
ENDBRANCH  15  16
ENDBRANCH  14  15
ENDBRANCH   9  14
BRANCH   6  23
ATOM     23  C   UNL d   1     -55.307-100.000 -42.211  0.00  0.00     0.082 C 
BRANCH  23  24
ATOM     24  C   UNL d   1     -55.251 -99.954 -41.384  0.00  0.00     0.018 A 
ATOM     25  C   UNL d   1     -54.837-100.544 -40.980  0.00  0.00     0.002 A 
ATOM     26  C   UNL d   1     -54.775-100.508 -40.159  0.00  0.00     0.011 A 
ATOM     27  C   UNL d   1     -55.128 -99.882 -39.747  0.00  0.00     0.058 A 
ATOM     28  C   UNL d   1     -55.544 -99.289 -40.164  0.00  0.00     0.011 A 
ATOM     29 CL   UNL d   1     -55.068 -99.841 -38.925  0.00  0.00    -0.082 Cl
ATOM     30  C   UNL d   1     -55.599 -99.337 -40.984  0.00  0.00     0.002 A 
ENDBRANCH  23  24
ENDBRANCH   6  23
TORSDOF 6
ENDMDL
