MODEL 1
REMARK VINA RESULT:      16.4      0.000      0.000
REMARK  7 active torsions:
REMARK  status: ('A' for Active; 'I' for Inactive)
REMARK    1  A    between atoms: N_4  and  C_2 
REMARK    2  A    between atoms: C_8  and  C_3 
REMARK       I    between atoms: C_7  and  N_4 
REMARK    3  A    between atoms: C_13  and  C_7 
REMARK    4  A    between atoms: S_11  and  C_16 
REMARK    5  A    between atoms: C_12  and  S_11 
REMARK    6  A    between atoms: C_19  and  C_13 
REMARK    7  A    between atoms: C_16  and  C_19 
ROOT
ATOM      1  N   UNL d   1      45.355 -16.314  43.542  0.00  0.00    -0.183 NA
ATOM      2  C   UNL d   1      45.306 -15.911  44.267  0.00  0.00     0.281 C 
ATOM      3  O   UNL d   1      45.616 -16.234  44.949  0.00  0.00    -0.265 OA
ENDROOT
BRANCH   1   4
ATOM      4  C   UNL d   1      45.725 -17.053  43.519  0.00  0.00     0.197 A 
ATOM      5  N   UNL d   1      45.713 -17.581  42.882  0.00  0.00    -0.219 NA
ATOM      6  C   UNL d   1      46.153 -18.245  43.103  0.00  0.00     0.108 A 
ATOM      7  C   UNL d   1      46.433 -18.125  43.870  0.00  0.00     0.059 A 
ATOM      8  S   UNL d   1      46.170 -17.390  44.131  0.00  0.00    -0.046 SA
BRANCH   6   9
ATOM      9  C   UNL d   1      46.286 -18.902  42.641  0.00  0.00     0.100 A 
ATOM     10  N   UNL d   1      46.370 -18.821  41.816  0.00  0.00    -0.242 NA
ATOM     11  C   UNL d   1      46.505 -19.493  41.354  0.00  0.00     0.099 A 
ATOM     12  C   UNL d   1      46.556 -20.236  41.707  0.00  0.00     0.021 A 
ATOM     13  C   UNL d   1      46.473 -20.311  42.526  0.00  0.00     0.003 A 
ATOM     14  C   UNL d   1      46.338 -19.642  42.993  0.00  0.00     0.021 A 
ENDBRANCH   6   9
ENDBRANCH   1   4
BRANCH   2  15
ATOM     15  C   UNL d   1      44.934 -15.171  44.287  0.00  0.00     0.063 C 
BRANCH  15  16
ATOM     16  C   UNL d   1      45.142 -14.625  44.877  0.00  0.00     0.012 C 
BRANCH  16  17
ATOM     17  C   UNL d   1      45.026 -13.820  44.756  0.00  0.00     0.036 C 
BRANCH  17  18
ATOM     18  S   UNL d   1      44.694 -13.550  44.058  0.00  0.00    -0.086 SA
BRANCH  18  19
ATOM     19  C   UNL d   1      45.127 -13.059  43.556  0.00  0.00     0.029 A 
ATOM     20  C   UNL d   1      45.935 -12.951  43.685  0.00  0.00     0.005 A 
ATOM     21  C   UNL d   1      46.371 -12.462  43.185  0.00  0.00    -0.012 A 
ATOM     22  C   UNL d   1      46.000 -12.080  42.555  0.00  0.00     0.026 A 
ATOM     23  C   UNL d   1      45.194 -12.187  42.426  0.00  0.00    -0.012 A 
ATOM     24  C   UNL d   1      44.755 -12.677  42.926  0.00  0.00     0.005 A 
ENDBRANCH  18  19
ENDBRANCH  17  18
ENDBRANCH  16  17
ENDBRANCH  15  16
ENDBRANCH   2  15
TORSDOF 7
ENDMDL
