MODEL 1
REMARK VINA RESULT:      -8.9      0.000      0.000
REMARK  4 active torsions:
REMARK  status: ('A' for Active; 'I' for Inactive)
REMARK    1  A    between atoms: C_8  and  C_1 
REMARK    2  A    between atoms: C_6  and  C_2 
REMARK    3  A    between atoms: O_17  and  C_8 
REMARK    4  A    between atoms: C_20  and  O_17 
ROOT
ATOM      1  C   UNL d   1      53.309  33.805  54.290  0.00  0.00     0.099 A 
ATOM      2  C   UNL d   1      53.817  33.178  54.374  0.00  0.00     0.093 A 
ATOM      3  C   UNL d   1      53.486  34.532  54.636  0.00  0.00     0.093 A 
ATOM      4  C   UNL d   1      54.690  33.973  55.147  0.00  0.00     0.369 A 
ATOM      5  N   UNL d   1      54.176  34.613  55.063  0.00  0.00    -0.191 NA
ATOM      6  N   UNL d   1      54.508  33.265  54.804  0.00  0.00    -0.191 NA
ATOM      7  O   UNL d   1      55.401  34.043  55.583  0.00  0.00    -0.242 OA
ATOM      8  C   UNL d   1      52.966  35.185  54.554  0.00  0.00     0.021 C 
ENDROOT
BRANCH   2   9
ATOM      9  C   UNL d   1      53.630  32.252  53.955  0.00  0.00     0.029 A 
ATOM     10  C   UNL d   1      54.155  32.034  53.372  0.00  0.00     0.060 A 
ATOM     11  C   UNL d   1      53.996  31.269  53.030  0.00  0.00     0.023 A 
ATOM     12 CL   UNL d   1      54.762  32.455  53.118  0.00  0.00    -0.082 Cl
ATOM     13  C   UNL d   1      53.342  30.825  53.310  0.00  0.00     0.059 A 
ATOM     14  C   UNL d   1      52.866  31.110  53.894  0.00  0.00     0.011 A 
ATOM     15 CL   UNL d   1      53.176  30.075  52.984  0.00  0.00    -0.082 Cl
ATOM     16  C   UNL d   1      53.009  31.855  54.237  0.00  0.00     0.003 A 
ENDBRANCH   2   9
BRANCH   1  17
ATOM     17  C   UNL d   1      52.617  33.700  53.853  0.00  0.00     0.303 C 
ATOM     18  O   UNL d   1      51.959  33.332  54.167  0.00  0.00    -0.259 OA
BRANCH  17  19
ATOM     19  O   UNL d   1      52.573  33.977  53.048  0.00  0.00    -0.271 OA
BRANCH  19  20
ATOM     20  C   UNL d   1      51.811  34.162  52.727  0.00  0.00     0.126 C 
ATOM     21  C   UNL d   1      51.720  34.263  51.914  0.00  0.00     0.029 C 
ENDBRANCH  19  20
ENDBRANCH  17  19
ENDBRANCH   1  17
TORSDOF 4
ENDMDL
MODEL 2
REMARK VINA RESULT:      -8.8      1.670      2.866
REMARK  4 active torsions:
REMARK  status: ('A' for Active; 'I' for Inactive)
REMARK    1  A    between atoms: C_8  and  C_1 
REMARK    2  A    between atoms: C_6  and  C_2 
REMARK    3  A    between atoms: O_17  and  C_8 
REMARK    4  A    between atoms: C_20  and  O_17 
ROOT
ATOM      1  C   UNL d   1      53.354  32.980  53.789  0.00  0.00     0.099 A 
ATOM      2  C   UNL d   1      52.885  33.624  53.942  0.00  0.00     0.093 A 
ATOM      3  C   UNL d   1      54.055  32.869  54.208  0.00  0.00     0.093 A 
ATOM      4  C   UNL d   1      53.791  34.066  54.929  0.00  0.00     0.369 A 
ATOM      5  N   UNL d   1      54.271  33.412  54.776  0.00  0.00    -0.191 NA
ATOM      6  N   UNL d   1      53.106  34.166  54.513  0.00  0.00    -0.191 NA
ATOM      7  O   UNL d   1      54.001  34.631  55.509  0.00  0.00    -0.242 OA
ATOM      8  C   UNL d   1      54.545  32.205  54.056  0.00  0.00     0.021 C 
ENDROOT
BRANCH   2   9
ATOM      9  C   UNL d   1      51.999  33.798  53.438  0.00  0.00     0.029 A 
ATOM     10  C   UNL d   1      52.034  34.402  52.894  0.00  0.00     0.060 A 
ATOM     11  C   UNL d   1      51.300  34.542  52.481  0.00  0.00     0.023 A 
ATOM     12 CL   UNL d   1      52.661  34.840  52.732  0.00  0.00    -0.082 Cl
ATOM     13  C   UNL d   1      50.634  34.066  52.663  0.00  0.00     0.059 A 
ATOM     14  C   UNL d   1      50.678  33.484  53.218  0.00  0.00     0.011 A 
ATOM     15 CL   UNL d   1      49.911  34.193  52.266  0.00  0.00    -0.082 Cl
ATOM     16  C   UNL d   1      51.387  33.337  53.628  0.00  0.00     0.003 A 
ENDBRANCH   2   9
BRANCH   1  17
ATOM     17  C   UNL d   1      53.115  32.443  53.209  0.00  0.00     0.303 C 
ATOM     18  O   UNL d   1      53.202  32.599  52.413  0.00  0.00    -0.259 OA
BRANCH  17  19
ATOM     19  O   UNL d   1      52.764  31.700  53.434  0.00  0.00    -0.271 OA
BRANCH  19  20
ATOM     20  C   UNL d   1      52.826  31.047  52.898  0.00  0.00     0.126 C 
ATOM     21  C   UNL d   1      52.512  30.313  53.103  0.00  0.00     0.029 C 
ENDBRANCH  19  20
ENDBRANCH  17  19
ENDBRANCH   1  17
TORSDOF 4
ENDMDL
MODEL 3
REMARK VINA RESULT:      -8.7      1.639      2.846
REMARK  4 active torsions:
REMARK  status: ('A' for Active; 'I' for Inactive)
REMARK    1  A    between atoms: C_8  and  C_1 
REMARK    2  A    between atoms: C_6  and  C_2 
REMARK    3  A    between atoms: O_17  and  C_8 
REMARK    4  A    between atoms: C_20  and  O_17 
ROOT
ATOM      1  C   UNL d   1      52.779  32.158  53.475  0.00  0.00     0.099 A 
ATOM      2  C   UNL d   1      53.503  31.952  53.778  0.00  0.00     0.093 A 
ATOM      3  C   UNL d   1      52.316  31.597  53.088  0.00  0.00     0.093 A 
ATOM      4  C   UNL d   1      53.330  30.627  53.322  0.00  0.00     0.369 A 
ATOM      5  N   UNL d   1      52.594  30.833  53.013  0.00  0.00    -0.191 NA
ATOM      6  N   UNL d   1      53.776  31.185  53.700  0.00  0.00    -0.191 NA
ATOM      7  O   UNL d   1      53.626  29.848  53.252  0.00  0.00    -0.242 OA
ATOM      8  C   UNL d   1      51.566  31.802  52.772  0.00  0.00     0.021 C 
ENDROOT
BRANCH   2   9
ATOM      9  C   UNL d   1      54.112  32.627  54.269  0.00  0.00     0.029 A 
ATOM     10  C   UNL d   1      54.771  32.854  53.849  0.00  0.00     0.060 A 
ATOM     11  C   UNL d   1      55.271  33.411  54.259  0.00  0.00     0.023 A 
ATOM     12 CL   UNL d   1      54.968  32.610  53.133  0.00  0.00    -0.082 Cl
ATOM     13  C   UNL d   1      55.051  33.666  55.027  0.00  0.00     0.059 A 
ATOM     14  C   UNL d   1      54.379  33.394  55.379  0.00  0.00     0.011 A 
ATOM     15 CL   UNL d   1      55.531  34.211  55.439  0.00  0.00    -0.082 Cl
ATOM     16  C   UNL d   1      53.883  32.851  54.991  0.00  0.00     0.003 A 
ENDBRANCH   2   9
BRANCH   1  17
ATOM     17  C   UNL d   1      52.519  32.937  53.563  0.00  0.00     0.303 C 
ATOM     18  O   UNL d   1      52.225  33.217  54.270  0.00  0.00    -0.259 OA
BRANCH  17  19
ATOM     19  O   UNL d   1      52.553  33.475  52.903  0.00  0.00    -0.271 OA
BRANCH  19  20
ATOM     20  C   UNL d   1      52.019  34.133  52.892  0.00  0.00     0.126 C 
ATOM     21  C   UNL d   1      52.102  34.723  52.322  0.00  0.00     0.029 C 
ENDBRANCH  19  20
ENDBRANCH  17  19
ENDBRANCH   1  17
TORSDOF 4
ENDMDL
MODEL 4
REMARK VINA RESULT:      -8.2      2.016      3.425
REMARK  4 active torsions:
REMARK  status: ('A' for Active; 'I' for Inactive)
REMARK    1  A    between atoms: C_8  and  C_1 
REMARK    2  A    between atoms: C_6  and  C_2 
REMARK    3  A    between atoms: O_17  and  C_8 
REMARK    4  A    between atoms: C_20  and  O_17 
ROOT
ATOM      1  C   UNL d   1      53.160  32.966  53.342  0.00  0.00     0.099 A 
ATOM      2  C   UNL d   1      52.480  32.711  52.980  0.00  0.00     0.093 A 
ATOM      3  C   UNL d   1      53.782  32.441  53.473  0.00  0.00     0.093 A 
ATOM      4  C   UNL d   1      53.013  31.409  52.869  0.00  0.00     0.369 A 
ATOM      5  N   UNL d   1      53.705  31.665  53.236  0.00  0.00    -0.191 NA
ATOM      6  N   UNL d   1      52.409  31.931  52.744  0.00  0.00    -0.191 NA
ATOM      7  O   UNL d   1      52.922  30.615  52.621  0.00  0.00    -0.242 OA
ATOM      8  C   UNL d   1      54.488  32.698  53.847  0.00  0.00     0.021 C 
ENDROOT
BRANCH   2   9
ATOM      9  C   UNL d   1      51.679  33.337  52.797  0.00  0.00     0.029 A 
ATOM     10  C   UNL d   1      51.010  33.162  53.226  0.00  0.00     0.060 A 
ATOM     11  C   UNL d   1      50.351  33.683  53.071  0.00  0.00     0.023 A 
ATOM     12 CL   UNL d   1      50.932  32.581  53.742  0.00  0.00    -0.082 Cl
ATOM     13  C   UNL d   1      50.445  34.304  52.515  0.00  0.00     0.059 A 
ATOM     14  C   UNL d   1      51.143  34.413  52.128  0.00  0.00     0.011 A 
ATOM     15 CL   UNL d   1      49.808  34.819  52.354  0.00  0.00    -0.082 Cl
ATOM     16  C   UNL d   1      51.793  33.914  52.269  0.00  0.00     0.003 A 
ENDBRANCH   2   9
BRANCH   1  17
ATOM     17  C   UNL d   1      53.214  33.757  53.572  0.00  0.00     0.303 C 
ATOM     18  O   UNL d   1      53.389  34.351  53.042  0.00  0.00    -0.259 OA
BRANCH  17  19
ATOM     19  O   UNL d   1      53.084  33.974  54.387  0.00  0.00    -0.271 OA
BRANCH  19  20
ATOM     20  C   UNL d   1      53.434  34.691  54.673  0.00  0.00     0.126 C 
ATOM     21  C   UNL d   1      53.180  35.017  55.386  0.00  0.00     0.029 C 
ENDBRANCH  19  20
ENDBRANCH  17  19
ENDBRANCH   1  17
TORSDOF 4
ENDMDL
MODEL 5
REMARK VINA RESULT:      -8.1      1.439      2.563
REMARK  4 active torsions:
REMARK  status: ('A' for Active; 'I' for Inactive)
REMARK    1  A    between atoms: C_8  and  C_1 
REMARK    2  A    between atoms: C_6  and  C_2 
REMARK    3  A    between atoms: O_17  and  C_8 
REMARK    4  A    between atoms: C_20  and  O_17 
ROOT
ATOM      1  C   UNL d   1      52.815  33.734  53.588  0.00  0.00     0.099 A 
ATOM      2  C   UNL d   1      52.599  33.172  53.044  0.00  0.00     0.093 A 
ATOM      3  C   UNL d   1      52.587  34.520  53.485  0.00  0.00     0.093 A 
ATOM      4  C   UNL d   1      51.927  34.150  52.280  0.00  0.00     0.369 A 
ATOM      5  N   UNL d   1      52.144  34.725  52.831  0.00  0.00    -0.191 NA
ATOM      6  N   UNL d   1      52.155  33.384  52.391  0.00  0.00    -0.191 NA
ATOM      7  O   UNL d   1      51.473  34.348  51.606  0.00  0.00    -0.242 OA
ATOM      8  C   UNL d   1      52.806  35.107  54.043  0.00  0.00     0.021 C 
ENDROOT
BRANCH   2   9
ATOM      9  C   UNL d   1      52.865  32.178  53.138  0.00  0.00     0.029 A 
ATOM     10  C   UNL d   1      52.239  31.673  53.264  0.00  0.00     0.060 A 
ATOM     11  C   UNL d   1      52.464  30.853  53.341  0.00  0.00     0.023 A 
ATOM     12 CL   UNL d   1      51.486  31.876  53.317  0.00  0.00    -0.082 Cl
ATOM     13  C   UNL d   1      53.274  30.646  53.282  0.00  0.00     0.059 A 
ATOM     14  C   UNL d   1      53.839  31.207  53.156  0.00  0.00     0.011 A 
ATOM     15 CL   UNL d   1      53.507  29.848  53.356  0.00  0.00    -0.082 Cl
ATOM     16  C   UNL d   1      53.634  32.009  53.079  0.00  0.00     0.003 A 
ENDBRANCH   2   9
BRANCH   1  17
ATOM     17  C   UNL d   1      53.263  33.503  54.241  0.00  0.00     0.303 C 
ATOM     18  O   UNL d   1      52.927  33.142  54.891  0.00  0.00    -0.259 OA
BRANCH  17  19
ATOM     19  O   UNL d   1      54.105  33.640  54.252  0.00  0.00    -0.271 OA
BRANCH  19  20
ATOM     20  C   UNL d   1      54.495  33.690  55.002  0.00  0.00     0.126 C 
ATOM     21  C   UNL d   1      55.312  33.798  55.035  0.00  0.00     0.029 C 
ENDBRANCH  19  20
ENDBRANCH  17  19
ENDBRANCH   1  17
TORSDOF 4
ENDMDL
MODEL 6
REMARK VINA RESULT:      -6.9      1.830      3.316
REMARK  4 active torsions:
REMARK  status: ('A' for Active; 'I' for Inactive)
REMARK    1  A    between atoms: C_8  and  C_1 
REMARK    2  A    between atoms: C_6  and  C_2 
REMARK    3  A    between atoms: O_17  and  C_8 
REMARK    4  A    between atoms: C_20  and  O_17 
ROOT
ATOM      1  C   UNL d   1      52.646  32.622  53.269  0.00  0.00     0.099 A 
ATOM      2  C   UNL d   1      52.870  33.323  53.611  0.00  0.00     0.093 A 
ATOM      3  C   UNL d   1      51.910  32.554  52.904  0.00  0.00     0.093 A 
ATOM      4  C   UNL d   1      51.641  33.910  53.240  0.00  0.00     0.369 A 
ATOM      5  N   UNL d   1      51.410  33.199  52.892  0.00  0.00    -0.191 NA
ATOM      6  N   UNL d   1      52.364  33.966  53.595  0.00  0.00    -0.191 NA
ATOM      7  O   UNL d   1      51.138  34.579  53.234  0.00  0.00    -0.242 OA
ATOM      8  C   UNL d   1      51.671  31.833  52.549  0.00  0.00     0.021 C 
ENDROOT
BRANCH   2   9
ATOM      9  C   UNL d   1      53.784  33.447  54.077  0.00  0.00     0.029 A 
ATOM     10  C   UNL d   1      53.736  33.632  54.868  0.00  0.00     0.060 A 
ATOM     11  C   UNL d   1      54.493  33.733  55.249  0.00  0.00     0.023 A 
ATOM     12 CL   UNL d   1      53.079  33.719  55.282  0.00  0.00    -0.082 Cl
ATOM     13  C   UNL d   1      55.192  33.638  54.795  0.00  0.00     0.059 A 
ATOM     14  C   UNL d   1      55.158  33.453  54.012  0.00  0.00     0.011 A 
ATOM     15 CL   UNL d   1      55.939  33.734  55.155  0.00  0.00    -0.082 Cl
ATOM     16  C   UNL d   1      54.426  33.352  53.629  0.00  0.00     0.003 A 
ENDBRANCH   2   9
BRANCH   1  17
ATOM     17  C   UNL d   1      53.168  31.983  53.295  0.00  0.00     0.303 C 
ATOM     18  O   UNL d   1      53.811  31.930  52.795  0.00  0.00    -0.259 OA
BRANCH  17  19
ATOM     19  O   UNL d   1      53.045  31.352  53.855  0.00  0.00    -0.271 OA
BRANCH  19  20
ATOM     20  C   UNL d   1      53.374  30.591  53.683  0.00  0.00     0.126 C 
ATOM     21  C   UNL d   1      53.323  29.984  54.239  0.00  0.00     0.029 C 
ENDBRANCH  19  20
ENDBRANCH  17  19
ENDBRANCH   1  17
TORSDOF 4
ENDMDL
