MODEL 1
REMARK VINA RESULT:      39.1      0.000      0.000
REMARK  5 active torsions:
REMARK  status: ('A' for Active; 'I' for Inactive)
REMARK    1  A    between atoms: N_2  and  S_1 
REMARK    2  A    between atoms: C_5  and  S_1 
REMARK    3  A    between atoms: C_4  and  C_3 
REMARK       I    between atoms: N_6  and  C_4 
REMARK    4  A    between atoms: C_12  and  N_6 
REMARK    5  A    between atoms: O_23  and  C_15 
ROOT
ATOM      1  N   UNL d   1      14.513  13.119  -0.772  0.00  0.00    -0.226 N 
ATOM      2  C   UNL d   1      14.327  12.507  -1.298  0.00  0.00     0.133 A 
ATOM      3  C   UNL d   1      14.582  12.800  -0.017  0.00  0.00     0.092 A 
ATOM      4  C   UNL d   1      14.282  11.809  -0.854  0.00  0.00     0.025 A 
ATOM      5  C   UNL d   1      14.439  11.994  -0.066  0.00  0.00     0.021 A 
ENDROOT
BRANCH   2   6
ATOM      6  C   UNL d   1      14.210  12.584  -2.107  0.00  0.00     0.296 C 
ATOM      7  N   UNL d   1      13.566  12.197  -2.460  0.00  0.00    -0.207 NA
ATOM      8  O   UNL d   1      14.723  13.037  -2.564  0.00  0.00    -0.264 OA
BRANCH   7   9
ATOM      9  C   UNL d   1      13.447  12.274  -3.277  0.00  0.00     0.085 A 
ATOM     10  C   UNL d   1      13.854  11.779  -3.802  0.00  0.00     0.021 A 
ATOM     11  C   UNL d   1      13.732  11.859  -4.617  0.00  0.00     0.026 A 
ATOM     12  C   UNL d   1      13.208  12.427  -4.900  0.00  0.00     0.094 A 
ATOM     13  C   UNL d   1      12.801  12.921  -4.372  0.00  0.00     0.026 A 
ATOM     14  C   UNL d   1      12.923  12.843  -3.561  0.00  0.00     0.021 A 
BRANCH  12  15
ATOM     15  O   UNL d   1      13.083  12.510  -5.714  0.00  0.00    -0.328 OA
ATOM     16  C   UNL d   1      13.567  12.094  -6.242  0.00  0.00     0.181 C 
ENDBRANCH  12  15
ENDBRANCH   7   9
ENDBRANCH   2   6
BRANCH   1  17
ATOM     17  S   UNL d   1      14.602  13.899  -1.030  0.00  0.00     0.271 S 
ATOM     18  O   UNL d   1      15.399  13.732  -1.091  0.00  0.00    -0.200 OA
ATOM     19  O   UNL d   1      13.786  14.059  -0.964  0.00  0.00    -0.200 OA
BRANCH  17  20
ATOM     20  C   UNL d   1      14.730  14.668  -1.289  0.00  0.00     0.104 A 
ATOM     21  C   UNL d   1      14.546  14.880  -2.066  0.00  0.00     0.013 A 
ATOM     22  C   UNL d   1      14.678  15.654  -2.319  0.00  0.00     0.001 A 
ATOM     23  C   UNL d   1      14.993  16.215  -1.798  0.00  0.00     0.000 A 
ATOM     24  C   UNL d   1      15.178  16.000  -1.016  0.00  0.00     0.001 A 
ATOM     25  C   UNL d   1      15.126  16.990  -2.047  0.00  0.00     0.000 C 
ATOM     26  C   UNL d   1      15.045  15.225  -0.767  0.00  0.00     0.013 A 
ENDBRANCH  17  20
ENDBRANCH   1  17
TORSDOF 5
ENDMDL
MODEL 2
REMARK VINA RESULT:      40.2      1.516      3.986
REMARK  5 active torsions:
REMARK  status: ('A' for Active; 'I' for Inactive)
REMARK    1  A    between atoms: N_2  and  S_1 
REMARK    2  A    between atoms: C_5  and  S_1 
REMARK    3  A    between atoms: C_4  and  C_3 
REMARK       I    between atoms: N_6  and  C_4 
REMARK    4  A    between atoms: C_12  and  N_6 
REMARK    5  A    between atoms: O_23  and  C_15 
ROOT
ATOM      1  N   UNL d   1      13.298  12.323  -3.810  0.00  0.00    -0.226 N 
ATOM      2  C   UNL d   1      13.247  13.081  -4.137  0.00  0.00     0.133 A 
ATOM      3  C   UNL d   1      13.046  11.780  -4.374  0.00  0.00     0.092 A 
ATOM      4  C   UNL d   1      12.960  12.995  -4.910  0.00  0.00     0.025 A 
ATOM      5  C   UNL d   1      12.837  12.192  -5.051  0.00  0.00     0.021 A 
ENDROOT
BRANCH   2   6
ATOM      6  C   UNL d   1      13.445  13.785  -3.762  0.00  0.00     0.296 C 
ATOM      7  N   UNL d   1      14.062  14.245  -4.069  0.00  0.00    -0.207 NA
ATOM      8  O   UNL d   1      13.038  14.030  -3.090  0.00  0.00    -0.264 OA
BRANCH   7   9
ATOM      9  C   UNL d   1      14.264  14.956  -3.691  0.00  0.00     0.085 A 
ATOM     10  C   UNL d   1      14.290  14.990  -2.864  0.00  0.00     0.021 A 
ATOM     11  C   UNL d   1      14.492  15.701  -2.491  0.00  0.00     0.026 A 
ATOM     12  C   UNL d   1      14.664  16.368  -2.941  0.00  0.00     0.094 A 
ATOM     13  C   UNL d   1      14.636  16.331  -3.770  0.00  0.00     0.026 A 
ATOM     14  C   UNL d   1      14.436  15.623  -4.143  0.00  0.00     0.021 A 
BRANCH  12  15
ATOM     15  O   UNL d   1      14.865  17.080  -2.572  0.00  0.00    -0.328 OA
ATOM     16  C   UNL d   1      15.059  17.078  -1.767  0.00  0.00     0.181 C 
ENDBRANCH  12  15
ENDBRANCH   7   9
ENDBRANCH   2   6
BRANCH   1  17
ATOM     17  S   UNL d   1      13.567  12.202  -3.037  0.00  0.00     0.271 S 
ATOM     18  O   UNL d   1      14.285  12.489  -3.299  0.00  0.00    -0.200 OA
ATOM     19  O   UNL d   1      12.830  11.910  -2.781  0.00  0.00    -0.200 OA
BRANCH  17  20
ATOM     20  C   UNL d   1      13.871  12.096  -2.282  0.00  0.00     0.104 A 
ATOM     21  C   UNL d   1      13.365  11.934  -1.650  0.00  0.00     0.013 A 
ATOM     22  C   UNL d   1      13.677  11.829  -0.894  0.00  0.00     0.001 A 
ATOM     23  C   UNL d   1      14.494  11.885  -0.769  0.00  0.00     0.000 A 
ATOM     24  C   UNL d   1      15.003  12.048  -1.406  0.00  0.00     0.001 A 
ATOM     25  C   UNL d   1      14.811  11.780  -0.014  0.00  0.00     0.000 C 
ATOM     26  C   UNL d   1      14.686  12.153  -2.161  0.00  0.00     0.013 A 
ENDBRANCH  17  20
ENDBRANCH   1  17
TORSDOF 5
ENDMDL
