MODEL 1
REMARK VINA RESULT:      61.4      0.000      0.000
REMARK  3 active torsions:
REMARK  status: ('A' for Active; 'I' for Inactive)
REMARK    1  A    between atoms: N_2  and  C_1 
REMARK    2  A    between atoms: C_4  and  C_8 
REMARK    3  A    between atoms: N_14  and  C_5 
ROOT
ATOM      1  C   UNL d   1      60.766  48.641  50.622  0.00  0.00     0.143 A 
ATOM      2  C   UNL d   1      60.861  48.648  51.439  0.00  0.00     0.086 A 
ATOM      3  C   UNL d   1      60.941  47.955  50.188  0.00  0.00     0.027 A 
ATOM      4  C   UNL d   1      61.214  47.275  50.583  0.00  0.00     0.021 A 
ATOM      5  C   UNL d   1      61.130  47.975  51.829  0.00  0.00     0.019 A 
ATOM      6  C   UNL d   1      61.308  47.286  51.407  0.00  0.00     0.003 A 
ENDROOT
BRANCH   4   7
ATOM      7  C   UNL d   1      61.389  46.593  50.156  0.00  0.00     0.103 A 
ATOM      8  N   UNL d   1      61.901  46.631  49.509  0.00  0.00    -0.145 NA
ATOM      9  N   UNL d   1      62.076  45.950  49.083  0.00  0.00    -0.106 NA
ATOM     10  C   UNL d   1      61.741  45.230  49.301  0.00  0.00     0.297 A 
ATOM     11  C   UNL d   1      61.229  45.192  49.948  0.00  0.00     0.066 A 
ATOM     12  O   UNL d   1      61.916  44.548  48.874  0.00  0.00    -0.264 OA
ATOM     13  C   UNL d   1      61.050  45.877  50.381  0.00  0.00     0.024 A 
ATOM     14  C   UNL d   1      60.540  45.837  51.024  0.00  0.00     0.002 C 
ENDBRANCH   4   7
BRANCH   1  15
ATOM     15  N   UNL d   1      60.495  49.314  50.222  0.00  0.00    -0.112 N 
ATOM     16  O   UNL d   1      61.006  49.708  49.701  0.00  0.00    -0.532 OA
ATOM     17  O   UNL d   1      59.729  49.590  50.339  0.00  0.00    -0.532 OA
ENDBRANCH   1  15
BRANCH   2  18
ATOM     18  N   UNL d   1      60.685  49.329  51.864  0.00  0.00    -0.300 N 
ATOM     19  C   UNL d   1      61.276  49.706  52.295  0.00  0.00     0.100 C 
ATOM     20  C   UNL d   1      59.920  49.633  51.860  0.00  0.00     0.100 C 
ENDBRANCH   2  18
TORSDOF 3
ENDMDL
