MODEL 1
REMARK VINA RESULT:       1.1      0.000      0.000
REMARK  5 active torsions:
REMARK  status: ('A' for Active; 'I' for Inactive)
REMARK       I    between atoms: N_3  and  C_1 
REMARK    1  A    between atoms: C_4  and  C_1 
REMARK    2  A    between atoms: N_2  and  C_4 
REMARK       I    between atoms: C_5  and  N_2 
REMARK    3  A    between atoms: C_18  and  C_4 
REMARK    4  A    between atoms: C_9  and  C_5 
REMARK    5  A    between atoms: C_7  and  N_6 
ROOT
ATOM      1  C   UNL d   1     -42.499-121.590 -51.203  0.00  0.00     0.283 C 
ATOM      2  N   UNL d   1     -42.396-121.962 -50.474  0.00  0.00    -0.268 N 
ATOM      3  N   UNL d   1     -42.191-122.701 -49.022  0.00  0.00    -0.286 N 
ATOM      4  O   UNL d   1     -43.254-121.385 -51.464  0.00  0.00    -0.265 OA
ATOM      5  C   UNL d   1     -41.640-122.164 -50.220  0.00  0.00     0.102 A 
ATOM      6  C   UNL d   1     -43.055-122.127 -50.006  0.00  0.00     0.102 A 
ATOM      7  C   UNL d   1     -42.949-122.500 -49.274  0.00  0.00     0.101 A 
ATOM      8  C   UNL d   1     -41.543-122.534 -49.491  0.00  0.00     0.101 A 
ENDROOT
BRANCH   1   9
ATOM      9  C   UNL d   1     -41.840-121.425 -51.672  0.00  0.00     0.141 C 
BRANCH   9  10
ATOM     10  N   UNL d   1     -41.638-121.932 -52.297  0.00  0.00    -0.203 NA
ATOM     11  C   UNL d   1     -41.944-121.798 -53.048  0.00  0.00     0.279 C 
ATOM     12  O   UNL d   1     -42.448-121.166 -53.182  0.00  0.00    -0.265 OA
BRANCH  11  13
ATOM     13  C   UNL d   1     -41.741-122.304 -53.668  0.00  0.00     0.058 A 
ATOM     14  C   UNL d   1     -41.543-123.086 -53.517  0.00  0.00     0.005 A 
ATOM     15  C   UNL d   1     -41.340-123.593 -54.128  0.00  0.00     0.000 A 
ATOM     16  C   UNL d   1     -41.336-123.314 -54.905  0.00  0.00     0.000 A 
ATOM     17  C   UNL d   1     -41.533-122.528 -55.072  0.00  0.00     0.000 A 
ATOM     18  C   UNL d   1     -41.133-123.817 -55.532  0.00  0.00     0.000 C 
ATOM     19  C   UNL d   1     -41.736-122.025 -54.445  0.00  0.00     0.005 A 
ENDBRANCH  11  13
ENDBRANCH   9  10
BRANCH   9  20
ATOM     20  C   UNL d   1     -41.379-120.763 -51.526  0.00  0.00     0.022 C 
ATOM     21  C   UNL d   1     -41.162-120.580 -50.743  0.00  0.00     0.002 C 
ATOM     22  C   UNL d   1     -41.131-120.278 -52.145  0.00  0.00     0.002 C 
ENDBRANCH   9  20
ENDBRANCH   1   9
BRANCH   3  23
ATOM     23  C   UNL d   1     -42.090-123.073 -48.290  0.00  0.00     0.148 A 
ATOM     24  N   UNL d   1     -41.330-123.216 -48.003  0.00  0.00    -0.227 NA
ATOM     25  C   UNL d   1     -41.233-123.588 -47.273  0.00  0.00     0.101 A 
ATOM     26  C   UNL d   1     -41.885-123.816 -46.831  0.00  0.00     0.021 A 
ATOM     27  C   UNL d   1     -42.652-123.669 -47.125  0.00  0.00     0.005 A 
ATOM     28  C   UNL d   1     -42.751-123.299 -47.853  0.00  0.00     0.037 A 
ENDBRANCH   3  23
TORSDOF 5
ENDMDL
MODEL 2
REMARK VINA RESULT:       2.0      1.293      5.559
REMARK  5 active torsions:
REMARK  status: ('A' for Active; 'I' for Inactive)
REMARK       I    between atoms: N_3  and  C_1 
REMARK    1  A    between atoms: C_4  and  C_1 
REMARK    2  A    between atoms: N_2  and  C_4 
REMARK       I    between atoms: C_5  and  N_2 
REMARK    3  A    between atoms: C_18  and  C_4 
REMARK    4  A    between atoms: C_9  and  C_5 
REMARK    5  A    between atoms: C_7  and  N_6 
ROOT
ATOM      1  C   UNL d   1     -41.576-123.103 -51.579  0.00  0.00     0.283 C 
ATOM      2  N   UNL d   1     -41.694-122.891 -52.367  0.00  0.00    -0.268 N 
ATOM      3  N   UNL d   1     -41.929-122.469 -53.938  0.00  0.00    -0.286 N 
ATOM      4  O   UNL d   1     -41.196-123.810 -51.389  0.00  0.00    -0.265 OA
ATOM      5  C   UNL d   1     -42.073-122.184 -52.550  0.00  0.00     0.102 A 
ATOM      6  C   UNL d   1     -41.429-123.393 -52.967  0.00  0.00     0.102 A 
ATOM      7  C   UNL d   1     -41.549-123.178 -53.757  0.00  0.00     0.101 A 
ATOM      8  C   UNL d   1     -42.188-121.978 -53.339  0.00  0.00     0.101 A 
ENDROOT
BRANCH   1   9
ATOM      9  C   UNL d   1     -41.840-122.601 -50.980  0.00  0.00     0.141 C 
BRANCH   9  10
ATOM     10  N   UNL d   1     -42.118-122.919 -50.265  0.00  0.00    -0.203 NA
ATOM     11  C   UNL d   1     -41.947-122.542 -49.555  0.00  0.00     0.279 C 
ATOM     12  O   UNL d   1     -41.503-121.853 -49.550  0.00  0.00    -0.265 OA
BRANCH  11  13
ATOM     13  C   UNL d   1     -42.225-122.860 -48.846  0.00  0.00     0.058 A 
ATOM     14  C   UNL d   1     -41.811-122.740 -48.147  0.00  0.00     0.005 A 
ATOM     15  C   UNL d   1     -42.081-123.053 -47.440  0.00  0.00     0.000 A 
ATOM     16  C   UNL d   1     -42.778-123.495 -47.430  0.00  0.00     0.000 A 
ATOM     17  C   UNL d   1     -43.206-123.624 -48.126  0.00  0.00     0.000 A 
ATOM     18  C   UNL d   1     -43.062-123.817 -46.720  0.00  0.00     0.000 C 
ATOM     19  C   UNL d   1     -42.921-123.302 -48.835  0.00  0.00     0.005 A 
ENDBRANCH  11  13
ENDBRANCH   9  10
BRANCH   9  20
ATOM     20  C   UNL d   1     -41.832-121.788 -51.081  0.00  0.00     0.022 C 
ATOM     21  C   UNL d   1     -42.551-121.384 -51.200  0.00  0.00     0.002 C 
ATOM     22  C   UNL d   1     -41.123-121.368 -51.068  0.00  0.00     0.002 C 
ENDBRANCH   9  20
ENDBRANCH   1   9
BRANCH   3  23
ATOM     23  C   UNL d   1     -42.046-122.259 -54.728  0.00  0.00     0.148 A 
ATOM     24  N   UNL d   1     -41.598-121.653 -55.064  0.00  0.00    -0.227 NA
ATOM     25  C   UNL d   1     -41.718-121.446 -55.853  0.00  0.00     0.101 A 
ATOM     26  C   UNL d   1     -42.279-121.837 -56.307  0.00  0.00     0.021 A 
ATOM     27  C   UNL d   1     -42.730-122.448 -55.963  0.00  0.00     0.005 A 
ATOM     28  C   UNL d   1     -42.612-122.657 -55.176  0.00  0.00     0.037 A 
ENDBRANCH   3  23
TORSDOF 5
ENDMDL
