MODEL 1
REMARK VINA RESULT:      -2.9      0.000      0.000
REMARK  4 active torsions:
REMARK  status: ('A' for Active; 'I' for Inactive)
REMARK    1  A    between atoms: C_3  and  C_1 
REMARK    2  A    between atoms: C_8  and  C_3 
REMARK    3  A    between atoms: O_6  and  C_8 
REMARK    4  A    between atoms: C_7  and  O_6 
ROOT
ATOM      1  C   UNL d   1      30.654  16.384 -24.304  0.00  0.00     0.223 C 
ATOM      2  O   UNL d   1      30.968  15.970 -24.948  0.00  0.00    -0.284 OA
ENDROOT
BRANCH   1   3
ATOM      3  C   UNL d   1      29.898  16.206 -24.028  0.00  0.00     0.080 A 
ATOM      4  C   UNL d   1      29.234  16.523 -24.405  0.00  0.00     0.202 A 
ATOM      5  C   UNL d   1      28.477  16.345 -24.128  0.00  0.00     0.084 A 
ATOM      6  O   UNL d   1      29.327  17.018 -25.058  0.00  0.00    -0.286 OA
ATOM      7  C   UNL d   1      28.391  15.846 -23.472  0.00  0.00     0.199 A 
ATOM      8  C   UNL d   1      29.048  15.532 -23.099  0.00  0.00     0.042 A 
ATOM      9  O   UNL d   1      27.620  15.665 -23.191  0.00  0.00    -0.286 OA
ATOM     10  C   UNL d   1      29.805  15.710 -23.375  0.00  0.00     0.010 A 
ENDBRANCH   1   3
BRANCH   1  11
ATOM     11  C   UNL d   1      31.104  16.980 -23.937  0.00  0.00     0.165 C 
BRANCH  11  12
ATOM     12  O   UNL d   1      31.798  17.252 -24.299  0.00  0.00    -0.301 OA
BRANCH  12  13
ATOM     13  C   UNL d   1      32.280  17.788 -23.890  0.00  0.00     0.106 A 
ATOM     14  C   UNL d   1      32.631  18.417 -24.287  0.00  0.00     0.057 A 
ATOM     15 BR   UNL d   1      32.497  18.507 -25.097  0.00  0.00    -0.047 Br
ATOM     16  C   UNL d   1      33.111  18.950 -23.881  0.00  0.00     0.009 A 
ATOM     17  C   UNL d   1      33.240  18.853 -23.070  0.00  0.00     0.001 A 
ATOM     18  C   UNL d   1      32.885  18.215 -22.665  0.00  0.00     0.002 A 
ATOM     19  C   UNL d   1      32.407  17.688 -23.079  0.00  0.00     0.025 A 
ENDBRANCH  12  13
ENDBRANCH  11  12
ENDBRANCH   1  11
TORSDOF 4
ENDMDL
MODEL 2
REMARK VINA RESULT:      -2.8      3.468      5.508
REMARK  4 active torsions:
REMARK  status: ('A' for Active; 'I' for Inactive)
REMARK    1  A    between atoms: C_3  and  C_1 
REMARK    2  A    between atoms: C_8  and  C_3 
REMARK    3  A    between atoms: O_6  and  C_8 
REMARK    4  A    between atoms: C_7  and  O_6 
ROOT
ATOM      1  C   UNL d   1      33.037  20.500 -21.832  0.00  0.00     0.223 C 
ATOM      2  O   UNL d   1      33.240  19.998 -21.207  0.00  0.00    -0.284 OA
ENDROOT
BRANCH   1   3
ATOM      3  C   UNL d   1      32.851  21.289 -21.683  0.00  0.00     0.080 A 
ATOM      4  C   UNL d   1      32.274  21.480 -21.123  0.00  0.00     0.202 A 
ATOM      5  C   UNL d   1      32.087  22.270 -20.974  0.00  0.00     0.084 A 
ATOM      6  O   UNL d   1      31.883  20.881 -20.711  0.00  0.00    -0.286 OA
ATOM      7  C   UNL d   1      32.483  22.867 -21.391  0.00  0.00     0.199 A 
ATOM      8  C   UNL d   1      33.054  22.678 -21.946  0.00  0.00     0.042 A 
ATOM      9  O   UNL d   1      32.293  23.671 -21.239  0.00  0.00    -0.286 OA
ATOM     10  C   UNL d   1      33.241  21.889 -22.095  0.00  0.00     0.010 A 
ENDBRANCH   1   3
BRANCH   1  11
ATOM     11  C   UNL d   1      33.022  20.206 -22.610  0.00  0.00     0.165 C 
BRANCH  11  12
ATOM     12  O   UNL d   1      32.993  19.388 -22.740  0.00  0.00    -0.301 OA
BRANCH  12  13
ATOM     13  C   UNL d   1      33.007  19.104 -23.518  0.00  0.00     0.106 A 
ATOM     14  C   UNL d   1      32.805  18.323 -23.679  0.00  0.00     0.057 A 
ATOM     15 BR   UNL d   1      32.589  17.827 -23.055  0.00  0.00    -0.047 Br
ATOM     16  C   UNL d   1      32.818  18.041 -24.453  0.00  0.00     0.009 A 
ATOM     17  C   UNL d   1      33.036  18.544 -25.072  0.00  0.00     0.001 A 
ATOM     18  C   UNL d   1      33.241  19.336 -24.912  0.00  0.00     0.002 A 
ATOM     19  C   UNL d   1      33.224  19.610 -24.135  0.00  0.00     0.025 A 
ENDBRANCH  12  13
ENDBRANCH  11  12
ENDBRANCH   1  11
TORSDOF 4
ENDMDL
MODEL 3
REMARK VINA RESULT:      -2.6      1.737      2.789
REMARK  4 active torsions:
REMARK  status: ('A' for Active; 'I' for Inactive)
REMARK    1  A    between atoms: C_3  and  C_1 
REMARK    2  A    between atoms: C_8  and  C_3 
REMARK    3  A    between atoms: O_6  and  C_8 
REMARK    4  A    between atoms: C_7  and  O_6 
ROOT
ATOM      1  C   UNL d   1      32.688  18.229 -23.748  0.00  0.00     0.223 C 
ATOM      2  O   UNL d   1      33.240  18.323 -24.357  0.00  0.00    -0.284 OA
ENDROOT
BRANCH   1   3
ATOM      3  C   UNL d   1      32.162  17.595 -23.762  0.00  0.00     0.080 A 
ATOM      4  C   UNL d   1      31.519  17.601 -24.282  0.00  0.00     0.202 A 
ATOM      5  C   UNL d   1      30.992  16.967 -24.296  0.00  0.00     0.084 A 
ATOM      6  O   UNL d   1      31.403  18.243 -24.788  0.00  0.00    -0.286 OA
ATOM      7  C   UNL d   1      31.113  16.325 -23.785  0.00  0.00     0.199 A 
ATOM      8  C   UNL d   1      31.750  16.319 -23.270  0.00  0.00     0.042 A 
ATOM      9  O   UNL d   1      30.577  15.679 -23.799  0.00  0.00    -0.286 OA
ATOM     10  C   UNL d   1      32.277  16.953 -23.256  0.00  0.00     0.010 A 
ENDBRANCH   1   3
BRANCH   1  11
ATOM     11  C   UNL d   1      32.667  18.777 -23.122  0.00  0.00     0.165 C 
BRANCH  11  12
ATOM     12  O   UNL d   1      33.065  19.500 -23.196  0.00  0.00    -0.301 OA
BRANCH  12  13
ATOM     13  C   UNL d   1      33.109  20.003 -22.538  0.00  0.00     0.106 A 
ATOM     14  C   UNL d   1      33.197  20.814 -22.641  0.00  0.00     0.057 A 
ATOM     15 BR   UNL d   1      33.241  21.120 -23.407  0.00  0.00    -0.047 Br
ATOM     16  C   UNL d   1      33.241  21.314 -21.987  0.00  0.00     0.009 A 
ATOM     17  C   UNL d   1      33.196  20.999 -21.224  0.00  0.00     0.001 A 
ATOM     18  C   UNL d   1      33.107  20.177 -21.117  0.00  0.00     0.002 A 
ATOM     19  C   UNL d   1      33.064  19.685 -21.776  0.00  0.00     0.025 A 
ENDBRANCH  12  13
ENDBRANCH  11  12
ENDBRANCH   1  11
TORSDOF 4
ENDMDL
MODEL 4
REMARK VINA RESULT:      -2.1      2.534      4.959
REMARK  4 active torsions:
REMARK  status: ('A' for Active; 'I' for Inactive)
REMARK    1  A    between atoms: C_3  and  C_1 
REMARK    2  A    between atoms: C_8  and  C_3 
REMARK    3  A    between atoms: O_6  and  C_8 
REMARK    4  A    between atoms: C_7  and  O_6 
ROOT
ATOM      1  C   UNL d   1      32.974  19.266 -22.361  0.00  0.00     0.223 C 
ATOM      2  O   UNL d   1      33.241  18.846 -21.700  0.00  0.00    -0.284 OA
ENDROOT
BRANCH   1   3
ATOM      3  C   UNL d   1      33.039  20.088 -22.382  0.00  0.00     0.080 A 
ATOM      4  C   UNL d   1      32.965  20.527 -21.685  0.00  0.00     0.202 A 
ATOM      5  C   UNL d   1      33.029  21.349 -21.706  0.00  0.00     0.084 A 
ATOM      6  O   UNL d   1      32.827  20.143 -20.968  0.00  0.00    -0.286 OA
ATOM      7  C   UNL d   1      33.168  21.728 -22.429  0.00  0.00     0.199 A 
ATOM      8  C   UNL d   1      33.241  21.294 -23.120  0.00  0.00     0.042 A 
ATOM      9  O   UNL d   1      33.233  22.566 -22.450  0.00  0.00    -0.286 OA
ATOM     10  C   UNL d   1      33.177  20.472 -23.099  0.00  0.00     0.010 A 
ENDBRANCH   1   3
BRANCH   1  11
ATOM     11  C   UNL d   1      32.641  18.856 -23.004  0.00  0.00     0.165 C 
BRANCH  11  12
ATOM     12  O   UNL d   1      32.693  18.030 -23.035  0.00  0.00    -0.301 OA
BRANCH  12  13
ATOM     13  C   UNL d   1      32.284  17.624 -23.631  0.00  0.00     0.106 A 
ATOM     14  C   UNL d   1      32.413  16.821 -23.750  0.00  0.00     0.057 A 
ATOM     15 BR   UNL d   1      32.954  16.424 -23.269  0.00  0.00    -0.047 Br
ATOM     16  C   UNL d   1      32.006  16.417 -24.342  0.00  0.00     0.009 A 
ATOM     17  C   UNL d   1      31.464  16.821 -24.820  0.00  0.00     0.001 A 
ATOM     18  C   UNL d   1      31.332  17.636 -24.701  0.00  0.00     0.002 A 
ATOM     19  C   UNL d   1      31.743  18.031 -24.107  0.00  0.00     0.025 A 
ENDBRANCH  12  13
ENDBRANCH  11  12
ENDBRANCH   1  11
TORSDOF 4
ENDMDL
MODEL 5
REMARK VINA RESULT:      -1.8      3.803      5.427
REMARK  4 active torsions:
REMARK  status: ('A' for Active; 'I' for Inactive)
REMARK    1  A    between atoms: C_3  and  C_1 
REMARK    2  A    between atoms: C_8  and  C_3 
REMARK    3  A    between atoms: O_6  and  C_8 
REMARK    4  A    between atoms: C_7  and  O_6 
ROOT
ATOM      1  C   UNL d   1      33.160  20.120 -22.086  0.00  0.00     0.223 C 
ATOM      2  O   UNL d   1      33.241  19.662 -21.402  0.00  0.00    -0.284 OA
ENDROOT
BRANCH   1   3
ATOM      3  C   UNL d   1      33.169  19.761 -22.828  0.00  0.00     0.080 A 
ATOM      4  C   UNL d   1      33.116  18.938 -22.890  0.00  0.00     0.202 A 
ATOM      5  C   UNL d   1      33.125  18.578 -23.632  0.00  0.00     0.084 A 
ATOM      6  O   UNL d   1      33.053  18.476 -22.209  0.00  0.00    -0.286 OA
ATOM      7  C   UNL d   1      33.188  19.048 -24.312  0.00  0.00     0.199 A 
ATOM      8  C   UNL d   1      33.241  19.863 -24.250  0.00  0.00     0.042 A 
ATOM      9  O   UNL d   1      33.197  18.681 -25.067  0.00  0.00    -0.286 OA
ATOM     10  C   UNL d   1      33.232  20.223 -23.508  0.00  0.00     0.010 A 
ENDBRANCH   1   3
BRANCH   1  11
ATOM     11  C   UNL d   1      33.069  20.945 -22.022  0.00  0.00     0.165 C 
BRANCH  11  12
ATOM     12  O   UNL d   1      32.923  21.286 -21.281  0.00  0.00    -0.301 OA
BRANCH  12  13
ATOM     13  C   UNL d   1      32.735  22.092 -21.240  0.00  0.00     0.106 A 
ATOM     14  C   UNL d   1      32.810  22.500 -20.530  0.00  0.00     0.057 A 
ATOM     15 BR   UNL d   1      33.075  22.097 -19.860  0.00  0.00    -0.047 Br
ATOM     16  C   UNL d   1      32.623  23.301 -20.489  0.00  0.00     0.009 A 
ATOM     17  C   UNL d   1      32.358  23.699 -21.164  0.00  0.00     0.001 A 
ATOM     18  C   UNL d   1      32.281  23.287 -21.886  0.00  0.00     0.002 A 
ATOM     19  C   UNL d   1      32.470  22.486 -21.918  0.00  0.00     0.025 A 
ENDBRANCH  12  13
ENDBRANCH  11  12
ENDBRANCH   1  11
TORSDOF 4
ENDMDL
MODEL 6
REMARK VINA RESULT:      -1.2      4.245      6.159
REMARK  4 active torsions:
REMARK  status: ('A' for Active; 'I' for Inactive)
REMARK    1  A    between atoms: C_3  and  C_1 
REMARK    2  A    between atoms: C_8  and  C_3 
REMARK    3  A    between atoms: O_6  and  C_8 
REMARK    4  A    between atoms: C_7  and  O_6 
ROOT
ATOM      1  C   UNL d   1      32.493  21.198 -21.169  0.00  0.00     0.223 C 
ATOM      2  O   UNL d   1      31.898  20.635 -21.058  0.00  0.00    -0.284 OA
ENDROOT
BRANCH   1   3
ATOM      3  C   UNL d   1      32.575  21.823 -20.636  0.00  0.00     0.080 A 
ATOM      4  C   UNL d   1      32.079  22.482 -20.691  0.00  0.00     0.202 A 
ATOM      5  C   UNL d   1      32.162  23.106 -20.158  0.00  0.00     0.084 A 
ATOM      6  O   UNL d   1      31.502  22.516 -21.279  0.00  0.00    -0.286 OA
ATOM      7  C   UNL d   1      32.744  23.066 -19.570  0.00  0.00     0.199 A 
ATOM      8  C   UNL d   1      33.236  22.413 -19.516  0.00  0.00     0.042 A 
ATOM      9  O   UNL d   1      32.828  23.702 -19.028  0.00  0.00    -0.286 OA
ATOM     10  C   UNL d   1      33.153  21.788 -20.048  0.00  0.00     0.010 A 
ENDBRANCH   1   3
BRANCH   1  11
ATOM     11  C   UNL d   1      33.008  21.133 -21.819  0.00  0.00     0.165 C 
BRANCH  11  12
ATOM     12  O   UNL d   1      33.240  20.383 -22.085  0.00  0.00    -0.301 OA
BRANCH  12  13
ATOM     13  C   UNL d   1      33.232  20.226 -22.899  0.00  0.00     0.106 A 
ATOM     14  C   UNL d   1      33.217  19.450 -23.172  0.00  0.00     0.057 A 
ATOM     15 BR   UNL d   1      33.209  18.831 -22.625  0.00  0.00    -0.047 Br
ATOM     16  C   UNL d   1      33.209  19.294 -23.981  0.00  0.00     0.009 A 
ATOM     17  C   UNL d   1      33.218  19.919 -24.522  0.00  0.00     0.001 A 
ATOM     18  C   UNL d   1      33.233  20.706 -24.248  0.00  0.00     0.002 A 
ATOM     19  C   UNL d   1      33.241  20.854 -23.437  0.00  0.00     0.025 A 
ENDBRANCH  12  13
ENDBRANCH  11  12
ENDBRANCH   1  11
TORSDOF 4
ENDMDL
