MODEL 1
REMARK VINA RESULT:      65.6      0.000      0.000
REMARK  8 active torsions:
REMARK  status: ('A' for Active; 'I' for Inactive)
REMARK    1  A    between atoms: C_7  and  N_1 
REMARK    2  A    between atoms: C_23  and  C_5 
REMARK    3  A    between atoms: C_22  and  C_6 
REMARK    4  A    between atoms: C_8  and  C_7 
REMARK       I    between atoms: N_10  and  C_8 
REMARK    5  A    between atoms: C_9  and  C_13 
REMARK    6  A    between atoms: O_19  and  C_9 
REMARK    7  A    between atoms: C_18  and  N_10 
REMARK    8  A    between atoms: C_24  and  O_19 
ROOT
ATOM      1  C   UNL d   1     -48.966  27.526  34.111  0.00  0.00     0.297 C 
ATOM      2  N   UNL d   1     -49.149  27.057  33.453  0.00  0.00    -0.207 NA
ATOM      3  O   UNL d   1     -49.491  27.561  34.747  0.00  0.00    -0.264 OA
ENDROOT
BRANCH   1   4
ATOM      4  C   UNL d   1     -48.272  27.954  34.137  0.00  0.00     0.148 C 
BRANCH   4   5
ATOM      5  N   UNL d   1     -48.248  28.680  34.528  0.00  0.00    -0.235 N 
ATOM      6  C   UNL d   1     -47.817  28.754  35.232  0.00  0.00     0.273 A 
ATOM      7  C   UNL d   1     -47.794  29.473  35.620  0.00  0.00     0.086 A 
ATOM      8  O   UNL d   1     -47.414  28.100  35.540  0.00  0.00    -0.266 OA
ATOM      9  S   UNL d   1     -48.189  30.125  35.323  0.00  0.00    -0.077 SA
ATOM     10  C   UNL d   1     -48.617  30.056  34.626  0.00  0.00     0.086 A 
ATOM     11  C   UNL d   1     -48.651  29.337  34.223  0.00  0.00     0.273 A 
ATOM     12  O   UNL d   1     -49.078  29.265  33.523  0.00  0.00    -0.266 OA
BRANCH   7  13
ATOM     13  C   UNL d   1     -47.361  29.545  36.327  0.00  0.00     0.011 C 
ATOM     14  C   UNL d   1     -46.990  30.259  36.512  0.00  0.00     0.001 C 
ENDBRANCH   7  13
BRANCH  10  15
ATOM     15  C   UNL d   1     -49.018  30.709  34.320  0.00  0.00     0.011 C 
ATOM     16  C   UNL d   1     -48.602  31.398  34.138  0.00  0.00     0.001 C 
ENDBRANCH  10  15
ENDBRANCH   4   5
ENDBRANCH   1   4
BRANCH   2  17
ATOM     17  C   UNL d   1     -49.854  26.626  33.434  0.00  0.00     0.085 A 
ATOM     18  C   UNL d   1     -50.578  27.014  33.517  0.00  0.00     0.019 A 
ATOM     19  C   UNL d   1     -51.270  26.572  33.495  0.00  0.00     0.007 A 
ATOM     20  C   UNL d   1     -51.252  25.761  33.393  0.00  0.00     0.064 A 
ATOM     21  C   UNL d   1     -50.527  25.376  33.310  0.00  0.00     0.007 A 
ATOM     22  C   UNL d   1     -49.822  25.807  33.330  0.00  0.00     0.019 A 
BRANCH  20  23
ATOM     23  C   UNL d   1     -51.956  25.324  33.373  0.00  0.00     0.300 C 
ATOM     24  O   UNL d   1     -52.678  25.718  33.306  0.00  0.00    -0.259 OA
BRANCH  23  25
ATOM     25  O   UNL d   1     -51.938  24.511  33.418  0.00  0.00    -0.271 OA
BRANCH  25  26
ATOM     26  C   UNL d   1     -52.565  24.090  33.742  0.00  0.00     0.126 C 
ATOM     27  C   UNL d   1     -53.258  23.982  33.328  0.00  0.00     0.029 C 
ENDBRANCH  25  26
ENDBRANCH  23  25
ENDBRANCH  20  23
ENDBRANCH   2  17
TORSDOF 8
ENDMDL
MODEL 2
REMARK VINA RESULT:      67.1      1.753      5.513
REMARK  8 active torsions:
REMARK  status: ('A' for Active; 'I' for Inactive)
REMARK    1  A    between atoms: C_7  and  N_1 
REMARK    2  A    between atoms: C_23  and  C_5 
REMARK    3  A    between atoms: C_22  and  C_6 
REMARK    4  A    between atoms: C_8  and  C_7 
REMARK       I    between atoms: N_10  and  C_8 
REMARK    5  A    between atoms: C_9  and  C_13 
REMARK    6  A    between atoms: O_19  and  C_9 
REMARK    7  A    between atoms: C_18  and  N_10 
REMARK    8  A    between atoms: C_24  and  O_19 
ROOT
ATOM      1  C   UNL d   1     -48.557  28.016  34.517  0.00  0.00     0.297 C 
ATOM      2  N   UNL d   1     -47.891  28.301  34.918  0.00  0.00    -0.207 NA
ATOM      3  O   UNL d   1     -49.092  28.548  34.183  0.00  0.00    -0.264 OA
ENDROOT
BRANCH   1   4
ATOM      4  C   UNL d   1     -48.691  27.214  34.448  0.00  0.00     0.148 C 
BRANCH   4   5
ATOM      5  N   UNL d   1     -49.375  26.939  34.078  0.00  0.00    -0.235 N 
ATOM      6  C   UNL d   1     -49.439  26.138  33.876  0.00  0.00     0.273 A 
ATOM      7  C   UNL d   1     -50.117  25.865  33.510  0.00  0.00     0.086 A 
ATOM      8  O   UNL d   1     -48.818  25.618  34.045  0.00  0.00    -0.266 OA
ATOM      9  S   UNL d   1     -50.737  26.372  33.338  0.00  0.00    -0.077 SA
ATOM     10  C   UNL d   1     -50.677  27.165  33.537  0.00  0.00     0.086 A 
ATOM     11  C   UNL d   1     -49.999  27.457  33.907  0.00  0.00     0.273 A 
ATOM     12  O   UNL d   1     -49.937  28.252  34.108  0.00  0.00    -0.266 OA
BRANCH   7  13
ATOM     13  C   UNL d   1     -50.180  25.061  33.307  0.00  0.00     0.011 C 
ATOM     14  C   UNL d   1     -50.893  24.661  33.420  0.00  0.00     0.001 C 
ENDBRANCH   7  13
BRANCH  10  15
ATOM     15  C   UNL d   1     -51.297  27.682  33.368  0.00  0.00     0.011 C 
ATOM     16  C   UNL d   1     -52.067  27.392  33.307  0.00  0.00     0.001 C 
ENDBRANCH  10  15
ENDBRANCH   4   5
ENDBRANCH   1   4
BRANCH   2  17
ATOM     17  C   UNL d   1     -47.762  29.115  34.984  0.00  0.00     0.085 A 
ATOM     18  C   UNL d   1     -47.359  29.519  34.388  0.00  0.00     0.019 A 
ATOM     19  C   UNL d   1     -47.239  30.327  34.467  0.00  0.00     0.007 A 
ATOM     20  C   UNL d   1     -47.510  30.734  35.123  0.00  0.00     0.064 A 
ATOM     21  C   UNL d   1     -47.913  30.327  35.717  0.00  0.00     0.007 A 
ATOM     22  C   UNL d   1     -48.042  29.514  35.651  0.00  0.00     0.019 A 
BRANCH  20  23
ATOM     23  C   UNL d   1     -47.384  31.550  35.194  0.00  0.00     0.300 C 
ATOM     24  O   UNL d   1     -47.374  31.898  35.942  0.00  0.00    -0.259 OA
BRANCH  23  25
ATOM     25  O   UNL d   1     -47.270  32.008  34.530  0.00  0.00    -0.271 OA
BRANCH  25  26
ATOM     26  C   UNL d   1     -47.874  32.475  34.227  0.00  0.00     0.126 C 
ATOM     27  C   UNL d   1     -47.781  32.884  33.529  0.00  0.00     0.029 C 
ENDBRANCH  25  26
ENDBRANCH  23  25
ENDBRANCH  20  23
ENDBRANCH   2  17
TORSDOF 8
ENDMDL
