MODEL 1
REMARK VINA RESULT:      -5.5      0.000      0.000
REMARK  4 active torsions:
REMARK  status: ('A' for Active; 'I' for Inactive)
REMARK    1  A    between atoms: C_3  and  C_1 
REMARK    2  A    between atoms: C_8  and  C_3 
REMARK    3  A    between atoms: O_6  and  C_8 
REMARK    4  A    between atoms: C_7  and  O_6 
ROOT
ATOM      1  C   UNL d   1      57.027  -0.682  31.470  0.00  0.00     0.223 C 
ATOM      2  O   UNL d   1      56.972  -1.469  31.222  0.00  0.00    -0.284 OA
ENDROOT
BRANCH   1   3
ATOM      3  C   UNL d   1      56.545  -0.406  32.080  0.00  0.00     0.080 A 
ATOM      4  C   UNL d   1      56.166  -0.941  32.582  0.00  0.00     0.202 A 
ATOM      5  C   UNL d   1      55.684  -0.665  33.192  0.00  0.00     0.084 A 
ATOM      6  O   UNL d   1      56.269  -1.753  32.475  0.00  0.00    -0.286 OA
ATOM      7  C   UNL d   1      55.584   0.151  33.295  0.00  0.00     0.199 A 
ATOM      8  C   UNL d   1      55.960   0.682  32.797  0.00  0.00     0.042 A 
ATOM      9  O   UNL d   1      55.093   0.432  33.916  0.00  0.00    -0.286 OA
ATOM     10  C   UNL d   1      56.442   0.406  32.187  0.00  0.00     0.010 A 
ENDBRANCH   1   3
BRANCH   1  11
ATOM     11  C   UNL d   1      57.571  -0.171  31.102  0.00  0.00     0.165 C 
BRANCH  11  12
ATOM     12  O   UNL d   1      57.889  -0.372  30.364  0.00  0.00    -0.301 OA
BRANCH  12  13
ATOM     13  C   UNL d   1      58.601  -0.021  30.125  0.00  0.00     0.106 A 
ATOM     14  C   UNL d   1      58.817  -0.020  29.331  0.00  0.00     0.057 A 
ATOM     15 BR   UNL d   1      58.316  -0.373  28.777  0.00  0.00    -0.047 Br
ATOM     16  C   UNL d   1      59.524   0.329  29.093  0.00  0.00     0.009 A 
ATOM     17  C   UNL d   1      60.020   0.681  29.653  0.00  0.00     0.001 A 
ATOM     18  C   UNL d   1      59.803   0.682  30.458  0.00  0.00     0.002 A 
ATOM     19  C   UNL d   1      59.094   0.331  30.688  0.00  0.00     0.025 A 
ENDBRANCH  12  13
ENDBRANCH  11  12
ENDBRANCH   1  11
TORSDOF 4
ENDMDL
MODEL 2
REMARK VINA RESULT:      -5.2      1.563      4.326
REMARK  4 active torsions:
REMARK  status: ('A' for Active; 'I' for Inactive)
REMARK    1  A    between atoms: C_3  and  C_1 
REMARK    2  A    between atoms: C_8  and  C_3 
REMARK    3  A    between atoms: O_6  and  C_8 
REMARK    4  A    between atoms: C_7  and  O_6 
ROOT
ATOM      1  C   UNL d   1      57.741   0.285  30.481  0.00  0.00     0.223 C 
ATOM      2  O   UNL d   1      57.137   0.682  30.080  0.00  0.00    -0.284 OA
ENDROOT
BRANCH   1   3
ATOM      3  C   UNL d   1      58.509   0.290  30.179  0.00  0.00     0.080 A 
ATOM      4  C   UNL d   1      58.676  -0.092  29.465  0.00  0.00     0.202 A 
ATOM      5  C   UNL d   1      59.444  -0.088  29.164  0.00  0.00     0.084 A 
ATOM      6  O   UNL d   1      58.075  -0.479  29.054  0.00  0.00    -0.286 OA
ATOM      7  C   UNL d   1      60.043   0.303  29.582  0.00  0.00     0.199 A 
ATOM      8  C   UNL d   1      59.878   0.681  30.290  0.00  0.00     0.042 A 
ATOM      9  O   UNL d   1      60.825   0.307  29.275  0.00  0.00    -0.286 OA
ATOM     10  C   UNL d   1      59.110   0.677  30.591  0.00  0.00     0.010 A 
ENDBRANCH   1   3
BRANCH   1  11
ATOM     11  C   UNL d   1      57.573  -0.118  31.189  0.00  0.00     0.165 C 
BRANCH  11  12
ATOM     12  O   UNL d   1      57.012   0.193  31.715  0.00  0.00    -0.301 OA
BRANCH  12  13
ATOM     13  C   UNL d   1      56.622  -0.321  32.235  0.00  0.00     0.106 A 
ATOM     14  C   UNL d   1      56.446  -0.080  33.002  0.00  0.00     0.057 A 
ATOM     15 BR   UNL d   1      56.663   0.679  33.245  0.00  0.00    -0.047 Br
ATOM     16  C   UNL d   1      56.059  -0.591  33.519  0.00  0.00     0.009 A 
ATOM     17  C   UNL d   1      55.845  -1.349  33.268  0.00  0.00     0.001 A 
ATOM     18  C   UNL d   1      56.022  -1.595  32.491  0.00  0.00     0.002 A 
ATOM     19  C   UNL d   1      56.410  -1.078  31.980  0.00  0.00     0.025 A 
ENDBRANCH  12  13
ENDBRANCH  11  12
ENDBRANCH   1  11
TORSDOF 4
ENDMDL
MODEL 3
REMARK VINA RESULT:      -5.1      1.615      4.428
REMARK  4 active torsions:
REMARK  status: ('A' for Active; 'I' for Inactive)
REMARK    1  A    between atoms: C_3  and  C_1 
REMARK    2  A    between atoms: C_8  and  C_3 
REMARK    3  A    between atoms: O_6  and  C_8 
REMARK    4  A    between atoms: C_7  and  O_6 
ROOT
ATOM      1  C   UNL d   1      57.839  -0.246  30.255  0.00  0.00     0.223 C 
ATOM      2  O   UNL d   1      57.509   0.450  29.955  0.00  0.00    -0.284 OA
ENDROOT
BRANCH   1   3
ATOM      3  C   UNL d   1      58.439  -0.631  29.840  0.00  0.00     0.080 A 
ATOM      4  C   UNL d   1      59.169  -0.259  29.727  0.00  0.00     0.202 A 
ATOM      5  C   UNL d   1      59.769  -0.644  29.312  0.00  0.00     0.084 A 
ATOM      6  O   UNL d   1      59.298   0.497  30.030  0.00  0.00    -0.286 OA
ATOM      7  C   UNL d   1      59.632  -1.404  29.011  0.00  0.00     0.199 A 
ATOM      8  C   UNL d   1      58.909  -1.773  29.122  0.00  0.00     0.042 A 
ATOM      9  O   UNL d   1      60.244  -1.796  28.588  0.00  0.00    -0.286 OA
ATOM     10  C   UNL d   1      58.309  -1.388  29.537  0.00  0.00     0.010 A 
ENDBRANCH   1   3
BRANCH   1  11
ATOM     11  C   UNL d   1      57.564  -0.556  30.976  0.00  0.00     0.165 C 
BRANCH  11  12
ATOM     12  O   UNL d   1      57.095  -0.087  31.472  0.00  0.00    -0.301 OA
BRANCH  12  13
ATOM     13  C   UNL d   1      56.696  -0.446  32.104  0.00  0.00     0.106 A 
ATOM     14  C   UNL d   1      56.644  -0.065  32.832  0.00  0.00     0.057 A 
ATOM     15 BR   UNL d   1      56.994   0.678  32.923  0.00  0.00    -0.047 Br
ATOM     16  C   UNL d   1      56.248  -0.421  33.460  0.00  0.00     0.009 A 
ATOM     17  C   UNL d   1      55.900  -1.165  33.361  0.00  0.00     0.001 A 
ATOM     18  C   UNL d   1      55.952  -1.553  32.624  0.00  0.00     0.002 A 
ATOM     19  C   UNL d   1      56.350  -1.190  32.001  0.00  0.00     0.025 A 
ENDBRANCH  12  13
ENDBRANCH  11  12
ENDBRANCH   1  11
TORSDOF 4
ENDMDL
MODEL 4
REMARK VINA RESULT:      -3.0      8.676      9.544
REMARK  4 active torsions:
REMARK  status: ('A' for Active; 'I' for Inactive)
REMARK    1  A    between atoms: C_3  and  C_1 
REMARK    2  A    between atoms: C_8  and  C_3 
REMARK    3  A    between atoms: O_6  and  C_8 
REMARK    4  A    between atoms: C_7  and  O_6 
ROOT
ATOM      1  C   UNL d   1      59.598  -8.545  35.369  0.00  0.00     0.223 C 
ATOM      2  O   UNL d   1      59.309  -9.084  35.926  0.00  0.00    -0.284 OA
ENDROOT
BRANCH   1   3
ATOM      3  C   UNL d   1      59.822  -7.788  35.605  0.00  0.00     0.080 A 
ATOM      4  C   UNL d   1      60.584  -7.653  35.896  0.00  0.00     0.202 A 
ATOM      5  C   UNL d   1      60.808  -6.895  36.133  0.00  0.00     0.084 A 
ATOM      6  O   UNL d   1      61.121  -8.277  35.952  0.00  0.00    -0.286 OA
ATOM      7  C   UNL d   1      60.264  -6.273  36.074  0.00  0.00     0.199 A 
ATOM      8  C   UNL d   1      59.509  -6.406  35.786  0.00  0.00     0.042 A 
ATOM      9  O   UNL d   1      60.493  -5.501  36.315  0.00  0.00    -0.286 OA
ATOM     10  C   UNL d   1      59.285  -7.164  35.549  0.00  0.00     0.010 A 
ENDBRANCH   1   3
BRANCH   1  11
ATOM     11  C   UNL d   1      59.661  -8.771  34.571  0.00  0.00     0.165 C 
BRANCH  11  12
ATOM     12  O   UNL d   1      59.382  -9.513  34.330  0.00  0.00    -0.301 OA
BRANCH  12  13
ATOM     13  C   UNL d   1      59.137  -9.614  33.544  0.00  0.00     0.106 A 
ATOM     14  C   UNL d   1      59.693  -9.715  32.946  0.00  0.00     0.057 A 
ATOM     15 BR   UNL d   1      60.496  -9.713  33.139  0.00  0.00    -0.047 Br
ATOM     16  C   UNL d   1      59.450  -9.815  32.166  0.00  0.00     0.009 A 
ATOM     17  C   UNL d   1      58.644  -9.815  31.981  0.00  0.00     0.001 A 
ATOM     18  C   UNL d   1      58.079  -9.714  32.585  0.00  0.00     0.002 A 
ATOM     19  C   UNL d   1      58.330  -9.614  33.363  0.00  0.00     0.025 A 
ENDBRANCH  12  13
ENDBRANCH  11  12
ENDBRANCH   1  11
TORSDOF 4
ENDMDL
