MODEL 1
REMARK VINA RESULT:      14.8      0.000      0.000
REMARK  3 active torsions:
REMARK  status: ('A' for Active; 'I' for Inactive)
REMARK    1  A    between atoms: N_6  and  C_2 
REMARK    2  A    between atoms: C_8  and  C_3 
REMARK       I    between atoms: C_7  and  N_6 
REMARK    3  A    between atoms: C_10  and  C_7 
ROOT
ATOM      1  N   UNL d   1     -57.743 -98.763 -44.091  0.00  0.00    -0.200 NA
ATOM      2  C   UNL d   1     -58.484 -98.768 -44.443  0.00  0.00     0.216 A 
ATOM      3  C   UNL d   1     -57.172 -98.776 -44.695  0.00  0.00     0.172 A 
ATOM      4  N   UNL d   1     -57.571 -98.789 -45.418  0.00  0.00    -0.187 NA
ATOM      5  S   UNL d   1     -58.384 -98.783 -45.264  0.00  0.00     0.054 SA
ENDROOT
BRANCH   3   6
ATOM      6  C   UNL d   1     -56.358 -98.777 -44.588  0.00  0.00     0.036 A 
ATOM      7  C   UNL d   1     -56.041 -98.781 -43.831  0.00  0.00     0.003 A 
ATOM      8  C   UNL d   1     -55.220 -98.781 -43.732  0.00  0.00     0.000 A 
ATOM      9  C   UNL d   1     -54.723 -98.777 -44.391  0.00  0.00     0.000 A 
ATOM     10  C   UNL d   1     -55.042 -98.772 -45.151  0.00  0.00     0.000 A 
ATOM     11  C   UNL d   1     -55.864 -98.772 -45.245  0.00  0.00     0.003 A 
ENDBRANCH   3   6
BRANCH   2  12
ATOM     12  N   UNL d   1     -59.206 -98.759 -44.045  0.00  0.00    -0.181 NA
ATOM     13  C   UNL d   1     -59.218 -98.783 -43.222  0.00  0.00     0.281 C 
ATOM     14  O   UNL d   1     -58.515 -98.816 -42.797  0.00  0.00    -0.265 OA
BRANCH  13  15
ATOM     15  C   UNL d   1     -59.934 -98.774 -42.828  0.00  0.00     0.063 C 
ATOM     16  C   UNL d   1     -59.959 -98.793 -42.001  0.00  0.00     0.005 C 
ENDBRANCH  13  15
ENDBRANCH   2  12
TORSDOF 3
ENDMDL
