MODEL 1
REMARK VINA RESULT:      -2.9      0.000      0.000
REMARK  2 active torsions:
REMARK  status: ('A' for Active; 'I' for Inactive)
REMARK    1  A    between atoms: C_6  and  C_1 
REMARK    2  A    between atoms: C_8  and  C_5 
ROOT
ATOM      1  C   UNL d   1      32.732  21.107 -21.117  0.00  0.00     0.169 A 
ATOM      2  C   UNL d   1      32.664  20.809 -21.894  0.00  0.00     0.048 A 
ATOM      3  N   UNL d   1      33.238  19.865 -21.142  0.00  0.00    -0.148 NA
ATOM      4  N   UNL d   1      33.090  20.515 -20.655  0.00  0.00    -0.142 NA
ATOM      5  C   UNL d   1      32.970  20.058 -21.909  0.00  0.00     0.105 A 
ENDROOT
BRANCH   5   6
ATOM      6  C   UNL d   1      33.008  19.578 -22.554  0.00  0.00     0.019 A 
ATOM      7  C   UNL d   1      32.863  18.770 -22.474  0.00  0.00     0.002 A 
ATOM      8  C   UNL d   1      32.900  18.266 -23.128  0.00  0.00     0.000 A 
ATOM      9  C   UNL d   1      33.085  18.588 -23.866  0.00  0.00     0.000 A 
ATOM     10  C   UNL d   1      33.233  19.398 -23.956  0.00  0.00     0.000 A 
ATOM     11  C   UNL d   1      33.193  19.886 -23.297  0.00  0.00     0.002 A 
ENDBRANCH   5   6
BRANCH   1  12
ATOM     12  C   UNL d   1      32.484  21.846 -20.886  0.00  0.00     0.231 C 
ATOM     13  O   UNL d   1      32.989  22.457 -20.776  0.00  0.00    -0.643 OA
ATOM     14  O   UNL d   1      31.686  21.996 -20.755  0.00  0.00    -0.643 OA
ENDBRANCH   1  12
TORSDOF 2
ENDMDL
MODEL 2
REMARK VINA RESULT:      -2.8      4.591      5.567
REMARK  2 active torsions:
REMARK  status: ('A' for Active; 'I' for Inactive)
REMARK    1  A    between atoms: C_6  and  C_1 
REMARK    2  A    between atoms: C_8  and  C_5 
ROOT
ATOM      1  C   UNL d   1      29.065  16.269 -24.003  0.00  0.00     0.169 A 
ATOM      2  C   UNL d   1      29.773  16.284 -23.561  0.00  0.00     0.048 A 
ATOM      3  N   UNL d   1      30.088  16.473 -24.846  0.00  0.00    -0.148 NA
ATOM      4  N   UNL d   1      29.267  16.387 -24.800  0.00  0.00    -0.142 NA
ATOM      5  C   UNL d   1      30.392  16.407 -24.071  0.00  0.00     0.105 A 
ENDROOT
BRANCH   5   6
ATOM      6  C   UNL d   1      31.168  16.458 -23.866  0.00  0.00     0.019 A 
ATOM      7  C   UNL d   1      31.540  17.193 -23.844  0.00  0.00     0.002 A 
ATOM      8  C   UNL d   1      32.337  17.260 -23.635  0.00  0.00     0.000 A 
ATOM      9  C   UNL d   1      32.756  16.573 -23.449  0.00  0.00     0.000 A 
ATOM     10  C   UNL d   1      32.391  15.829 -23.468  0.00  0.00     0.000 A 
ATOM     11  C   UNL d   1      31.599  15.780 -23.677  0.00  0.00     0.002 A 
ENDBRANCH   5   6
BRANCH   1  12
ATOM     12  C   UNL d   1      28.327  16.158 -23.681  0.00  0.00     0.231 C 
ATOM     13  O   UNL d   1      27.948  15.453 -23.700  0.00  0.00    -0.643 OA
ATOM     14  O   UNL d   1      27.933  16.781 -23.314  0.00  0.00    -0.643 OA
ENDBRANCH   1  12
TORSDOF 2
ENDMDL
MODEL 3
REMARK VINA RESULT:      -2.8      3.832      4.784
REMARK  2 active torsions:
REMARK  status: ('A' for Active; 'I' for Inactive)
REMARK    1  A    between atoms: C_6  and  C_1 
REMARK    2  A    between atoms: C_8  and  C_5 
ROOT
ATOM      1  C   UNL d   1      30.817  15.929 -23.444  0.00  0.00     0.169 A 
ATOM      2  C   UNL d   1      30.994  16.731 -23.598  0.00  0.00     0.048 A 
ATOM      3  N   UNL d   1      32.148  16.062 -23.532  0.00  0.00    -0.148 NA
ATOM      4  N   UNL d   1      31.539  15.519 -23.404  0.00  0.00    -0.142 NA
ATOM      5  C   UNL d   1      31.799  16.811 -23.652  0.00  0.00     0.105 A 
ENDROOT
BRANCH   5   6
ATOM      6  C   UNL d   1      32.196  17.495 -23.796  0.00  0.00     0.019 A 
ATOM      7  C   UNL d   1      32.220  17.804 -24.560  0.00  0.00     0.002 A 
ATOM      8  C   UNL d   1      32.624  18.506 -24.722  0.00  0.00     0.000 A 
ATOM      9  C   UNL d   1      33.005  18.896 -24.101  0.00  0.00     0.000 A 
ATOM     10  C   UNL d   1      32.987  18.594 -23.330  0.00  0.00     0.000 A 
ATOM     11  C   UNL d   1      32.581  17.895 -23.185  0.00  0.00     0.002 A 
ENDBRANCH   5   6
BRANCH   1  12
ATOM     12  C   UNL d   1      30.064  15.636 -23.354  0.00  0.00     0.231 C 
ATOM     13  O   UNL d   1      29.594  15.453 -23.975  0.00  0.00    -0.643 OA
ATOM     14  O   UNL d   1      29.751  15.514 -22.603  0.00  0.00    -0.643 OA
ENDBRANCH   1  12
TORSDOF 2
ENDMDL
MODEL 4
REMARK VINA RESULT:      -2.8      1.689      3.400
REMARK  2 active torsions:
REMARK  status: ('A' for Active; 'I' for Inactive)
REMARK    1  A    between atoms: C_6  and  C_1 
REMARK    2  A    between atoms: C_8  and  C_5 
ROOT
ATOM      1  C   UNL d   1      33.078  20.010 -21.853  0.00  0.00     0.169 A 
ATOM      2  C   UNL d   1      32.862  20.798 -22.026  0.00  0.00     0.048 A 
ATOM      3  N   UNL d   1      33.127  20.724 -20.718  0.00  0.00    -0.148 NA
ATOM      4  N   UNL d   1      33.241  19.971 -21.038  0.00  0.00    -0.142 NA
ATOM      5  C   UNL d   1      32.892  21.230 -21.340  0.00  0.00     0.105 A 
ENDROOT
BRANCH   5   6
ATOM      6  C   UNL d   1      32.724  22.013 -21.268  0.00  0.00     0.019 A 
ATOM      7  C   UNL d   1      32.070  22.254 -20.827  0.00  0.00     0.002 A 
ATOM      8  C   UNL d   1      31.886  23.056 -20.745  0.00  0.00     0.000 A 
ATOM      9  C   UNL d   1      32.370  23.613 -21.115  0.00  0.00     0.000 A 
ATOM     10  C   UNL d   1      33.029  23.380 -21.560  0.00  0.00     0.000 A 
ATOM     11  C   UNL d   1      33.199  22.581 -21.632  0.00  0.00     0.002 A 
ENDBRANCH   5   6
BRANCH   1  12
ATOM     12  C   UNL d   1      33.112  19.414 -22.403  0.00  0.00     0.231 C 
ATOM     13  O   UNL d   1      33.186  18.642 -22.203  0.00  0.00    -0.643 OA
ATOM     14  O   UNL d   1      33.071  19.585 -23.207  0.00  0.00    -0.643 OA
ENDBRANCH   1  12
TORSDOF 2
ENDMDL
MODEL 5
REMARK VINA RESULT:      -2.7      4.082      5.027
REMARK  2 active torsions:
REMARK  status: ('A' for Active; 'I' for Inactive)
REMARK    1  A    between atoms: C_6  and  C_1 
REMARK    2  A    between atoms: C_8  and  C_5 
ROOT
ATOM      1  C   UNL d   1      32.145  16.916 -23.709  0.00  0.00     0.169 A 
ATOM      2  C   UNL d   1      31.318  16.977 -23.605  0.00  0.00     0.048 A 
ATOM      3  N   UNL d   1      31.609  15.693 -23.830  0.00  0.00    -0.148 NA
ATOM      4  N   UNL d   1      32.318  16.115 -23.848  0.00  0.00    -0.142 NA
ATOM      5  C   UNL d   1      30.994  16.238 -23.678  0.00  0.00     0.105 A 
ENDROOT
BRANCH   5   6
ATOM      6  C   UNL d   1      30.213  16.058 -23.616  0.00  0.00     0.019 A 
ATOM      7  C   UNL d   1      29.938  15.644 -22.957  0.00  0.00     0.002 A 
ATOM      8  C   UNL d   1      29.138  15.453 -22.880  0.00  0.00     0.000 A 
ATOM      9  C   UNL d   1      28.616  15.684 -23.477  0.00  0.00     0.000 A 
ATOM     10  C   UNL d   1      28.882  16.099 -24.142  0.00  0.00     0.000 A 
ATOM     11  C   UNL d   1      29.680  16.282 -24.204  0.00  0.00     0.002 A 
ENDBRANCH   5   6
BRANCH   1  12
ATOM     12  C   UNL d   1      32.658  17.545 -23.674  0.00  0.00     0.231 C 
ATOM     13  O   UNL d   1      32.802  17.950 -22.999  0.00  0.00    -0.643 OA
ATOM     14  O   UNL d   1      33.060  17.794 -24.348  0.00  0.00    -0.643 OA
ENDBRANCH   1  12
TORSDOF 2
ENDMDL
MODEL 6
REMARK VINA RESULT:      -2.7      1.604      2.127
REMARK  2 active torsions:
REMARK  status: ('A' for Active; 'I' for Inactive)
REMARK    1  A    between atoms: C_6  and  C_1 
REMARK    2  A    between atoms: C_8  and  C_5 
ROOT
ATOM      1  C   UNL d   1      32.550  22.660 -20.015  0.00  0.00     0.169 A 
ATOM      2  C   UNL d   1      32.905  21.979 -20.342  0.00  0.00     0.048 A 
ATOM      3  N   UNL d   1      32.018  22.444 -21.226  0.00  0.00    -0.148 NA
ATOM      4  N   UNL d   1      31.999  22.944 -20.570  0.00  0.00    -0.142 NA
ATOM      5  C   UNL d   1      32.583  21.848 -21.075  0.00  0.00     0.105 A 
ENDROOT
BRANCH   5   6
ATOM      6  C   UNL d   1      32.775  21.247 -21.573  0.00  0.00     0.019 A 
ATOM      7  C   UNL d   1      32.705  20.465 -21.320  0.00  0.00     0.002 A 
ATOM      8  C   UNL d   1      32.899  19.837 -21.821  0.00  0.00     0.000 A 
ATOM      9  C   UNL d   1      33.166  20.008 -22.584  0.00  0.00     0.000 A 
ATOM     10  C   UNL d   1      33.240  20.790 -22.847  0.00  0.00     0.000 A 
ATOM     11  C   UNL d   1      33.044  21.402 -22.338  0.00  0.00     0.002 A 
ENDBRANCH   5   6
BRANCH   1  12
ATOM     12  C   UNL d   1      32.731  22.965 -19.283  0.00  0.00     0.231 C 
ATOM     13  O   UNL d   1      33.224  22.596 -18.771  0.00  0.00    -0.643 OA
ATOM     14  O   UNL d   1      32.408  23.680 -19.037  0.00  0.00    -0.643 OA
ENDBRANCH   1  12
TORSDOF 2
ENDMDL
MODEL 7
REMARK VINA RESULT:      -2.5      2.189      2.970
REMARK  2 active torsions:
REMARK  status: ('A' for Active; 'I' for Inactive)
REMARK    1  A    between atoms: C_6  and  C_1 
REMARK    2  A    between atoms: C_8  and  C_5 
ROOT
ATOM      1  C   UNL d   1      32.975  19.197 -23.038  0.00  0.00     0.169 A 
ATOM      2  C   UNL d   1      32.573  18.477 -22.904  0.00  0.00     0.048 A 
ATOM      3  N   UNL d   1      32.858  18.552 -24.207  0.00  0.00    -0.148 NA
ATOM      4  N   UNL d   1      33.149  19.237 -23.850  0.00  0.00    -0.142 NA
ATOM      5  C   UNL d   1      32.502  18.087 -23.611  0.00  0.00     0.105 A 
ENDROOT
BRANCH   5   6
ATOM      6  C   UNL d   1      32.149  17.373 -23.722  0.00  0.00     0.019 A 
ATOM      7  C   UNL d   1      31.366  17.336 -23.979  0.00  0.00     0.002 A 
ATOM      8  C   UNL d   1      30.992  16.609 -24.096  0.00  0.00     0.000 A 
ATOM      9  C   UNL d   1      31.418  15.917 -23.952  0.00  0.00     0.000 A 
ATOM     10  C   UNL d   1      32.205  15.943 -23.694  0.00  0.00     0.000 A 
ATOM     11  C   UNL d   1      32.563  16.672 -23.582  0.00  0.00     0.002 A 
ENDBRANCH   5   6
BRANCH   1  12
ATOM     12  C   UNL d   1      33.149  19.739 -22.457  0.00  0.00     0.231 C 
ATOM     13  O   UNL d   1      33.241  19.535 -21.688  0.00  0.00    -0.643 OA
ATOM     14  O   UNL d   1      33.239  20.535 -22.643  0.00  0.00    -0.643 OA
ENDBRANCH   1  12
TORSDOF 2
ENDMDL
