MODEL 1
REMARK VINA RESULT:      46.3      0.000      0.000
REMARK  8 active torsions:
REMARK  status: ('A' for Active; 'I' for Inactive)
REMARK    1  A    between atoms: S_10  and  C_2 
REMARK    2  A    between atoms: C_7  and  C_4 
REMARK    3  A    between atoms: C_17  and  S_10 
REMARK    4  A    between atoms: C_14  and  C_17 
REMARK    5  A    between atoms: O_18  and  C_14 
REMARK    6  A    between atoms: O_19  and  C_15 
REMARK    7  A    between atoms: C_22  and  O_18 
REMARK    8  A    between atoms: C_23  and  O_19 
ROOT
ATOM      1  C   UNL d   1     -50.938  25.880  33.409  0.00  0.00     0.093 A 
ATOM      2  C   UNL d   1     -50.115  25.754  33.437  0.00  0.00     0.124 A 
ATOM      3  N   UNL d   1     -49.818  24.984  33.466  0.00  0.00    -0.200 NA
ATOM      4  C   UNL d   1     -51.453  25.234  33.412  0.00  0.00     0.028 A 
ATOM      5  C   UNL d   1     -51.155  24.469  33.441  0.00  0.00     0.127 A 
ATOM      6  C   UNL d   1     -50.332  24.343  33.469  0.00  0.00     0.289 A 
ATOM      7  C   UNL d   1     -51.237  26.641  33.380  0.00  0.00     0.103 C 
ATOM      8  C   UNL d   1     -51.670  23.824  33.443  0.00  0.00     0.106 C 
ATOM      9  N   UNL d   1     -51.528  27.398  33.351  0.00  0.00    -0.191 NA
ATOM     10  N   UNL d   1     -52.175  23.190  33.446  0.00  0.00    -0.191 NA
ATOM     11  O   UNL d   1     -50.059  23.489  33.500  0.00  0.00    -0.264 OA
ENDROOT
BRANCH   2  12
ATOM     12  S   UNL d   1     -49.623  26.468  33.432  0.00  0.00    -0.061 SA
BRANCH  12  13
ATOM     13  C   UNL d   1     -49.188  26.831  34.094  0.00  0.00     0.105 C 
BRANCH  13  14
ATOM     14  C   UNL d   1     -48.749  27.570  33.960  0.00  0.00     0.307 C 
ATOM     15  O   UNL d   1     -48.644  27.759  33.478  0.00  0.00    -0.258 OA
BRANCH  14  16
ATOM     16  O   UNL d   1     -48.492  27.982  34.701  0.00  0.00    -0.271 OA
BRANCH  16  17
ATOM     17  C   UNL d   1     -48.853  27.663  35.466  0.00  0.00     0.126 C 
ATOM     18  C   UNL d   1     -48.810  28.349  36.104  0.00  0.00     0.029 C 
ENDBRANCH  16  17
ENDBRANCH  14  16
ENDBRANCH  13  14
ENDBRANCH  12  13
ENDBRANCH   2  12
BRANCH   4  19
ATOM     19  C   UNL d   1     -52.264  25.359  33.384  0.00  0.00     0.024 A 
ATOM     20  C   UNL d   1     -52.779  24.718  33.406  0.00  0.00     0.100 A 
ATOM     21  C   UNL d   1     -53.595  24.843  33.379  0.00  0.00     0.025 A 
ATOM     22  C   UNL d   1     -53.895  25.608  33.330  0.00  0.00     0.002 A 
ATOM     23  C   UNL d   1     -53.377  26.252  33.308  0.00  0.00     0.000 A 
ATOM     24  C   UNL d   1     -52.561  26.127  33.335  0.00  0.00     0.002 A 
BRANCH  20  25
ATOM     25  O   UNL d   1     -52.605  24.044  33.448  0.00  0.00    -0.305 OA
BRANCH  25  26
ATOM     26  C   UNL d   1     -53.217  23.539  33.306  0.00  0.00     0.123 C 
ATOM     27  C   UNL d   1     -54.061  23.823  33.572  0.00  0.00     0.029 C 
ENDBRANCH  25  26
ENDBRANCH  20  25
ENDBRANCH   4  19
TORSDOF 8
ENDMDL
