MODEL 1
REMARK VINA RESULT:      -0.3      0.000      0.000
REMARK  4 active torsions:
REMARK  status: ('A' for Active; 'I' for Inactive)
REMARK    1  A    between atoms: C_2  and  N_1 
REMARK    2  A    between atoms: C_14  and  C_7 
REMARK    3  A    between atoms: O_20  and  C_14 
REMARK    4  A    between atoms: C_23  and  O_20 
ROOT
ATOM      1  C   UNL d   1      32.850  18.108 -23.516  0.00  0.00     0.105 A 
ATOM      2  C   UNL d   1      32.316  17.888 -24.114  0.00  0.00     0.086 A 
ATOM      3  S   UNL d   1      33.215  17.434 -23.225  0.00  0.00    -0.069 SA
ATOM      4  C   UNL d   1      32.381  17.062 -24.163  0.00  0.00     0.013 A 
ATOM      5  C   UNL d   1      32.926  16.791 -23.623  0.00  0.00     0.031 A 
ATOM      6  C   UNL d   1      32.006  16.509 -24.640  0.00  0.00     0.001 A 
ATOM      7  C   UNL d   1      33.099  16.012 -23.551  0.00  0.00     0.006 A 
ATOM      8  C   UNL d   1      32.174  15.702 -24.576  0.00  0.00     0.000 A 
ATOM      9  C   UNL d   1      32.723  15.453 -24.030  0.00  0.00     0.001 A 
ENDROOT
BRANCH   1  10
ATOM     10  N   UNL d   1      32.923  18.920 -23.322  0.00  0.00    -0.236 N 
ATOM     11  C   UNL d   1      32.812  19.176 -22.550  0.00  0.00     0.266 A 
ATOM     12  C   UNL d   1      32.923  19.978 -22.561  0.00  0.00     0.069 A 
ATOM     13  O   UNL d   1      32.622  18.676 -21.902  0.00  0.00    -0.267 OA
ATOM     14  C   UNL d   1      32.886  20.538 -21.960  0.00  0.00     0.165 A 
ATOM     15  C   UNL d   1      33.104  20.220 -23.342  0.00  0.00     0.069 A 
ATOM     16  C   UNL d   1      33.024  21.337 -22.117  0.00  0.00     0.006 A 
ATOM     17  O   UNL d   1      33.054  20.546 -22.842  0.00  0.00    -0.341 OA
ATOM     18  C   UNL d   1      33.205  21.579 -22.898  0.00  0.00     0.006 A 
ATOM     19  C   UNL d   1      33.241  21.013 -23.498  0.00  0.00     0.165 A 
ATOM     20  C   UNL d   1      33.102  19.564 -23.805  0.00  0.00     0.266 A 
ATOM     21  O   UNL d   1      33.228  19.544 -24.486  0.00  0.00    -0.267 OA
ENDBRANCH   1  10
BRANCH   2  22
ATOM     22  C   UNL d   1      31.824  18.380 -24.565  0.00  0.00     0.302 C 
ATOM     23  O   UNL d   1      31.984  18.724 -24.949  0.00  0.00    -0.259 OA
BRANCH  22  24
ATOM     24  O   UNL d   1      30.991  18.353 -24.428  0.00  0.00    -0.271 OA
BRANCH  24  25
ATOM     25  C   UNL d   1      30.495  18.677 -24.976  0.00  0.00     0.126 C 
ATOM     26  C   UNL d   1      29.670  18.610 -24.845  0.00  0.00     0.029 C 
ENDBRANCH  24  25
ENDBRANCH  22  24
ENDBRANCH   2  22
TORSDOF 4
ENDMDL
MODEL 2
REMARK VINA RESULT:       0.2      2.660      4.588
REMARK  4 active torsions:
REMARK  status: ('A' for Active; 'I' for Inactive)
REMARK    1  A    between atoms: C_2  and  N_1 
REMARK    2  A    between atoms: C_14  and  C_7 
REMARK    3  A    between atoms: O_20  and  C_14 
REMARK    4  A    between atoms: C_23  and  O_20 
ROOT
ATOM      1  C   UNL d   1      30.539  15.913 -23.805  0.00  0.00     0.105 A 
ATOM      2  C   UNL d   1      30.882  16.557 -24.203  0.00  0.00     0.086 A 
ATOM      3  S   UNL d   1      31.134  15.465 -23.463  0.00  0.00    -0.069 SA
ATOM      4  C   UNL d   1      31.698  16.471 -24.083  0.00  0.00     0.013 A 
ATOM      5  C   UNL d   1      31.847  15.808 -23.634  0.00  0.00     0.031 A 
ATOM      6  C   UNL d   1      32.340  16.920 -24.329  0.00  0.00     0.001 A 
ATOM      7  C   UNL d   1      32.591  15.592 -23.433  0.00  0.00     0.006 A 
ATOM      8  C   UNL d   1      33.114  16.708 -24.129  0.00  0.00     0.000 A 
ATOM      9  C   UNL d   1      33.240  16.042 -23.680  0.00  0.00     0.001 A 
ENDROOT
BRANCH   1  10
ATOM     10  N   UNL d   1      29.704  15.831 -23.816  0.00  0.00    -0.236 N 
ATOM     11  C   UNL d   1      29.262  15.976 -23.141  0.00  0.00     0.266 A 
ATOM     12  C   UNL d   1      28.489  15.847 -23.345  0.00  0.00     0.069 A 
ATOM     13  O   UNL d   1      29.581  16.210 -22.400  0.00  0.00    -0.267 OA
ATOM     14  C   UNL d   1      27.796  15.902 -22.906  0.00  0.00     0.165 A 
ATOM     15  C   UNL d   1      28.453  15.621 -24.150  0.00  0.00     0.069 A 
ATOM     16  C   UNL d   1      27.063  15.738 -23.251  0.00  0.00     0.006 A 
ATOM     17  O   UNL d   1      28.011  15.689 -23.751  0.00  0.00    -0.341 OA
ATOM     18  C   UNL d   1      27.027  15.513 -24.056  0.00  0.00     0.006 A 
ATOM     19  C   UNL d   1      27.725  15.458 -24.492  0.00  0.00     0.165 A 
ATOM     20  C   UNL d   1      29.203  15.613 -24.434  0.00  0.00     0.266 A 
ATOM     21  O   UNL d   1      29.395  15.453 -25.081  0.00  0.00    -0.267 OA
ENDBRANCH   1  10
BRANCH   2  22
ATOM     22  C   UNL d   1      30.498  17.157 -24.629  0.00  0.00     0.302 C 
ATOM     23  O   UNL d   1      30.217  17.093 -25.085  0.00  0.00    -0.259 OA
BRANCH  22  24
ATOM     24  O   UNL d   1      30.540  17.949 -24.337  0.00  0.00    -0.271 OA
BRANCH  24  25
ATOM     25  C   UNL d   1      30.409  18.559 -24.848  0.00  0.00     0.126 C 
ATOM     26  C   UNL d   1      30.443  19.338 -24.541  0.00  0.00     0.029 C 
ENDBRANCH  24  25
ENDBRANCH  22  24
ENDBRANCH   2  22
TORSDOF 4
ENDMDL
MODEL 3
REMARK VINA RESULT:       0.7      3.094      4.250
REMARK  4 active torsions:
REMARK  status: ('A' for Active; 'I' for Inactive)
REMARK    1  A    between atoms: C_2  and  N_1 
REMARK    2  A    between atoms: C_14  and  C_7 
REMARK    3  A    between atoms: O_20  and  C_14 
REMARK    4  A    between atoms: C_23  and  O_20 
ROOT
ATOM      1  C   UNL d   1      29.765  15.919 -23.582  0.00  0.00     0.105 A 
ATOM      2  C   UNL d   1      29.210  16.392 -23.982  0.00  0.00     0.086 A 
ATOM      3  S   UNL d   1      29.382  15.504 -22.989  0.00  0.00    -0.069 SA
ATOM      4  C   UNL d   1      28.488  16.239 -23.602  0.00  0.00     0.013 A 
ATOM      5  C   UNL d   1      28.597  15.701 -23.002  0.00  0.00     0.031 A 
ATOM      6  C   UNL d   1      27.730  16.526 -23.728  0.00  0.00     0.001 A 
ATOM      7  C   UNL d   1      27.989  15.453 -22.542  0.00  0.00     0.006 A 
ATOM      8  C   UNL d   1      27.093  16.279 -23.261  0.00  0.00     0.000 A 
ATOM      9  C   UNL d   1      27.224  15.740 -22.666  0.00  0.00     0.001 A 
ENDROOT
BRANCH   1  10
ATOM     10  N   UNL d   1      30.565  15.942 -23.831  0.00  0.00    -0.236 N 
ATOM     11  C   UNL d   1      31.151  16.223 -23.329  0.00  0.00     0.266 A 
ATOM     12  C   UNL d   1      31.846  16.167 -23.740  0.00  0.00     0.069 A 
ATOM     13  O   UNL d   1      31.018  16.505 -22.549  0.00  0.00    -0.267 OA
ATOM     14  C   UNL d   1      32.616  16.362 -23.530  0.00  0.00     0.165 A 
ATOM     15  C   UNL d   1      31.691  15.850 -24.499  0.00  0.00     0.069 A 
ATOM     16  C   UNL d   1      33.240  16.250 -24.060  0.00  0.00     0.006 A 
ATOM     17  O   UNL d   1      32.211  16.022 -24.255  0.00  0.00    -0.341 OA
ATOM     18  C   UNL d   1      33.085  15.934 -24.819  0.00  0.00     0.006 A 
ATOM     19  C   UNL d   1      32.311  15.739 -25.025  0.00  0.00     0.165 A 
ATOM     20  C   UNL d   1      30.902  15.714 -24.549  0.00  0.00     0.266 A 
ATOM     21  O   UNL d   1      30.565  15.453 -25.096  0.00  0.00    -0.267 OA
ENDBRANCH   1  10
BRANCH   2  22
ATOM     22  C   UNL d   1      29.341  16.905 -24.620  0.00  0.00     0.302 C 
ATOM     23  O   UNL d   1      29.571  16.774 -25.091  0.00  0.00    -0.259 OA
BRANCH  22  24
ATOM     24  O   UNL d   1      29.101  17.711 -24.547  0.00  0.00    -0.271 OA
BRANCH  24  25
ATOM     25  C   UNL d   1      29.353  18.245 -25.096  0.00  0.00     0.126 C 
ATOM     26  C   UNL d   1      29.073  19.032 -25.033  0.00  0.00     0.029 C 
ENDBRANCH  24  25
ENDBRANCH  22  24
ENDBRANCH   2  22
TORSDOF 4
ENDMDL
MODEL 4
REMARK VINA RESULT:       1.3      1.914      4.386
REMARK  4 active torsions:
REMARK  status: ('A' for Active; 'I' for Inactive)
REMARK    1  A    between atoms: C_2  and  N_1 
REMARK    2  A    between atoms: C_14  and  C_7 
REMARK    3  A    between atoms: O_20  and  C_14 
REMARK    4  A    between atoms: C_23  and  O_20 
ROOT
ATOM      1  C   UNL d   1      31.147  17.907 -24.192  0.00  0.00     0.105 A 
ATOM      2  C   UNL d   1      31.645  17.764 -23.542  0.00  0.00     0.086 A 
ATOM      3  S   UNL d   1      31.374  18.607 -24.552  0.00  0.00    -0.069 SA
ATOM      4  C   UNL d   1      32.171  18.406 -23.533  0.00  0.00     0.013 A 
ATOM      5  C   UNL d   1      32.004  18.914 -24.146  0.00  0.00     0.031 A 
ATOM      6  C   UNL d   1      32.795  18.597 -23.035  0.00  0.00     0.001 A 
ATOM      7  C   UNL d   1      32.428  19.582 -24.269  0.00  0.00     0.006 A 
ATOM      8  C   UNL d   1      33.241  19.284 -23.150  0.00  0.00     0.000 A 
ATOM      9  C   UNL d   1      33.057  19.778 -23.769  0.00  0.00     0.001 A 
ENDROOT
BRANCH   1  10
ATOM     10  N   UNL d   1      30.540  17.354 -24.363  0.00  0.00    -0.236 N 
ATOM     11  C   UNL d   1      29.772  17.485 -24.107  0.00  0.00     0.266 A 
ATOM     12  C   UNL d   1      29.337  16.852 -24.363  0.00  0.00     0.069 A 
ATOM     13  O   UNL d   1      29.522  18.156 -23.667  0.00  0.00    -0.267 OA
ATOM     14  C   UNL d   1      28.540  16.672 -24.277  0.00  0.00     0.165 A 
ATOM     15  C   UNL d   1      29.838  16.327 -24.780  0.00  0.00     0.069 A 
ATOM     16  C   UNL d   1      28.226  15.978 -24.597  0.00  0.00     0.006 A 
ATOM     17  O   UNL d   1      29.251  16.286 -24.664  0.00  0.00    -0.341 OA
ATOM     18  C   UNL d   1      28.727  15.453 -25.013  0.00  0.00     0.006 A 
ATOM     19  C   UNL d   1      29.526  15.637 -25.097  0.00  0.00     0.165 A 
ATOM     20  C   UNL d   1      30.577  16.641 -24.776  0.00  0.00     0.266 A 
ATOM     21  O   UNL d   1      31.141  16.363 -25.067  0.00  0.00    -0.267 OA
ENDBRANCH   1  10
BRANCH   2  22
ATOM     22  C   UNL d   1      31.625  17.125 -23.014  0.00  0.00     0.302 C 
ATOM     23  O   UNL d   1      31.202  16.970 -22.718  0.00  0.00    -0.259 OA
BRANCH  22  24
ATOM     24  O   UNL d   1      32.324  16.659 -22.918  0.00  0.00    -0.271 OA
BRANCH  24  25
ATOM     25  C   UNL d   1      32.381  16.171 -22.279  0.00  0.00     0.126 C 
ATOM     26  C   UNL d   1      33.096  15.746 -22.175  0.00  0.00     0.029 C 
ENDBRANCH  24  25
ENDBRANCH  22  24
ENDBRANCH   2  22
TORSDOF 4
ENDMDL
