MODEL 1
REMARK VINA RESULT:      -3.2      0.000      0.000
REMARK  3 active torsions:
REMARK  status: ('A' for Active; 'I' for Inactive)
REMARK    1  A    between atoms: C_2  and  N_1 
REMARK    2  A    between atoms: C_4  and  N_1 
REMARK    3  A    between atoms: C_5  and  C_2 
ROOT
ATOM      1  N   UNL d   1      32.536  21.488 -21.096  0.00  0.00    -0.184 N 
ATOM      2  O   UNL d   1      31.843  21.053 -21.181  0.00  0.00    -0.080 OA
ENDROOT
BRANCH   1   3
ATOM      3  C   UNL d   1      33.241  21.200 -21.397  0.00  0.00     0.108 C 
BRANCH   3   4
ATOM      4  C   UNL d   1      33.236  20.577 -21.943  0.00  0.00     0.020 A 
ATOM      5  C   UNL d   1      33.228  19.794 -21.668  0.00  0.00     0.004 A 
ATOM      6  C   UNL d   1      33.223  19.173 -22.211  0.00  0.00     0.030 A 
ATOM      7  C   UNL d   1      33.227  19.326 -23.014  0.00  0.00     0.140 A 
ATOM      8  C   UNL d   1      33.236  20.105 -23.275  0.00  0.00     0.030 A 
ATOM      9  F   UNL d   1      33.223  18.708 -23.556  0.00  0.00    -0.204 F 
ATOM     10  C   UNL d   1      33.240  20.733 -22.740  0.00  0.00     0.004 A 
ENDBRANCH   3   4
ENDBRANCH   1   3
BRANCH   1  11
ATOM     11  C   UNL d   1      32.516  22.222 -20.704  0.00  0.00     0.090 A 
ATOM     12  C   UNL d   1      32.866  22.303 -19.974  0.00  0.00     0.020 A 
ATOM     13  C   UNL d   1      32.842  23.029 -19.593  0.00  0.00     0.002 A 
ATOM     14  C   UNL d   1      32.464  23.673 -19.950  0.00  0.00     0.000 A 
ATOM     15  C   UNL d   1      32.111  23.578 -20.694  0.00  0.00     0.002 A 
ATOM     16  C   UNL d   1      32.134  22.857 -21.073  0.00  0.00     0.020 A 
ENDBRANCH   1  11
TORSDOF 3
ENDMDL
MODEL 2
REMARK VINA RESULT:      -2.4      2.325      3.233
REMARK  3 active torsions:
REMARK  status: ('A' for Active; 'I' for Inactive)
REMARK    1  A    between atoms: C_2  and  N_1 
REMARK    2  A    between atoms: C_4  and  N_1 
REMARK    3  A    between atoms: C_5  and  C_2 
ROOT
ATOM      1  N   UNL d   1      32.476  23.077 -18.944  0.00  0.00    -0.184 N 
ATOM      2  O   UNL d   1      32.009  23.681 -19.248  0.00  0.00    -0.080 OA
ENDROOT
BRANCH   1   3
ATOM      3  C   UNL d   1      32.763  22.491 -19.438  0.00  0.00     0.108 C 
BRANCH   3   4
ATOM      4  C   UNL d   1      32.729  22.586 -20.260  0.00  0.00     0.020 A 
ATOM      5  C   UNL d   1      33.144  23.212 -20.615  0.00  0.00     0.004 A 
ATOM      6  C   UNL d   1      33.110  23.307 -21.434  0.00  0.00     0.030 A 
ATOM      7  C   UNL d   1      32.673  22.790 -21.893  0.00  0.00     0.140 A 
ATOM      8  C   UNL d   1      32.267  22.176 -21.531  0.00  0.00     0.030 A 
ATOM      9  F   UNL d   1      32.640  22.885 -22.709  0.00  0.00    -0.204 F 
ATOM     10  C   UNL d   1      32.294  22.071 -20.713  0.00  0.00     0.004 A 
ENDBRANCH   3   4
ENDBRANCH   1   3
BRANCH   1  11
ATOM     11  C   UNL d   1      32.656  23.066 -18.131  0.00  0.00     0.090 A 
ATOM     12  C   UNL d   1      33.067  22.441 -17.813  0.00  0.00     0.020 A 
ATOM     13  C   UNL d   1      33.241  22.437 -17.012  0.00  0.00     0.002 A 
ATOM     14  C   UNL d   1      32.999  23.066 -16.532  0.00  0.00     0.000 A 
ATOM     15  C   UNL d   1      32.580  23.698 -16.867  0.00  0.00     0.002 A 
ATOM     16  C   UNL d   1      32.408  23.702 -17.663  0.00  0.00     0.020 A 
ENDBRANCH   1  11
TORSDOF 3
ENDMDL
MODEL 3
REMARK VINA RESULT:      -2.4      2.778      4.396
REMARK  3 active torsions:
REMARK  status: ('A' for Active; 'I' for Inactive)
REMARK    1  A    between atoms: C_2  and  N_1 
REMARK    2  A    between atoms: C_4  and  N_1 
REMARK    3  A    between atoms: C_5  and  C_2 
ROOT
ATOM      1  N   UNL d   1      32.611  23.111 -19.916  0.00  0.00    -0.184 N 
ATOM      2  O   UNL d   1      31.907  23.450 -19.660  0.00  0.00    -0.080 OA
ENDROOT
BRANCH   1   3
ATOM      3  C   UNL d   1      33.241  23.031 -19.399  0.00  0.00     0.108 C 
BRANCH   3   4
ATOM      4  C   UNL d   1      33.109  23.028 -18.581  0.00  0.00     0.020 A 
ATOM      5  C   UNL d   1      33.240  22.331 -18.149  0.00  0.00     0.004 A 
ATOM      6  C   UNL d   1      33.109  22.328 -17.335  0.00  0.00     0.030 A 
ATOM      7  C   UNL d   1      32.853  23.004 -16.954  0.00  0.00     0.140 A 
ATOM      8  C   UNL d   1      32.727  23.688 -17.391  0.00  0.00     0.030 A 
ATOM      9  F   UNL d   1      32.722  23.001 -16.143  0.00  0.00    -0.204 F 
ATOM     10  C   UNL d   1      32.854  23.702 -18.206  0.00  0.00     0.004 A 
ENDBRANCH   3   4
ENDBRANCH   1   3
BRANCH   1  11
ATOM     11  C   UNL d   1      32.679  22.851 -20.704  0.00  0.00     0.090 A 
ATOM     12  C   UNL d   1      32.418  22.109 -20.912  0.00  0.00     0.020 A 
ATOM     13  C   UNL d   1      32.488  21.859 -21.689  0.00  0.00     0.002 A 
ATOM     14  C   UNL d   1      32.823  22.359 -22.257  0.00  0.00     0.000 A 
ATOM     15  C   UNL d   1      33.086  23.113 -22.034  0.00  0.00     0.002 A 
ATOM     16  C   UNL d   1      33.017  23.361 -21.261  0.00  0.00     0.020 A 
ENDBRANCH   1  11
TORSDOF 3
ENDMDL
MODEL 4
REMARK VINA RESULT:      -2.4      1.898      4.112
REMARK  3 active torsions:
REMARK  status: ('A' for Active; 'I' for Inactive)
REMARK    1  A    between atoms: C_2  and  N_1 
REMARK    2  A    between atoms: C_4  and  N_1 
REMARK    3  A    between atoms: C_5  and  C_2 
ROOT
ATOM      1  N   UNL d   1      33.010  19.627 -22.786  0.00  0.00    -0.184 N 
ATOM      2  O   UNL d   1      33.241  20.197 -23.331  0.00  0.00    -0.080 OA
ENDROOT
BRANCH   1   3
ATOM      3  C   UNL d   1      32.967  19.812 -21.990  0.00  0.00     0.108 C 
BRANCH   3   4
ATOM      4  C   UNL d   1      32.826  20.593 -21.752  0.00  0.00     0.020 A 
ATOM      5  C   UNL d   1      32.260  20.744 -21.164  0.00  0.00     0.004 A 
ATOM      6  C   UNL d   1      32.119  21.522 -20.927  0.00  0.00     0.030 A 
ATOM      7  C   UNL d   1      32.533  22.140 -21.268  0.00  0.00     0.140 A 
ATOM      8  C   UNL d   1      33.090  21.978 -21.849  0.00  0.00     0.030 A 
ATOM      9  F   UNL d   1      32.393  22.915 -21.032  0.00  0.00    -0.204 F 
ATOM     10  C   UNL d   1      33.239  21.204 -22.093  0.00  0.00     0.004 A 
ENDBRANCH   3   4
ENDBRANCH   1   3
BRANCH   1  11
ATOM     11  C   UNL d   1      32.821  18.860 -23.049  0.00  0.00     0.090 A 
ATOM     12  C   UNL d   1      33.091  18.210 -22.640  0.00  0.00     0.020 A 
ATOM     13  C   UNL d   1      32.901  17.458 -22.905  0.00  0.00     0.002 A 
ATOM     14  C   UNL d   1      32.437  17.362 -23.584  0.00  0.00     0.000 A 
ATOM     15  C   UNL d   1      32.168  18.030 -23.992  0.00  0.00     0.002 A 
ATOM     16  C   UNL d   1      32.356  18.778 -23.730  0.00  0.00     0.020 A 
ENDBRANCH   1  11
TORSDOF 3
ENDMDL
MODEL 5
REMARK VINA RESULT:      -2.2      1.631      2.520
REMARK  3 active torsions:
REMARK  status: ('A' for Active; 'I' for Inactive)
REMARK    1  A    between atoms: C_2  and  N_1 
REMARK    2  A    between atoms: C_4  and  N_1 
REMARK    3  A    between atoms: C_5  and  C_2 
ROOT
ATOM      1  N   UNL d   1      33.092  19.601 -22.294  0.00  0.00    -0.184 N 
ATOM      2  O   UNL d   1      33.226  19.011 -21.738  0.00  0.00    -0.080 OA
ENDROOT
BRANCH   1   3
ATOM      3  C   UNL d   1      33.013  19.409 -23.086  0.00  0.00     0.108 C 
BRANCH   3   4
ATOM      4  C   UNL d   1      32.784  18.645 -23.308  0.00  0.00     0.020 A 
ATOM      5  C   UNL d   1      32.090  18.539 -23.751  0.00  0.00     0.004 A 
ATOM      6  C   UNL d   1      31.863  17.778 -23.972  0.00  0.00     0.030 A 
ATOM      7  C   UNL d   1      32.315  17.131 -23.758  0.00  0.00     0.140 A 
ATOM      8  C   UNL d   1      33.000  17.248 -23.319  0.00  0.00     0.030 A 
ATOM      9  F   UNL d   1      32.089  16.373 -23.978  0.00  0.00    -0.204 F 
ATOM     10  C   UNL d   1      33.237  18.005 -23.093  0.00  0.00     0.004 A 
ENDBRANCH   3   4
ENDBRANCH   1   3
BRANCH   1  11
ATOM     11  C   UNL d   1      33.037  20.394 -22.047  0.00  0.00     0.090 A 
ATOM     12  C   UNL d   1      32.816  20.569 -21.284  0.00  0.00     0.020 A 
ATOM     13  C   UNL d   1      32.763  21.351 -21.047  0.00  0.00     0.002 A 
ATOM     14  C   UNL d   1      32.935  21.960 -21.582  0.00  0.00     0.000 A 
ATOM     15  C   UNL d   1      33.159  21.770 -22.357  0.00  0.00     0.002 A 
ATOM     16  C   UNL d   1      33.211  20.992 -22.593  0.00  0.00     0.020 A 
ENDBRANCH   1  11
TORSDOF 3
ENDMDL
MODEL 6
REMARK VINA RESULT:      -2.1      2.646      5.096
REMARK  3 active torsions:
REMARK  status: ('A' for Active; 'I' for Inactive)
REMARK    1  A    between atoms: C_2  and  N_1 
REMARK    2  A    between atoms: C_4  and  N_1 
REMARK    3  A    between atoms: C_5  and  C_2 
ROOT
ATOM      1  N   UNL d   1      32.456  17.877 -23.522  0.00  0.00    -0.184 N 
ATOM      2  O   UNL d   1      31.753  18.302 -23.505  0.00  0.00    -0.080 OA
ENDROOT
BRANCH   1   3
ATOM      3  C   UNL d   1      33.169  18.255 -23.384  0.00  0.00     0.108 C 
BRANCH   3   4
ATOM      4  C   UNL d   1      33.178  19.030 -23.091  0.00  0.00     0.020 A 
ATOM      5  C   UNL d   1      33.133  19.157 -22.272  0.00  0.00     0.004 A 
ATOM      6  C   UNL d   1      33.142  19.929 -21.981  0.00  0.00     0.030 A 
ATOM      7  C   UNL d   1      33.196  20.564 -22.494  0.00  0.00     0.140 A 
ATOM      8  C   UNL d   1      33.241  20.426 -23.302  0.00  0.00     0.030 A 
ATOM      9  F   UNL d   1      33.206  21.333 -22.204  0.00  0.00    -0.204 F 
ATOM     10  C   UNL d   1      33.232  19.658 -23.604  0.00  0.00     0.004 A 
ENDBRANCH   3   4
ENDBRANCH   1   3
BRANCH   1  11
ATOM     11  C   UNL d   1      32.439  17.060 -23.682  0.00  0.00     0.090 A 
ATOM     12  C   UNL d   1      33.028  16.718 -24.126  0.00  0.00     0.020 A 
ATOM     13  C   UNL d   1      33.004  15.914 -24.279  0.00  0.00     0.002 A 
ATOM     14  C   UNL d   1      32.384  15.453 -23.983  0.00  0.00     0.000 A 
ATOM     15  C   UNL d   1      31.789  15.811 -23.531  0.00  0.00     0.002 A 
ATOM     16  C   UNL d   1      31.812  16.611 -23.379  0.00  0.00     0.020 A 
ENDBRANCH   1  11
TORSDOF 3
ENDMDL
MODEL 7
REMARK VINA RESULT:      -1.1      2.441      2.867
REMARK  3 active torsions:
REMARK  status: ('A' for Active; 'I' for Inactive)
REMARK    1  A    between atoms: C_2  and  N_1 
REMARK    2  A    between atoms: C_4  and  N_1 
REMARK    3  A    between atoms: C_5  and  C_2 
ROOT
ATOM      1  N   UNL d   1      32.561  22.857 -21.201  0.00  0.00    -0.184 N 
ATOM      2  O   UNL d   1      32.593  22.114 -21.550  0.00  0.00    -0.080 OA
ENDROOT
BRANCH   1   3
ATOM      3  C   UNL d   1      32.449  23.524 -21.663  0.00  0.00     0.108 C 
BRANCH   3   4
ATOM      4  C   UNL d   1      32.508  23.472 -22.488  0.00  0.00     0.020 A 
ATOM      5  C   UNL d   1      31.864  23.702 -22.958  0.00  0.00     0.004 A 
ATOM      6  C   UNL d   1      31.923  23.651 -23.779  0.00  0.00     0.030 A 
ATOM      7  C   UNL d   1      32.609  23.377 -24.129  0.00  0.00     0.140 A 
ATOM      8  C   UNL d   1      33.240  23.152 -23.654  0.00  0.00     0.030 A 
ATOM      9  F   UNL d   1      32.667  23.326 -24.947  0.00  0.00    -0.204 F 
ATOM     10  C   UNL d   1      33.192  23.199 -22.832  0.00  0.00     0.004 A 
ENDBRANCH   3   4
ENDBRANCH   1   3
BRANCH   1  11
ATOM     11  C   UNL d   1      32.643  22.928 -20.376  0.00  0.00     0.090 A 
ATOM     12  C   UNL d   1      32.330  23.572 -19.989  0.00  0.00     0.020 A 
ATOM     13  C   UNL d   1      32.414  23.635 -19.176  0.00  0.00     0.002 A 
ATOM     14  C   UNL d   1      32.815  23.047 -18.753  0.00  0.00     0.000 A 
ATOM     15  C   UNL d   1      33.130  22.396 -19.158  0.00  0.00     0.002 A 
ATOM     16  C   UNL d   1      33.046  22.332 -19.965  0.00  0.00     0.020 A 
ENDBRANCH   1  11
TORSDOF 3
ENDMDL
