MODEL 1
REMARK VINA RESULT:      -0.2      0.000      0.000
REMARK  3 active torsions:
REMARK  status: ('A' for Active; 'I' for Inactive)
REMARK    1  A    between atoms: C_11  and  C_6 
REMARK    2  A    between atoms: O_20  and  C_11 
REMARK    3  A    between atoms: C_22  and  O_20 
ROOT
ATOM      1  C   UNL d   1     -41.627-121.838 -52.804  0.00  0.00     0.155 A 
ATOM      2  C   UNL d   1     -41.871-122.626 -52.773  0.00  0.00     0.091 A 
ATOM      3  N   UNL d   1     -41.597-121.445 -53.526  0.00  0.00    -0.210 NA
ATOM      4  N   UNL d   1     -42.055-122.625 -54.186  0.00  0.00    -0.258 N 
ATOM      5  N   UNL d   1     -41.413-121.445 -52.113  0.00  0.00    -0.272 N 
ATOM      6  C   UNL d   1     -41.686-122.626 -51.351  0.00  0.00     0.100 A 
ATOM      7  C   UNL d   1     -41.810-121.838 -54.209  0.00  0.00     0.152 A 
ATOM      8  C   UNL d   1     -42.085-123.020 -53.463  0.00  0.00     0.269 A 
ATOM      9  C   UNL d   1     -41.442-121.839 -51.382  0.00  0.00     0.176 A 
ATOM     10  C   UNL d   1     -41.903-123.024 -52.050  0.00  0.00     0.016 A 
ATOM     11  C   UNL d   1     -41.781-121.444 -54.939  0.00  0.00     0.035 A 
ATOM     12  C   UNL d   1     -42.269-123.019 -54.876  0.00  0.00     0.084 A 
ATOM     13  N   UNL d   1     -41.228-121.446 -50.688  0.00  0.00    -0.128 N 
ATOM     14  O   UNL d   1     -42.330-123.807 -53.432  0.00  0.00    -0.266 OA
ATOM     15  C   UNL d   1     -42.238-122.624 -55.590  0.00  0.00     0.019 A 
ATOM     16  C   UNL d   1     -41.994-121.837 -55.622  0.00  0.00     0.005 A 
ATOM     17  C   UNL d   1     -41.169-120.658 -52.144  0.00  0.00     0.102 C 
ATOM     18  C   UNL d   1     -41.536-120.657 -54.971  0.00  0.00     0.003 C 
ENDROOT
BRANCH   6  19
ATOM     19  C   UNL d   1     -41.716-123.021 -50.625  0.00  0.00     0.303 C 
ATOM     20  O   UNL d   1     -41.123-123.557 -50.422  0.00  0.00    -0.259 OA
BRANCH  19  21
ATOM     21  O   UNL d   1     -42.339-122.878 -50.105  0.00  0.00    -0.271 OA
BRANCH  21  22
ATOM     22  C   UNL d   1     -42.440-123.361 -49.446  0.00  0.00     0.126 C 
ATOM     23  C   UNL d   1     -43.135-123.312 -49.005  0.00  0.00     0.029 C 
ENDBRANCH  21  22
ENDBRANCH  19  21
ENDBRANCH   6  19
TORSDOF 3
ENDMDL
MODEL 2
REMARK VINA RESULT:       0.7      1.475      4.563
REMARK  3 active torsions:
REMARK  status: ('A' for Active; 'I' for Inactive)
REMARK    1  A    between atoms: C_11  and  C_6 
REMARK    2  A    between atoms: O_20  and  C_11 
REMARK    3  A    between atoms: C_22  and  O_20 
ROOT
ATOM      1  C   UNL d   1     -42.063-122.205 -49.980  0.00  0.00     0.155 A 
ATOM      2  C   UNL d   1     -42.535-122.742 -50.391  0.00  0.00     0.091 A 
ATOM      3  N   UNL d   1     -42.059-122.205 -49.157  0.00  0.00    -0.210 NA
ATOM      4  N   UNL d   1     -42.999-123.280 -49.155  0.00  0.00    -0.258 N 
ATOM      5  N   UNL d   1     -41.595-121.668 -50.392  0.00  0.00    -0.272 N 
ATOM      6  C   UNL d   1     -42.067-122.202 -51.634  0.00  0.00     0.100 A 
ATOM      7  C   UNL d   1     -42.524-122.739 -48.751  0.00  0.00     0.152 A 
ATOM      8  C   UNL d   1     -43.003-123.280 -49.979  0.00  0.00     0.269 A 
ATOM      9  C   UNL d   1     -41.595-121.664 -51.223  0.00  0.00     0.176 A 
ATOM     10  C   UNL d   1     -42.541-122.745 -51.217  0.00  0.00     0.016 A 
ATOM     11  C   UNL d   1     -42.523-122.743 -47.921  0.00  0.00     0.035 A 
ATOM     12  C   UNL d   1     -43.467-123.817 -48.744  0.00  0.00     0.084 A 
ATOM     13  N   UNL d   1     -41.126-121.126 -51.638  0.00  0.00    -0.128 N 
ATOM     14  O   UNL d   1     -43.475-123.817 -50.390  0.00  0.00    -0.266 OA
ATOM     15  C   UNL d   1     -43.460-123.814 -47.928  0.00  0.00     0.019 A 
ATOM     16  C   UNL d   1     -42.988-123.277 -47.516  0.00  0.00     0.005 A 
ATOM     17  C   UNL d   1     -41.123-121.130 -49.981  0.00  0.00     0.102 C 
ATOM     18  C   UNL d   1     -42.051-122.205 -47.510  0.00  0.00     0.003 C 
ENDROOT
BRANCH   6  19
ATOM     19  C   UNL d   1     -42.071-122.200 -52.460  0.00  0.00     0.303 C 
ATOM     20  O   UNL d   1     -42.470-121.606 -52.870  0.00  0.00    -0.259 OA
BRANCH  19  21
ATOM     21  O   UNL d   1     -41.674-122.793 -52.874  0.00  0.00    -0.271 OA
BRANCH  21  22
ATOM     22  C   UNL d   1     -41.492-122.685 -53.669  0.00  0.00     0.126 C 
ATOM     23  C   UNL d   1     -41.369-123.340 -54.154  0.00  0.00     0.029 C 
ENDBRANCH  21  22
ENDBRANCH  19  21
ENDBRANCH   6  19
TORSDOF 3
ENDMDL
MODEL 3
REMARK VINA RESULT:       1.7      1.323      1.885
REMARK  3 active torsions:
REMARK  status: ('A' for Active; 'I' for Inactive)
REMARK    1  A    between atoms: C_11  and  C_6 
REMARK    2  A    between atoms: O_20  and  C_11 
REMARK    3  A    between atoms: C_22  and  O_20 
ROOT
ATOM      1  C   UNL d   1     -42.453-122.139 -51.387  0.00  0.00     0.155 A 
ATOM      2  C   UNL d   1     -42.009-122.827 -51.284  0.00  0.00     0.091 A 
ATOM      3  N   UNL d   1     -42.453-121.753 -52.114  0.00  0.00    -0.210 NA
ATOM      4  N   UNL d   1     -41.566-122.743 -52.636  0.00  0.00    -0.258 N 
ATOM      5  N   UNL d   1     -42.896-121.837 -50.762  0.00  0.00    -0.272 N 
ATOM      6  C   UNL d   1     -42.455-122.911 -49.924  0.00  0.00     0.100 A 
ATOM      7  C   UNL d   1     -42.012-122.056 -52.731  0.00  0.00     0.152 A 
ATOM      8  C   UNL d   1     -41.566-123.129 -51.908  0.00  0.00     0.269 A 
ATOM      9  C   UNL d   1     -42.898-122.222 -50.027  0.00  0.00     0.176 A 
ATOM     10  C   UNL d   1     -42.006-123.216 -50.556  0.00  0.00     0.016 A 
ATOM     11  C   UNL d   1     -42.010-121.670 -53.466  0.00  0.00     0.035 A 
ATOM     12  C   UNL d   1     -41.123-123.046 -53.260  0.00  0.00     0.084 A 
ATOM     13  N   UNL d   1     -43.342-121.921 -49.399  0.00  0.00    -0.128 N 
ATOM     14  O   UNL d   1     -41.123-123.817 -51.806  0.00  0.00    -0.266 OA
ATOM     15  C   UNL d   1     -41.127-122.660 -53.980  0.00  0.00     0.019 A 
ATOM     16  C   UNL d   1     -41.570-121.972 -54.082  0.00  0.00     0.005 A 
ATOM     17  C   UNL d   1     -43.339-121.149 -50.865  0.00  0.00     0.102 C 
ATOM     18  C   UNL d   1     -42.454-120.982 -53.569  0.00  0.00     0.003 C 
ENDROOT
BRANCH   6  19
ATOM     19  C   UNL d   1     -42.455-123.297 -49.193  0.00  0.00     0.303 C 
ATOM     20  O   UNL d   1     -43.142-123.663 -48.921  0.00  0.00    -0.259 OA
BRANCH  19  21
ATOM     21  O   UNL d   1     -41.769-123.316 -48.737  0.00  0.00    -0.271 OA
BRANCH  21  22
ATOM     22  C   UNL d   1     -41.778-123.678 -47.999  0.00  0.00     0.126 C 
ATOM     23  C   UNL d   1     -41.127-123.607 -47.499  0.00  0.00     0.029 C 
ENDBRANCH  21  22
ENDBRANCH  19  21
ENDBRANCH   6  19
TORSDOF 3
ENDMDL
