MODEL 1
REMARK VINA RESULT:      -5.8      0.000      0.000
REMARK  4 active torsions:
REMARK  status: ('A' for Active; 'I' for Inactive)
REMARK    1  A    between atoms: C_5  and  S_1 
REMARK    2  A    between atoms: N_8  and  S_1 
REMARK    3  A    between atoms: C_6  and  C_14 
REMARK    4  A    between atoms: C_14  and  N_8 
ROOT
ATOM      1  N   UNL d   1     -47.625  13.762  23.240  0.00  0.00    -0.155 NA
ENDROOT
BRANCH   1   2
ATOM      2  S   UNL d   1     -46.917  13.438  22.984  0.00  0.00     0.291 S 
ATOM      3  O   UNL d   1     -46.529  14.038  23.405  0.00  0.00    -0.198 OA
ATOM      4  O   UNL d   1     -47.312  12.846  22.569  0.00  0.00    -0.198 OA
BRANCH   2   5
ATOM      5  C   UNL d   1     -46.188  13.109  22.724  0.00  0.00     0.135 A 
ATOM      6  S   UNL d   1     -45.883  12.375  22.948  0.00  0.00    -0.073 SA
ATOM      7  C   UNL d   1     -45.143  12.268  22.557  0.00  0.00     0.036 A 
ATOM      8  C   UNL d   1     -45.001  12.949  22.091  0.00  0.00     0.008 A 
ATOM      9  C   UNL d   1     -45.647  13.477  22.190  0.00  0.00     0.020 A 
ENDBRANCH   2   5
ENDBRANCH   1   2
BRANCH   1  10
ATOM     10  C   UNL d   1     -48.195  13.986  22.694  0.00  0.00     0.133 C 
BRANCH  10  11
ATOM     11  C   UNL d   1     -48.877  14.369  22.940  0.00  0.00     0.121 A 
ATOM     12  N   UNL d   1     -49.557  14.011  23.226  0.00  0.00    -0.219 NA
ATOM     13  C   UNL d   1     -50.102  14.599  23.408  0.00  0.00     0.180 A 
ATOM     14  S   UNL d   1     -50.856  14.746  23.696  0.00  0.00    -0.048 SA
ATOM     15  N   UNL d   1     -49.753  15.334  23.231  0.00  0.00    -0.282 N 
ATOM     16  C   UNL d   1     -50.975  15.563  23.698  0.00  0.00     0.057 A 
ATOM     17  C   UNL d   1     -50.296  15.917  23.412  0.00  0.00     0.089 A 
ATOM     18  C   UNL d   1     -48.995  15.186  22.942  0.00  0.00     0.103 A 
ENDBRANCH  10  11
ENDBRANCH   1  10
TORSDOF 4
ENDMDL
MODEL 2
REMARK VINA RESULT:      -5.6      1.270      4.468
REMARK  4 active torsions:
REMARK  status: ('A' for Active; 'I' for Inactive)
REMARK    1  A    between atoms: C_5  and  S_1 
REMARK    2  A    between atoms: N_8  and  S_1 
REMARK    3  A    between atoms: C_6  and  C_14 
REMARK    4  A    between atoms: C_14  and  N_8 
ROOT
ATOM      1  N   UNL d   1     -48.398  14.124  22.738  0.00  0.00    -0.155 NA
ENDROOT
BRANCH   1   2
ATOM      2  S   UNL d   1     -49.076  14.532  22.955  0.00  0.00     0.291 S 
ATOM      3  O   UNL d   1     -48.736  15.209  22.620  0.00  0.00    -0.198 OA
ATOM      4  O   UNL d   1     -49.404  13.853  23.286  0.00  0.00    -0.198 OA
BRANCH   2   5
ATOM      5  C   UNL d   1     -49.769  14.954  23.177  0.00  0.00     0.135 A 
ATOM      6  S   UNL d   1     -50.546  14.724  23.015  0.00  0.00    -0.073 SA
ATOM      7  C   UNL d   1     -51.064  15.307  23.336  0.00  0.00     0.036 A 
ATOM      8  C   UNL d   1     -50.591  15.896  23.697  0.00  0.00     0.008 A 
ATOM      9  C   UNL d   1     -49.784  15.683  23.601  0.00  0.00     0.020 A 
ENDBRANCH   2   5
ENDBRANCH   1   2
BRANCH   1  10
ATOM     10  C   UNL d   1     -47.759  14.088  23.251  0.00  0.00     0.133 C 
BRANCH  10  11
ATOM     11  C   UNL d   1     -47.088  13.663  23.046  0.00  0.00     0.121 A 
ATOM     12  N   UNL d   1     -46.484  13.918  22.554  0.00  0.00    -0.219 NA
ATOM     13  C   UNL d   1     -45.923  13.319  22.501  0.00  0.00     0.180 A 
ATOM     14  S   UNL d   1     -45.206  13.103  22.167  0.00  0.00    -0.048 SA
ATOM     15  N   UNL d   1     -46.185  12.681  22.968  0.00  0.00    -0.282 N 
ATOM     16  C   UNL d   1     -45.023  12.340  22.423  0.00  0.00     0.057 A 
ATOM     17  C   UNL d   1     -45.627  12.088  22.913  0.00  0.00     0.089 A 
ATOM     18  C   UNL d   1     -46.907  12.900  23.303  0.00  0.00     0.103 A 
ENDBRANCH  10  11
ENDBRANCH   1  10
TORSDOF 4
ENDMDL
MODEL 3
REMARK VINA RESULT:      -5.2      1.440      4.444
REMARK  4 active torsions:
REMARK  status: ('A' for Active; 'I' for Inactive)
REMARK    1  A    between atoms: C_5  and  S_1 
REMARK    2  A    between atoms: N_8  and  S_1 
REMARK    3  A    between atoms: C_6  and  C_14 
REMARK    4  A    between atoms: C_14  and  N_8 
ROOT
ATOM      1  N   UNL d   1     -48.612  13.600  22.814  0.00  0.00    -0.155 NA
ENDROOT
BRANCH   1   2
ATOM      2  S   UNL d   1     -49.247  14.111  22.903  0.00  0.00     0.291 S 
ATOM      3  O   UNL d   1     -49.723  13.444  23.032  0.00  0.00    -0.198 OA
ATOM      4  O   UNL d   1     -48.765  14.767  22.774  0.00  0.00    -0.198 OA
BRANCH   2   5
ATOM      5  C   UNL d   1     -49.901  14.632  22.996  0.00  0.00     0.135 A 
ATOM      6  S   UNL d   1     -50.493  14.768  22.436  0.00  0.00    -0.073 SA
ATOM      7  C   UNL d   1     -51.036  15.328  22.759  0.00  0.00     0.036 A 
ATOM      8  C   UNL d   1     -50.766  15.531  23.525  0.00  0.00     0.008 A 
ATOM      9  C   UNL d   1     -50.060  15.101  23.680  0.00  0.00     0.020 A 
ENDBRANCH   2   5
ENDBRANCH   1   2
BRANCH   1  10
ATOM     10  C   UNL d   1     -47.965  13.657  23.315  0.00  0.00     0.133 C 
BRANCH  10  11
ATOM     11  C   UNL d   1     -47.410  13.055  23.343  0.00  0.00     0.121 A 
ATOM     12  N   UNL d   1     -47.528  12.302  23.644  0.00  0.00    -0.219 NA
ATOM     13  C   UNL d   1     -46.827  11.878  23.564  0.00  0.00     0.180 A 
ATOM     14  S   UNL d   1     -46.464  11.155  23.697  0.00  0.00    -0.048 SA
ATOM     15  N   UNL d   1     -46.266  12.379  23.206  0.00  0.00    -0.282 N 
ATOM     16  C   UNL d   1     -45.686  11.205  23.427  0.00  0.00     0.057 A 
ATOM     17  C   UNL d   1     -45.571  11.957  23.127  0.00  0.00     0.089 A 
ATOM     18  C   UNL d   1     -46.632  13.106  23.072  0.00  0.00     0.103 A 
ENDBRANCH  10  11
ENDBRANCH   1  10
TORSDOF 4
ENDMDL
MODEL 4
REMARK VINA RESULT:      -5.2      0.907      1.194
REMARK  4 active torsions:
REMARK  status: ('A' for Active; 'I' for Inactive)
REMARK    1  A    between atoms: C_5  and  S_1 
REMARK    2  A    between atoms: N_8  and  S_1 
REMARK    3  A    between atoms: C_6  and  C_14 
REMARK    4  A    between atoms: C_14  and  N_8 
ROOT
ATOM      1  N   UNL d   1     -47.874  13.378  23.573  0.00  0.00    -0.155 NA
ENDROOT
BRANCH   1   2
ATOM      2  S   UNL d   1     -47.248  12.859  23.466  0.00  0.00     0.291 S 
ATOM      3  O   UNL d   1     -47.778  12.241  23.618  0.00  0.00    -0.198 OA
ATOM      4  O   UNL d   1     -46.729  13.482  23.315  0.00  0.00    -0.198 OA
BRANCH   2   5
ATOM      5  C   UNL d   1     -46.609  12.324  23.356  0.00  0.00     0.135 A 
ATOM      6  S   UNL d   1     -46.569  11.553  23.652  0.00  0.00    -0.073 SA
ATOM      7  C   UNL d   1     -45.833  11.218  23.410  0.00  0.00     0.036 A 
ATOM      8  C   UNL d   1     -45.425  11.796  22.963  0.00  0.00     0.008 A 
ATOM      9  C   UNL d   1     -45.902  12.487  22.925  0.00  0.00     0.020 A 
ENDBRANCH   2   5
ENDBRANCH   1   2
BRANCH   1  10
ATOM     10  C   UNL d   1     -48.407  13.510  22.964  0.00  0.00     0.133 C 
BRANCH  10  11
ATOM     11  C   UNL d   1     -49.055  13.998  23.081  0.00  0.00     0.121 A 
ATOM     12  N   UNL d   1     -49.073  14.812  22.983  0.00  0.00    -0.219 NA
ATOM     13  C   UNL d   1     -49.831  15.078  23.157  0.00  0.00     0.180 A 
ATOM     14  S   UNL d   1     -50.313  15.740  23.206  0.00  0.00    -0.048 SA
ATOM     15  N   UNL d   1     -50.292  14.416  23.367  0.00  0.00    -0.282 N 
ATOM     16  C   UNL d   1     -51.064  15.493  23.443  0.00  0.00     0.057 A 
ATOM     17  C   UNL d   1     -51.044  14.681  23.539  0.00  0.00     0.089 A 
ATOM     18  C   UNL d   1     -49.806  13.750  23.317  0.00  0.00     0.103 A 
ENDBRANCH  10  11
ENDBRANCH   1  10
TORSDOF 4
ENDMDL
MODEL 5
REMARK VINA RESULT:      -5.0      1.818      4.764
REMARK  4 active torsions:
REMARK  status: ('A' for Active; 'I' for Inactive)
REMARK    1  A    between atoms: C_5  and  S_1 
REMARK    2  A    between atoms: N_8  and  S_1 
REMARK    3  A    between atoms: C_6  and  C_14 
REMARK    4  A    between atoms: C_14  and  N_8 
ROOT
ATOM      1  N   UNL d   1     -47.192  12.636  22.581  0.00  0.00    -0.155 NA
ENDROOT
BRANCH   1   2
ATOM      2  S   UNL d   1     -47.769  13.217  22.527  0.00  0.00     0.291 S 
ATOM      3  O   UNL d   1     -48.226  12.676  22.096  0.00  0.00    -0.198 OA
ATOM      4  O   UNL d   1     -47.305  13.746  22.956  0.00  0.00    -0.198 OA
BRANCH   2   5
ATOM      5  C   UNL d   1     -48.362  13.810  22.470  0.00  0.00     0.135 A 
ATOM      6  S   UNL d   1     -49.081  13.736  22.070  0.00  0.00    -0.073 SA
ATOM      7  C   UNL d   1     -49.505  14.461  22.155  0.00  0.00     0.036 A 
ATOM      8  C   UNL d   1     -49.032  14.978  22.613  0.00  0.00     0.008 A 
ATOM      9  C   UNL d   1     -48.319  14.580  22.813  0.00  0.00     0.020 A 
ENDBRANCH   2   5
ENDBRANCH   1   2
BRANCH   1  10
ATOM     10  C   UNL d   1     -46.857  12.456  23.307  0.00  0.00     0.133 C 
BRANCH  10  11
ATOM     11  C   UNL d   1     -46.245  11.913  23.358  0.00  0.00     0.121 A 
ATOM     12  N   UNL d   1     -45.456  12.056  23.186  0.00  0.00    -0.219 NA
ATOM     13  C   UNL d   1     -45.033  11.362  23.311  0.00  0.00     0.180 A 
ATOM     14  S   UNL d   1     -44.289  11.018  23.283  0.00  0.00    -0.048 SA
ATOM     15  N   UNL d   1     -45.571  10.778  23.564  0.00  0.00    -0.282 N 
ATOM     16  C   UNL d   1     -44.363  10.229  23.517  0.00  0.00     0.057 A 
ATOM     17  C   UNL d   1     -45.150  10.090  23.688  0.00  0.00     0.089 A 
ATOM     18  C   UNL d   1     -46.319  11.125  23.591  0.00  0.00     0.103 A 
ENDBRANCH  10  11
ENDBRANCH   1  10
TORSDOF 4
ENDMDL
MODEL 6
REMARK VINA RESULT:      -4.7      8.962      9.706
REMARK  4 active torsions:
REMARK  status: ('A' for Active; 'I' for Inactive)
REMARK    1  A    between atoms: C_5  and  S_1 
REMARK    2  A    between atoms: N_8  and  S_1 
REMARK    3  A    between atoms: C_6  and  C_14 
REMARK    4  A    between atoms: C_14  and  N_8 
ROOT
ATOM      1  N   UNL d   1     -39.932  14.345  19.067  0.00  0.00    -0.155 NA
ENDROOT
BRANCH   1   2
ATOM      2  S   UNL d   1     -40.223  14.725  18.402  0.00  0.00     0.291 S 
ATOM      3  O   UNL d   1     -40.705  14.063  18.275  0.00  0.00    -0.198 OA
ATOM      4  O   UNL d   1     -39.739  15.378  18.537  0.00  0.00    -0.198 OA
BRANCH   2   5
ATOM      5  C   UNL d   1     -40.524  15.112  17.718  0.00  0.00     0.135 A 
ATOM      6  S   UNL d   1     -40.183  15.097  16.966  0.00  0.00    -0.073 SA
ATOM      7  C   UNL d   1     -40.667  15.557  16.450  0.00  0.00     0.036 A 
ATOM      8  C   UNL d   1     -41.308  15.853  16.899  0.00  0.00     0.008 A 
ATOM      9  C   UNL d   1     -41.226  15.580  17.690  0.00  0.00     0.020 A 
ENDBRANCH   2   5
ENDBRANCH   1   2
BRANCH   1  10
ATOM     10  C   UNL d   1     -39.607  14.782  19.681  0.00  0.00     0.133 C 
BRANCH  10  11
ATOM     11  C   UNL d   1     -39.332  14.407  20.356  0.00  0.00     0.121 A 
ATOM     12  N   UNL d   1     -38.627  13.994  20.427  0.00  0.00    -0.219 NA
ATOM     13  C   UNL d   1     -38.571  13.709  21.197  0.00  0.00     0.180 A 
ATOM     14  S   UNL d   1     -38.105  13.279  21.718  0.00  0.00    -0.048 SA
ATOM     15  N   UNL d   1     -39.254  13.949  21.608  0.00  0.00    -0.282 N 
ATOM     16  C   UNL d   1     -38.494  13.253  22.446  0.00  0.00     0.057 A 
ATOM     17  C   UNL d   1     -39.196  13.665  22.372  0.00  0.00     0.089 A 
ATOM     18  C   UNL d   1     -39.721  14.381  21.083  0.00  0.00     0.103 A 
ENDBRANCH  10  11
ENDBRANCH   1  10
TORSDOF 4
ENDMDL
MODEL 7
REMARK VINA RESULT:      -3.8      8.321     10.672
REMARK  4 active torsions:
REMARK  status: ('A' for Active; 'I' for Inactive)
REMARK    1  A    between atoms: C_5  and  S_1 
REMARK    2  A    between atoms: N_8  and  S_1 
REMARK    3  A    between atoms: C_6  and  C_14 
REMARK    4  A    between atoms: C_14  and  N_8 
ROOT
ATOM      1  N   UNL d   1     -39.821  14.530  18.362  0.00  0.00    -0.155 NA
ENDROOT
BRANCH   1   2
ATOM      2  S   UNL d   1     -40.126  14.776  19.082  0.00  0.00     0.291 S 
ATOM      3  O   UNL d   1     -40.850  14.898  18.697  0.00  0.00    -0.198 OA
ATOM      4  O   UNL d   1     -39.402  14.651  19.455  0.00  0.00    -0.198 OA
BRANCH   2   5
ATOM      5  C   UNL d   1     -40.442  15.028  19.820  0.00  0.00     0.135 A 
ATOM      6  S   UNL d   1     -40.555  14.552  20.485  0.00  0.00    -0.073 SA
ATOM      7  C   UNL d   1     -40.883  15.030  21.098  0.00  0.00     0.036 A 
ATOM      8  C   UNL d   1     -40.968  15.806  20.796  0.00  0.00     0.008 A 
ATOM      9  C   UNL d   1     -40.696  15.813  20.001  0.00  0.00     0.020 A 
ENDBRANCH   2   5
ENDBRANCH   1   2
BRANCH   1  10
ATOM     10  C   UNL d   1     -39.111  14.837  18.090  0.00  0.00     0.133 C 
BRANCH  10  11
ATOM     11  C   UNL d   1     -38.824  14.626  17.352  0.00  0.00     0.121 A 
ATOM     12  N   UNL d   1     -38.626  13.869  17.108  0.00  0.00    -0.219 NA
ATOM     13  C   UNL d   1     -38.363  13.908  16.329  0.00  0.00     0.180 A 
ATOM     14  S   UNL d   1     -38.079  13.470  15.697  0.00  0.00    -0.048 SA
ATOM     15  N   UNL d   1     -38.399  14.705  16.088  0.00  0.00    -0.282 N 
ATOM     16  C   UNL d   1     -37.939  13.988  15.069  0.00  0.00     0.057 A 
ATOM     17  C   UNL d   1     -38.137  14.742  15.315  0.00  0.00     0.089 A 
ATOM     18  C   UNL d   1     -38.685  15.144  16.725  0.00  0.00     0.103 A 
ENDBRANCH  10  11
ENDBRANCH   1  10
TORSDOF 4
ENDMDL
