MODEL 1
REMARK VINA RESULT:      50.1      0.000      0.000
REMARK  6 active torsions:
REMARK  status: ('A' for Active; 'I' for Inactive)
REMARK    1  A    between atoms: C_5  and  C_1 
REMARK    2  A    between atoms: O_8  and  C_5 
REMARK    3  A    between atoms: C_9  and  O_8 
REMARK    4  A    between atoms: C_14  and  C_10 
REMARK    5  A    between atoms: O_20  and  C_11 
REMARK    6  A    between atoms: O_21  and  C_16 
ROOT
ATOM      1  C   UNL d   1      13.450  15.504  -5.076  0.00  0.00     0.305 C 
ATOM      2  O   UNL d   1      12.775  15.913  -5.323  0.00  0.00    -0.259 OA
ENDROOT
BRANCH   1   3
ATOM      3  C   UNL d   1      13.380  14.724  -4.794  0.00  0.00     0.127 A 
ATOM      4  C   UNL d   1      13.287  14.593  -3.975  0.00  0.00     0.305 A 
ATOM      5  O   UNL d   1      13.218  13.821  -3.692  0.00  0.00    -0.271 OA
ATOM      6  O   UNL d   1      13.266  15.229  -3.456  0.00  0.00    -0.259 OA
ATOM      7  C   UNL d   1      13.240  13.187  -4.219  0.00  0.00     0.125 A 
ATOM      8  C   UNL d   1      13.331  13.317  -5.031  0.00  0.00     0.025 A 
ATOM      9  C   UNL d   1      13.170  12.415  -3.937  0.00  0.00     0.117 A 
ATOM     10  C   UNL d   1      13.402  14.098  -5.320  0.00  0.00     0.013 A 
ATOM     11  C   UNL d   1      13.353  12.682  -5.554  0.00  0.00     0.002 A 
ATOM     12  C   UNL d   1      13.283  11.918  -5.269  0.00  0.00     0.002 A 
ATOM     13  C   UNL d   1      13.191  11.780  -4.460  0.00  0.00     0.026 A 
BRANCH   9  14
ATOM     14  O   UNL d   1      13.079  12.283  -3.134  0.00  0.00    -0.326 OA
ATOM     15  C   UNL d   1      13.610  11.792  -2.729  0.00  0.00     0.181 C 
ENDBRANCH   9  14
ENDBRANCH   1   3
BRANCH   1  16
ATOM     16  O   UNL d   1      14.189  15.868  -5.108  0.00  0.00    -0.271 OA
BRANCH  16  17
ATOM     17  C   UNL d   1      14.244  16.672  -5.282  0.00  0.00     0.126 A 
ATOM     18  C   UNL d   1      14.886  17.110  -5.006  0.00  0.00     0.117 A 
ATOM     19  C   UNL d   1      14.947  17.911  -5.175  0.00  0.00     0.029 A 
ATOM     20  C   UNL d   1      14.353  18.282  -5.630  0.00  0.00     0.041 A 
ATOM     21  C   UNL d   1      13.711  17.844  -5.907  0.00  0.00     0.005 A 
ATOM     22  C   UNL d   1      13.656  17.040  -5.733  0.00  0.00     0.027 A 
BRANCH  18  23
ATOM     23  O   UNL d   1      15.470  16.736  -4.555  0.00  0.00    -0.326 OA
ATOM     24  C   UNL d   1      16.243  16.677  -4.843  0.00  0.00     0.181 C 
ENDBRANCH  18  23
BRANCH  20  25
ATOM     25  C   UNL d   1      14.414  19.097  -5.804  0.00  0.00     0.196 C 
ATOM     26  O   UNL d   1      14.958  19.563  -5.391  0.00  0.00    -0.287 OA
ATOM     27  C   UNL d   1      13.929  19.432  -6.387  0.00  0.00     0.045 C 
ENDBRANCH  20  25
ENDBRANCH  16  17
ENDBRANCH   1  16
TORSDOF 6
ENDMDL
MODEL 2
REMARK VINA RESULT:      50.7      2.568      3.478
REMARK  6 active torsions:
REMARK  status: ('A' for Active; 'I' for Inactive)
REMARK    1  A    between atoms: C_5  and  C_1 
REMARK    2  A    between atoms: O_8  and  C_5 
REMARK    3  A    between atoms: C_9  and  O_8 
REMARK    4  A    between atoms: C_14  and  C_10 
REMARK    5  A    between atoms: O_20  and  C_11 
REMARK    6  A    between atoms: O_21  and  C_16 
ROOT
ATOM      1  C   UNL d   1      14.306  15.159  -3.056  0.00  0.00     0.305 C 
ATOM      2  O   UNL d   1      14.806  15.663  -3.480  0.00  0.00    -0.259 OA
ENDROOT
BRANCH   1   3
ATOM      3  C   UNL d   1      13.976  14.494  -3.430  0.00  0.00     0.127 A 
ATOM      4  C   UNL d   1      13.751  14.547  -4.233  0.00  0.00     0.305 A 
ATOM      5  O   UNL d   1      13.424  13.889  -4.607  0.00  0.00    -0.271 OA
ATOM      6  O   UNL d   1      13.856  15.250  -4.644  0.00  0.00    -0.259 OA
ATOM      7  C   UNL d   1      13.322  13.186  -4.188  0.00  0.00     0.125 A 
ATOM      8  C   UNL d   1      13.545  13.133  -3.394  0.00  0.00     0.025 A 
ATOM      9  C   UNL d   1      12.995  12.528  -4.563  0.00  0.00     0.117 A 
ATOM     10  C   UNL d   1      13.877  13.798  -3.012  0.00  0.00     0.013 A 
ATOM     11  C   UNL d   1      13.441  12.430  -2.979  0.00  0.00     0.002 A 
ATOM     12  C   UNL d   1      13.116  11.780  -3.354  0.00  0.00     0.002 A 
ATOM     13  C   UNL d   1      12.891  11.825  -4.148  0.00  0.00     0.026 A 
BRANCH   9  14
ATOM     14  O   UNL d   1      12.773  12.576  -5.350  0.00  0.00    -0.326 OA
ATOM     15  C   UNL d   1      13.231  12.212  -5.936  0.00  0.00     0.181 C 
ENDBRANCH   9  14
ENDBRANCH   1   3
BRANCH   1  16
ATOM     16  O   UNL d   1      14.135  15.317  -2.265  0.00  0.00    -0.271 OA
BRANCH  16  17
ATOM     17  C   UNL d   1      14.596  15.856  -1.844  0.00  0.00     0.126 A 
ATOM     18  C   UNL d   1      14.966  15.623  -1.145  0.00  0.00     0.117 A 
ATOM     19  C   UNL d   1      15.427  16.155  -0.721  0.00  0.00     0.029 A 
ATOM     20  C   UNL d   1      15.519  16.935  -1.003  0.00  0.00     0.041 A 
ATOM     21  C   UNL d   1      15.149  17.169  -1.702  0.00  0.00     0.005 A 
ATOM     22  C   UNL d   1      14.688  16.629  -2.123  0.00  0.00     0.027 A 
BRANCH  18  23
ATOM     23  O   UNL d   1      14.871  14.848  -0.872  0.00  0.00    -0.326 OA
ATOM     24  C   UNL d   1      14.640  14.708  -0.090  0.00  0.00     0.181 C 
ENDBRANCH  18  23
BRANCH  20  25
ATOM     25  C   UNL d   1      15.987  17.477  -0.573  0.00  0.00     0.196 C 
ATOM     26  O   UNL d   1      16.641  17.204  -0.147  0.00  0.00    -0.287 OA
ATOM     27  C   UNL d   1      15.794  18.284  -0.576  0.00  0.00     0.045 C 
ENDBRANCH  20  25
ENDBRANCH  16  17
ENDBRANCH   1  16
TORSDOF 6
ENDMDL
MODEL 3
REMARK VINA RESULT:      51.1      0.755      5.245
REMARK  6 active torsions:
REMARK  status: ('A' for Active; 'I' for Inactive)
REMARK    1  A    between atoms: C_5  and  C_1 
REMARK    2  A    between atoms: O_8  and  C_5 
REMARK    3  A    between atoms: C_9  and  O_8 
REMARK    4  A    between atoms: C_14  and  C_10 
REMARK    5  A    between atoms: O_20  and  C_11 
REMARK    6  A    between atoms: O_21  and  C_16 
ROOT
ATOM      1  C   UNL d   1      13.992  15.798  -5.376  0.00  0.00     0.305 C 
ATOM      2  O   UNL d   1      14.165  15.275  -5.994  0.00  0.00    -0.259 OA
ENDROOT
BRANCH   1   3
ATOM      3  C   UNL d   1      14.039  16.618  -5.505  0.00  0.00     0.127 A 
ATOM      4  C   UNL d   1      14.743  17.022  -5.307  0.00  0.00     0.305 A 
ATOM      5  O   UNL d   1      14.793  17.836  -5.433  0.00  0.00    -0.271 OA
ATOM      6  O   UNL d   1      15.379  16.611  -4.990  0.00  0.00    -0.259 OA
ATOM      7  C   UNL d   1      14.151  18.243  -5.752  0.00  0.00     0.125 A 
ATOM      8  C   UNL d   1      13.454  17.843  -5.947  0.00  0.00     0.025 A 
ATOM      9  C   UNL d   1      14.201  19.057  -5.877  0.00  0.00     0.117 A 
ATOM     10  C   UNL d   1      13.400  17.019  -5.821  0.00  0.00     0.013 A 
ATOM     11  C   UNL d   1      12.815  18.252  -6.265  0.00  0.00     0.002 A 
ATOM     12  C   UNL d   1      12.869  19.060  -6.388  0.00  0.00     0.002 A 
ATOM     13  C   UNL d   1      13.562  19.466  -6.195  0.00  0.00     0.026 A 
BRANCH   9  14
ATOM     14  O   UNL d   1      14.889  19.456  -5.685  0.00  0.00    -0.326 OA
ATOM     15  C   UNL d   1      14.962  20.266  -5.847  0.00  0.00     0.181 C 
ENDBRANCH   9  14
ENDBRANCH   1   3
BRANCH   1  16
ATOM     16  O   UNL d   1      13.775  15.505  -4.636  0.00  0.00    -0.271 OA
BRANCH  16  17
ATOM     17  C   UNL d   1      13.602  14.704  -4.545  0.00  0.00     0.126 A 
ATOM     18  C   UNL d   1      13.780  14.323  -3.836  0.00  0.00     0.117 A 
ATOM     19  C   UNL d   1      13.610  13.526  -3.739  0.00  0.00     0.029 A 
ATOM     20  C   UNL d   1      13.255  13.101  -4.364  0.00  0.00     0.041 A 
ATOM     21  C   UNL d   1      13.077  13.482  -5.074  0.00  0.00     0.005 A 
ATOM     22  C   UNL d   1      13.250  14.284  -5.165  0.00  0.00     0.027 A 
BRANCH  18  23
ATOM     23  O   UNL d   1      14.131  14.750  -3.221  0.00  0.00    -0.326 OA
ATOM     24  C   UNL d   1      14.171  14.428  -2.460  0.00  0.00     0.181 C 
ENDBRANCH  18  23
BRANCH  20  25
ATOM     25  C   UNL d   1      13.082  12.290  -4.266  0.00  0.00     0.196 C 
ATOM     26  O   UNL d   1      12.939  11.991  -3.509  0.00  0.00    -0.287 OA
ATOM     27  C   UNL d   1      13.055  11.790  -4.928  0.00  0.00     0.045 C 
ENDBRANCH  20  25
ENDBRANCH  16  17
ENDBRANCH   1  16
TORSDOF 6
ENDMDL
