MODEL 1
REMARK VINA RESULT:      64.6      0.000      0.000
REMARK  5 active torsions:
REMARK  status: ('A' for Active; 'I' for Inactive)
REMARK    1  A    between atoms: C_2  and  C_1 
REMARK    2  A    between atoms: N_5  and  C_2 
REMARK    3  A    between atoms: C_9  and  C_4 
REMARK    4  A    between atoms: C_21  and  N_10 
REMARK    5  A    between atoms: C_18  and  C_21 
ROOT
ATOM      1  N   UNL d   1      60.251  44.482  50.960  0.00  0.00    -0.191 NA
ATOM      2  C   UNL d   1      60.775  44.922  50.509  0.00  0.00     0.103 C 
ATOM      3  C   UNL d   1      61.307  45.371  50.060  0.00  0.00     0.097 C 
ENDROOT
BRANCH   3   4
ATOM      4  C   UNL d   1      61.766  45.943  50.425  0.00  0.00     0.091 C 
BRANCH   4   5
ATOM      5  N   UNL d   1      61.456  46.701  50.544  0.00  0.00    -0.299 N 
ATOM      6  C   UNL d   1      60.965  46.854  51.191  0.00  0.00     0.100 A 
ATOM      7  C   UNL d   1      60.655  47.603  51.314  0.00  0.00     0.100 A 
ATOM      8  N   UNL d   1      60.837  48.210  50.783  0.00  0.00    -0.291 N 
ATOM      9  C   UNL d   1      61.324  48.070  50.136  0.00  0.00     0.100 A 
ATOM     10  C   UNL d   1      61.636  47.312  50.015  0.00  0.00     0.100 A 
BRANCH   8  11
ATOM     11  C   UNL d   1      60.525  48.964  50.907  0.00  0.00     0.143 C 
ATOM     12  S   UNL d   1      60.911  49.499  51.400  0.00  0.00    -0.057 SA
BRANCH  11  13
ATOM     13  C   UNL d   1      59.815  49.185  50.531  0.00  0.00     0.126 A 
ATOM     14  O   UNL d   1      59.052  49.011  50.801  0.00  0.00    -0.305 OA
ATOM     15  C   UNL d   1      58.517  49.333  50.264  0.00  0.00     0.100 A 
ATOM     16  C   UNL d   1      58.949  49.707  49.660  0.00  0.00     0.027 A 
ATOM     17  C   UNL d   1      59.749  49.613  49.828  0.00  0.00     0.029 A 
BRANCH  15  18
ATOM     18  C   UNL d   1      57.697  49.294  50.310  0.00  0.00     0.024 A 
ATOM     19  C   UNL d   1      57.281  48.838  49.764  0.00  0.00     0.013 A 
ATOM     20  C   UNL d   1      56.455  48.792  49.800  0.00  0.00     0.058 A 
ATOM     21 CL   UNL d   1      56.035  48.334  49.252  0.00  0.00    -0.082 Cl
ATOM     22  C   UNL d   1      56.047  49.210  50.394  0.00  0.00     0.011 A 
ATOM     23  C   UNL d   1      56.471  49.665  50.939  0.00  0.00     0.001 A 
ATOM     24  C   UNL d   1      57.293  49.708  50.897  0.00  0.00     0.002 A 
ENDBRANCH  15  18
ENDBRANCH  11  13
ENDBRANCH   8  11
ENDBRANCH   4   5
ENDBRANCH   3   4
TORSDOF 5
ENDMDL
