MODEL 1
REMARK VINA RESULT:      32.6      0.000      0.000
REMARK  3 active torsions:
REMARK  status: ('A' for Active; 'I' for Inactive)
REMARK    1  A    between atoms: N_9  and  C_2 
REMARK    2  A    between atoms: C_11  and  N_9 
REMARK    3  A    between atoms: O_14  and  C_13 
ROOT
ATOM      1  C   UNL d   1     -50.433  25.838  33.866  0.00  0.00     0.154 A 
ATOM      2  C   UNL d   1     -50.872  25.145  33.847  0.00  0.00     0.185 A 
ATOM      3  C   UNL d   1     -49.637  25.829  33.647  0.00  0.00     0.186 A 
ATOM      4  N   UNL d   1     -50.632  26.610  34.076  0.00  0.00    -0.218 NA
ATOM      5  N   UNL d   1     -49.347  26.597  33.722  0.00  0.00    -0.203 NA
ATOM      6  N   UNL d   1     -50.518  24.439  33.608  0.00  0.00    -0.203 NA
ATOM      7  N   UNL d   1     -49.282  25.128  33.408  0.00  0.00    -0.203 NA
ATOM      8  C   UNL d   1     -49.955  27.075  33.985  0.00  0.00     0.201 A 
ATOM      9  C   UNL d   1     -49.723  24.431  33.388  0.00  0.00     0.202 A 
ENDROOT
BRANCH   2  10
ATOM     10  N   UNL d   1     -51.668  25.153  34.066  0.00  0.00    -0.225 NA
BRANCH  10  11
ATOM     11  C   UNL d   1     -52.171  24.554  33.816  0.00  0.00     0.085 A 
ATOM     12  C   UNL d   1     -52.971  24.716  33.690  0.00  0.00     0.043 A 
ATOM     13  C   UNL d   1     -53.479  24.116  33.439  0.00  0.00     0.096 A 
ATOM     14  C   UNL d   1     -53.188  23.355  33.313  0.00  0.00     0.024 A 
ATOM     15  C   UNL d   1     -52.380  23.196  33.441  0.00  0.00     0.004 A 
ATOM     16  C   UNL d   1     -51.880  23.793  33.690  0.00  0.00     0.019 A 
BRANCH  13  17
ATOM     17  O   UNL d   1     -54.285  24.281  33.312  0.00  0.00    -0.328 OA
ATOM     18  C   UNL d   1     -54.841  23.672  33.345  0.00  0.00     0.181 C 
ENDBRANCH  13  17
ENDBRANCH  10  11
ENDBRANCH   2  10
TORSDOF 3
ENDMDL
