MODEL 1
REMARK VINA RESULT:      -8.3      0.000      0.000
REMARK  9 active torsions:
REMARK  status: ('A' for Active; 'I' for Inactive)
REMARK    1  A    between atoms: C_12  and  C_3 
REMARK    2  A    between atoms: S_14  and  C_7 
REMARK       I    between atoms: C_9  and  N_18 
REMARK    3  A    between atoms: C_13  and  C_9 
REMARK    4  A    between atoms: C_11  and  C_21 
REMARK       I    between atoms: N_15  and  C_11 
REMARK    5  A    between atoms: C_22  and  C_12 
REMARK    6  A    between atoms: C_21  and  S_14 
REMARK    7  A    between atoms: C_23  and  N_15 
REMARK    8  A    between atoms: N_18  and  C_22 
REMARK    9  A    between atoms: C_25  and  C_23 
ROOT
ATOM      1  N   UNL d   1      48.531  35.020  51.813  0.00  0.00    -0.191 N 
ATOM      2  C   UNL d   1      48.524  34.661  51.063  0.00  0.00     0.187 A 
ATOM      3  C   UNL d   1      47.805  35.405  51.920  0.00  0.00     0.188 A 
ATOM      4  N   UNL d   1      49.196  34.949  52.298  0.00  0.00    -0.156 NA
ATOM      5  N   UNL d   1      47.793  34.828  50.714  0.00  0.00    -0.127 NA
ATOM      6  N   UNL d   1      47.349  35.284  51.237  0.00  0.00    -0.127 NA
ATOM      7  C   UNL d   1      49.854  34.519  52.033  0.00  0.00     0.131 A 
ATOM      8  C   UNL d   1      49.180  34.238  50.811  0.00  0.00     0.043 A 
ATOM      9  C   UNL d   1      49.847  34.164  51.291  0.00  0.00     0.031 A 
ENDROOT
BRANCH   7  10
ATOM     10  S   UNL d   1      50.521  34.451  52.526  0.00  0.00    -0.061 SA
BRANCH  10  11
ATOM     11  C   UNL d   1      51.232  34.146  52.218  0.00  0.00     0.099 C 
BRANCH  11  12
ATOM     12  C   UNL d   1      51.860  33.975  52.733  0.00  0.00     0.286 C 
ATOM     13  N   UNL d   1      52.148  33.220  52.785  0.00  0.00    -0.206 NA
ATOM     14  O   UNL d   1      52.196  34.570  53.196  0.00  0.00    -0.265 OA
BRANCH  13  15
ATOM     15  C   UNL d   1      52.776  33.045  53.299  0.00  0.00     0.102 C 
BRANCH  15  16
ATOM     16  C   UNL d   1      53.029  32.279  53.372  0.00  0.00     0.019 A 
ATOM     17  C   UNL d   1      53.541  32.048  53.977  0.00  0.00     0.004 A 
ATOM     18  C   UNL d   1      53.796  31.273  54.050  0.00  0.00     0.030 A 
ATOM     19  C   UNL d   1      53.537  30.709  53.507  0.00  0.00     0.140 A 
ATOM     20  C   UNL d   1      53.028  30.940  52.904  0.00  0.00     0.030 A 
ATOM     21  F   UNL d   1      53.787  29.927  53.569  0.00  0.00    -0.204 F 
ATOM     22  C   UNL d   1      52.777  31.704  52.835  0.00  0.00     0.004 A 
ENDBRANCH  15  16
ENDBRANCH  13  15
ENDBRANCH  11  12
ENDBRANCH  10  11
ENDBRANCH   7  10
BRANCH   3  23
ATOM     23  C   UNL d   1      47.583  35.831  52.593  0.00  0.00     0.061 C 
BRANCH  23  24
ATOM     24  C   UNL d   1      46.794  36.064  52.699  0.00  0.00     0.105 C 
BRANCH  24  25
ATOM     25  N   UNL d   1      46.461  36.042  53.454  0.00  0.00    -0.206 NA
ATOM     26  C   UNL d   1      45.679  36.305  53.568  0.00  0.00     0.279 C 
ATOM     27  O   UNL d   1      45.244  36.587  52.918  0.00  0.00    -0.265 OA
BRANCH  26  28
ATOM     28  C   UNL d   1      45.345  36.284  54.319  0.00  0.00     0.058 A 
ATOM     29  C   UNL d   1      45.696  36.709  54.934  0.00  0.00     0.005 A 
ATOM     30  C   UNL d   1      45.366  36.692  55.689  0.00  0.00     0.000 A 
ATOM     31  C   UNL d   1      44.682  36.247  55.826  0.00  0.00     0.000 A 
ATOM     32  C   UNL d   1      44.330  35.822  55.211  0.00  0.00     0.000 A 
ATOM     33  C   UNL d   1      44.351  36.228  56.577  0.00  0.00     0.000 C 
ATOM     34  C   UNL d   1      44.667  35.843  54.454  0.00  0.00     0.005 A 
ENDBRANCH  26  28
ENDBRANCH  24  25
ENDBRANCH  23  24
ENDBRANCH   3  23
TORSDOF 9
ENDMDL
MODEL 2
REMARK VINA RESULT:      -7.5      1.021      1.206
REMARK  9 active torsions:
REMARK  status: ('A' for Active; 'I' for Inactive)
REMARK    1  A    between atoms: C_12  and  C_3 
REMARK    2  A    between atoms: S_14  and  C_7 
REMARK       I    between atoms: C_9  and  N_18 
REMARK    3  A    between atoms: C_13  and  C_9 
REMARK    4  A    between atoms: C_11  and  C_21 
REMARK       I    between atoms: N_15  and  C_11 
REMARK    5  A    between atoms: C_22  and  C_12 
REMARK    6  A    between atoms: C_21  and  S_14 
REMARK    7  A    between atoms: C_23  and  N_15 
REMARK    8  A    between atoms: N_18  and  C_22 
REMARK    9  A    between atoms: C_25  and  C_23 
ROOT
ATOM      1  N   UNL d   1      48.415  35.084  51.853  0.00  0.00    -0.191 N 
ATOM      2  C   UNL d   1      48.487  34.725  51.106  0.00  0.00     0.187 A 
ATOM      3  C   UNL d   1      47.698  35.497  51.873  0.00  0.00     0.188 A 
ATOM      4  N   UNL d   1      49.013  34.988  52.416  0.00  0.00    -0.156 NA
ATOM      5  N   UNL d   1      47.811  34.921  50.672  0.00  0.00    -0.127 NA
ATOM      6  N   UNL d   1      47.324  35.394  51.138  0.00  0.00    -0.127 NA
ATOM      7  C   UNL d   1      49.681  34.532  52.231  0.00  0.00     0.131 A 
ATOM      8  C   UNL d   1      49.151  34.278  50.934  0.00  0.00     0.043 A 
ATOM      9  C   UNL d   1      49.751  34.178  51.492  0.00  0.00     0.031 A 
ENDROOT
BRANCH   7  10
ATOM     10  S   UNL d   1      50.280  34.438  52.801  0.00  0.00    -0.061 SA
BRANCH  10  11
ATOM     11  C   UNL d   1      51.074  34.375  52.559  0.00  0.00     0.099 C 
BRANCH  11  12
ATOM     12  C   UNL d   1      51.679  34.620  53.073  0.00  0.00     0.286 C 
ATOM     13  N   UNL d   1      52.330  34.154  53.185  0.00  0.00    -0.206 NA
ATOM     14  O   UNL d   1      51.621  35.340  53.472  0.00  0.00    -0.265 OA
BRANCH  13  15
ATOM     15  C   UNL d   1      52.936  34.396  53.698  0.00  0.00     0.102 C 
BRANCH  15  16
ATOM     16  C   UNL d   1      53.406  33.838  54.052  0.00  0.00     0.019 A 
ATOM     17  C   UNL d   1      53.855  33.306  53.609  0.00  0.00     0.004 A 
ATOM     18  C   UNL d   1      54.329  32.743  53.969  0.00  0.00     0.030 A 
ATOM     19  C   UNL d   1      54.359  32.705  54.793  0.00  0.00     0.140 A 
ATOM     20  C   UNL d   1      53.911  33.236  55.233  0.00  0.00     0.030 A 
ATOM     21  F   UNL d   1      54.831  32.144  55.166  0.00  0.00    -0.204 F 
ATOM     22  C   UNL d   1      53.445  33.790  54.875  0.00  0.00     0.004 A 
ENDBRANCH  15  16
ENDBRANCH  13  15
ENDBRANCH  11  12
ENDBRANCH  10  11
ENDBRANCH   7  10
BRANCH   3  23
ATOM     23  C   UNL d   1      47.411  35.932  52.515  0.00  0.00     0.061 C 
BRANCH  23  24
ATOM     24  C   UNL d   1      46.595  36.000  52.644  0.00  0.00     0.105 C 
BRANCH  24  25
ATOM     25  N   UNL d   1      46.305  36.020  53.417  0.00  0.00    -0.206 NA
ATOM     26  C   UNL d   1      45.483  36.002  53.550  0.00  0.00     0.279 C 
ATOM     27  O   UNL d   1      44.965  35.964  52.901  0.00  0.00    -0.265 OA
BRANCH  26  28
ATOM     28  C   UNL d   1      45.192  36.022  54.319  0.00  0.00     0.058 A 
ATOM     29  C   UNL d   1      45.337  36.683  54.793  0.00  0.00     0.005 A 
ATOM     30  C   UNL d   1      45.047  36.709  55.564  0.00  0.00     0.000 A 
ATOM     31  C   UNL d   1      44.613  36.069  55.859  0.00  0.00     0.000 A 
ATOM     32  C   UNL d   1      44.469  35.408  55.386  0.00  0.00     0.000 A 
ATOM     33  C   UNL d   1      44.324  36.093  56.627  0.00  0.00     0.000 C 
ATOM     34  C   UNL d   1      44.762  35.388  54.611  0.00  0.00     0.005 A 
ENDBRANCH  26  28
ENDBRANCH  24  25
ENDBRANCH  23  24
ENDBRANCH   3  23
TORSDOF 9
ENDMDL
MODEL 3
REMARK VINA RESULT:      -6.7      2.181      3.620
REMARK  9 active torsions:
REMARK  status: ('A' for Active; 'I' for Inactive)
REMARK    1  A    between atoms: C_12  and  C_3 
REMARK    2  A    between atoms: S_14  and  C_7 
REMARK       I    between atoms: C_9  and  N_18 
REMARK    3  A    between atoms: C_13  and  C_9 
REMARK    4  A    between atoms: C_11  and  C_21 
REMARK       I    between atoms: N_15  and  C_11 
REMARK    5  A    between atoms: C_22  and  C_12 
REMARK    6  A    between atoms: C_21  and  S_14 
REMARK    7  A    between atoms: C_23  and  N_15 
REMARK    8  A    between atoms: N_18  and  C_22 
REMARK    9  A    between atoms: C_25  and  C_23 
ROOT
ATOM      1  N   UNL d   1      51.670  34.308  53.340  0.00  0.00    -0.191 N 
ATOM      2  C   UNL d   1      52.341  34.672  53.669  0.00  0.00     0.187 A 
ATOM      3  C   UNL d   1      51.033  34.832  53.407  0.00  0.00     0.188 A 
ATOM      4  N   UNL d   1      51.729  33.547  53.022  0.00  0.00    -0.156 NA
ATOM      5  N   UNL d   1      52.110  35.420  53.937  0.00  0.00    -0.127 NA
ATOM      6  N   UNL d   1      51.308  35.521  53.778  0.00  0.00    -0.127 NA
ATOM      7  C   UNL d   1      52.458  33.151  53.034  0.00  0.00     0.131 A 
ATOM      8  C   UNL d   1      53.057  34.273  53.676  0.00  0.00     0.043 A 
ATOM      9  C   UNL d   1      53.121  33.513  53.360  0.00  0.00     0.031 A 
ENDROOT
BRANCH   7  10
ATOM     10  S   UNL d   1      52.511  32.386  52.712  0.00  0.00    -0.061 SA
BRANCH  10  11
ATOM     11  C   UNL d   1      53.151  31.895  52.920  0.00  0.00     0.099 C 
BRANCH  11  12
ATOM     12  C   UNL d   1      53.063  31.070  52.881  0.00  0.00     0.286 C 
ATOM     13  N   UNL d   1      53.270  30.609  53.512  0.00  0.00    -0.206 NA
ATOM     14  O   UNL d   1      52.763  30.714  52.199  0.00  0.00    -0.265 OA
BRANCH  13  15
ATOM     15  C   UNL d   1      53.183  29.784  53.476  0.00  0.00     0.102 C 
BRANCH  15  16
ATOM     16  C   UNL d   1      53.260  29.345  54.153  0.00  0.00     0.019 A 
ATOM     17  C   UNL d   1      52.973  29.615  54.879  0.00  0.00     0.004 A 
ATOM     18  C   UNL d   1      53.052  29.170  55.562  0.00  0.00     0.030 A 
ATOM     19  C   UNL d   1      53.425  28.435  55.526  0.00  0.00     0.140 A 
ATOM     20  C   UNL d   1      53.710  28.167  54.803  0.00  0.00     0.030 A 
ATOM     21  F   UNL d   1      53.510  27.978  56.206  0.00  0.00    -0.204 F 
ATOM     22  C   UNL d   1      53.631  28.608  54.131  0.00  0.00     0.004 A 
ENDBRANCH  15  16
ENDBRANCH  13  15
ENDBRANCH  11  12
ENDBRANCH  10  11
ENDBRANCH   7  10
BRANCH   3  23
ATOM     23  C   UNL d   1      50.261  34.686  53.148  0.00  0.00     0.061 C 
BRANCH  23  24
ATOM     24  C   UNL d   1      49.649  35.212  53.339  0.00  0.00     0.105 C 
BRANCH  24  25
ATOM     25  N   UNL d   1      48.955  35.209  52.891  0.00  0.00    -0.206 NA
ATOM     26  C   UNL d   1      48.375  35.792  53.025  0.00  0.00     0.279 C 
ATOM     27  O   UNL d   1      48.503  36.369  53.610  0.00  0.00    -0.265 OA
BRANCH  26  28
ATOM     28  C   UNL d   1      47.684  35.791  52.580  0.00  0.00     0.058 A 
ATOM     29  C   UNL d   1      46.970  36.005  52.935  0.00  0.00     0.005 A 
ATOM     30  C   UNL d   1      46.274  36.006  52.494  0.00  0.00     0.000 A 
ATOM     31  C   UNL d   1      46.295  35.793  51.695  0.00  0.00     0.000 A 
ATOM     32  C   UNL d   1      47.009  35.579  51.339  0.00  0.00     0.000 A 
ATOM     33  C   UNL d   1      45.603  35.793  51.254  0.00  0.00     0.000 C 
ATOM     34  C   UNL d   1      47.706  35.580  51.788  0.00  0.00     0.005 A 
ENDBRANCH  26  28
ENDBRANCH  24  25
ENDBRANCH  23  24
ENDBRANCH   3  23
TORSDOF 9
ENDMDL
MODEL 4
REMARK VINA RESULT:      -6.5      2.936      7.574
REMARK  9 active torsions:
REMARK  status: ('A' for Active; 'I' for Inactive)
REMARK    1  A    between atoms: C_12  and  C_3 
REMARK    2  A    between atoms: S_14  and  C_7 
REMARK       I    between atoms: C_9  and  N_18 
REMARK    3  A    between atoms: C_13  and  C_9 
REMARK    4  A    between atoms: C_11  and  C_21 
REMARK       I    between atoms: N_15  and  C_11 
REMARK    5  A    between atoms: C_22  and  C_12 
REMARK    6  A    between atoms: C_21  and  S_14 
REMARK    7  A    between atoms: C_23  and  N_15 
REMARK    8  A    between atoms: N_18  and  C_22 
REMARK    9  A    between atoms: C_25  and  C_23 
ROOT
ATOM      1  N   UNL d   1      53.516  34.275  54.202  0.00  0.00    -0.191 N 
ATOM      2  C   UNL d   1      53.493  34.935  54.707  0.00  0.00     0.187 A 
ATOM      3  C   UNL d   1      54.164  33.807  54.419  0.00  0.00     0.188 A 
ATOM      4  N   UNL d   1      52.944  34.186  53.612  0.00  0.00    -0.156 NA
ATOM      5  N   UNL d   1      54.128  34.868  55.232  0.00  0.00    -0.127 NA
ATOM      6  N   UNL d   1      54.543  34.177  55.058  0.00  0.00    -0.127 NA
ATOM      7  C   UNL d   1      52.349  34.759  53.527  0.00  0.00     0.131 A 
ATOM      8  C   UNL d   1      52.901  35.494  54.615  0.00  0.00     0.043 A 
ATOM      9  C   UNL d   1      52.327  35.411  54.027  0.00  0.00     0.031 A 
ENDROOT
BRANCH   7  10
ATOM     10  S   UNL d   1      51.776  34.665  52.931  0.00  0.00    -0.061 SA
BRANCH  10  11
ATOM     11  C   UNL d   1      51.000  34.445  53.137  0.00  0.00     0.099 C 
BRANCH  11  12
ATOM     12  C   UNL d   1      50.410  34.435  52.553  0.00  0.00     0.286 C 
ATOM     13  N   UNL d   1      49.706  34.813  52.681  0.00  0.00    -0.206 NA
ATOM     14  O   UNL d   1      50.535  34.041  51.838  0.00  0.00    -0.265 OA
BRANCH  13  15
ATOM     15  C   UNL d   1      49.114  34.806  52.099  0.00  0.00     0.102 C 
BRANCH  15  16
ATOM     16  C   UNL d   1      48.461  35.277  52.189  0.00  0.00     0.019 A 
ATOM     17  C   UNL d   1      48.353  35.744  52.861  0.00  0.00     0.004 A 
ATOM     18  C   UNL d   1      47.692  36.220  52.950  0.00  0.00     0.030 A 
ATOM     19  C   UNL d   1      47.120  36.234  52.356  0.00  0.00     0.140 A 
ATOM     20  C   UNL d   1      47.228  35.768  51.687  0.00  0.00     0.030 A 
ATOM     21  F   UNL d   1      46.452  36.708  52.433  0.00  0.00    -0.204 F 
ATOM     22  C   UNL d   1      47.881  35.300  51.602  0.00  0.00     0.004 A 
ENDBRANCH  15  16
ENDBRANCH  13  15
ENDBRANCH  11  12
ENDBRANCH  10  11
ENDBRANCH   7  10
BRANCH   3  23
ATOM     23  C   UNL d   1      54.388  33.098  54.057  0.00  0.00     0.061 C 
BRANCH  23  24
ATOM     24  C   UNL d   1      54.242  32.372  54.432  0.00  0.00     0.105 C 
BRANCH  24  25
ATOM     25  N   UNL d   1      53.929  31.745  53.997  0.00  0.00    -0.206 NA
ATOM     26  C   UNL d   1      53.611  31.085  54.393  0.00  0.00     0.279 C 
ATOM     27  O   UNL d   1      53.614  31.068  55.225  0.00  0.00    -0.265 OA
BRANCH  26  28
ATOM     28  C   UNL d   1      53.298  30.459  53.962  0.00  0.00     0.058 A 
ATOM     29  C   UNL d   1      53.308  29.698  54.282  0.00  0.00     0.005 A 
ATOM     30  C   UNL d   1      52.996  29.066  53.854  0.00  0.00     0.000 A 
ATOM     31  C   UNL d   1      52.673  29.201  53.104  0.00  0.00     0.000 A 
ATOM     32  C   UNL d   1      52.663  29.962  52.784  0.00  0.00     0.000 A 
ATOM     33  C   UNL d   1      52.362  28.573  52.676  0.00  0.00     0.000 C 
ATOM     34  C   UNL d   1      52.978  30.593  53.219  0.00  0.00     0.005 A 
ENDBRANCH  26  28
ENDBRANCH  24  25
ENDBRANCH  23  24
ENDBRANCH   3  23
TORSDOF 9
ENDMDL
MODEL 5
REMARK VINA RESULT:      -5.8     10.612     12.538
REMARK  9 active torsions:
REMARK  status: ('A' for Active; 'I' for Inactive)
REMARK    1  A    between atoms: C_12  and  C_3 
REMARK    2  A    between atoms: S_14  and  C_7 
REMARK       I    between atoms: C_9  and  N_18 
REMARK    3  A    between atoms: C_13  and  C_9 
REMARK    4  A    between atoms: C_11  and  C_21 
REMARK       I    between atoms: N_15  and  C_11 
REMARK    5  A    between atoms: C_22  and  C_12 
REMARK    6  A    between atoms: C_21  and  S_14 
REMARK    7  A    between atoms: C_23  and  N_15 
REMARK    8  A    between atoms: N_18  and  C_22 
REMARK    9  A    between atoms: C_25  and  C_23 
ROOT
ATOM      1  N   UNL d   1      44.705  29.542  60.012  0.00  0.00    -0.191 N 
ATOM      2  C   UNL d   1      45.037  30.292  60.147  0.00  0.00     0.187 A 
ATOM      3  C   UNL d   1      44.685  29.413  59.194  0.00  0.00     0.188 A 
ATOM      4  N   UNL d   1      44.466  29.076  60.650  0.00  0.00    -0.156 NA
ATOM      5  N   UNL d   1      45.219  30.619  59.409  0.00  0.00    -0.127 NA
ATOM      6  N   UNL d   1      45.004  30.083  58.822  0.00  0.00    -0.127 NA
ATOM      7  C   UNL d   1      44.559  29.361  61.424  0.00  0.00     0.131 A 
ATOM      8  C   UNL d   1      45.124  30.564  60.915  0.00  0.00     0.043 A 
ATOM      9  C   UNL d   1      44.887  30.103  61.557  0.00  0.00     0.031 A 
ENDROOT
BRANCH   7  10
ATOM     10  S   UNL d   1      44.316  28.887  62.064  0.00  0.00    -0.061 SA
BRANCH  10  11
ATOM     11  C   UNL d   1      44.720  28.937  62.791  0.00  0.00     0.099 C 
BRANCH  11  12
ATOM     12  C   UNL d   1      44.602  28.349  63.364  0.00  0.00     0.286 C 
ATOM     13  N   UNL d   1      44.578  28.546  64.149  0.00  0.00    -0.206 NA
ATOM     14  O   UNL d   1      44.509  27.559  63.141  0.00  0.00    -0.265 OA
BRANCH  13  15
ATOM     15  C   UNL d   1      44.461  27.960  64.725  0.00  0.00     0.102 C 
BRANCH  15  16
ATOM     16  C   UNL d   1      44.479  28.163  65.510  0.00  0.00     0.019 A 
ATOM     17  C   UNL d   1      44.658  27.610  66.096  0.00  0.00     0.004 A 
ATOM     18  C   UNL d   1      44.675  27.817  66.888  0.00  0.00     0.030 A 
ATOM     19  C   UNL d   1      44.510  28.595  67.108  0.00  0.00     0.140 A 
ATOM     20  C   UNL d   1      44.332  29.145  66.523  0.00  0.00     0.030 A 
ATOM     21  F   UNL d   1      44.525  28.815  67.900  0.00  0.00    -0.204 F 
ATOM     22  C   UNL d   1      44.316  28.938  65.743  0.00  0.00     0.004 A 
ENDBRANCH  15  16
ENDBRANCH  13  15
ENDBRANCH  11  12
ENDBRANCH  10  11
ENDBRANCH   7  10
BRANCH   3  23
ATOM     23  C   UNL d   1      44.396  28.733  58.822  0.00  0.00     0.061 C 
BRANCH  23  24
ATOM     24  C   UNL d   1      44.751  28.453  58.126  0.00  0.00     0.105 C 
BRANCH  24  25
ATOM     25  N   UNL d   1      44.645  27.666  57.903  0.00  0.00    -0.206 NA
ATOM     26  C   UNL d   1      44.908  27.409  57.156  0.00  0.00     0.279 C 
ATOM     27  O   UNL d   1      45.274  27.952  56.644  0.00  0.00    -0.265 OA
BRANCH  26  28
ATOM     28  C   UNL d   1      44.803  26.625  56.932  0.00  0.00     0.058 A 
ATOM     29  C   UNL d   1      44.630  26.056  57.505  0.00  0.00     0.005 A 
ATOM     30  C   UNL d   1      44.524  25.269  57.286  0.00  0.00     0.000 A 
ATOM     31  C   UNL d   1      44.593  25.053  56.490  0.00  0.00     0.000 A 
ATOM     32  C   UNL d   1      44.767  25.622  55.917  0.00  0.00     0.000 A 
ATOM     33  C   UNL d   1      44.488  24.269  56.270  0.00  0.00     0.000 C 
ATOM     34  C   UNL d   1      44.872  26.412  56.143  0.00  0.00     0.005 A 
ENDBRANCH  26  28
ENDBRANCH  24  25
ENDBRANCH  23  24
ENDBRANCH   3  23
TORSDOF 9
ENDMDL
MODEL 6
REMARK VINA RESULT:      -5.3      2.554      7.817
REMARK  9 active torsions:
REMARK  status: ('A' for Active; 'I' for Inactive)
REMARK    1  A    between atoms: C_12  and  C_3 
REMARK    2  A    between atoms: S_14  and  C_7 
REMARK       I    between atoms: C_9  and  N_18 
REMARK    3  A    between atoms: C_13  and  C_9 
REMARK    4  A    between atoms: C_11  and  C_21 
REMARK       I    between atoms: N_15  and  C_11 
REMARK    5  A    between atoms: C_22  and  C_12 
REMARK    6  A    between atoms: C_21  and  S_14 
REMARK    7  A    between atoms: C_23  and  N_15 
REMARK    8  A    between atoms: N_18  and  C_22 
REMARK    9  A    between atoms: C_25  and  C_23 
ROOT
ATOM      1  N   UNL d   1      52.133  33.548  53.012  0.00  0.00    -0.191 N 
ATOM      2  C   UNL d   1      52.586  34.221  53.195  0.00  0.00     0.187 A 
ATOM      3  C   UNL d   1      52.619  32.882  53.087  0.00  0.00     0.188 A 
ATOM      4  N   UNL d   1      51.338  33.631  52.802  0.00  0.00    -0.156 NA
ATOM      5  N   UNL d   1      53.349  33.962  53.382  0.00  0.00    -0.127 NA
ATOM      6  N   UNL d   1      53.373  33.141  53.316  0.00  0.00    -0.127 NA
ATOM      7  C   UNL d   1      50.997  34.387  52.775  0.00  0.00     0.131 A 
ATOM      8  C   UNL d   1      52.239  34.963  53.166  0.00  0.00     0.043 A 
ATOM      9  C   UNL d   1      51.446  35.052  52.956  0.00  0.00     0.031 A 
ENDROOT
BRANCH   7  10
ATOM     10  S   UNL d   1      50.196  34.465  52.562  0.00  0.00    -0.061 SA
BRANCH  10  11
ATOM     11  C   UNL d   1      49.671  34.863  53.072  0.00  0.00     0.099 C 
BRANCH  11  12
ATOM     12  C   UNL d   1      48.961  35.167  52.769  0.00  0.00     0.286 C 
ATOM     13  N   UNL d   1      48.452  35.569  53.253  0.00  0.00    -0.206 NA
ATOM     14  O   UNL d   1      48.766  35.063  51.973  0.00  0.00    -0.265 OA
BRANCH  13  15
ATOM     15  C   UNL d   1      47.741  35.876  52.954  0.00  0.00     0.102 C 
BRANCH  15  16
ATOM     16  C   UNL d   1      47.149  36.084  53.467  0.00  0.00     0.019 A 
ATOM     17  C   UNL d   1      47.313  36.431  54.198  0.00  0.00     0.004 A 
ATOM     18  C   UNL d   1      46.713  36.641  54.716  0.00  0.00     0.030 A 
ATOM     19  C   UNL d   1      45.928  36.503  54.503  0.00  0.00     0.140 A 
ATOM     20  C   UNL d   1      45.767  36.157  53.775  0.00  0.00     0.030 A 
ATOM     21  F   UNL d   1      45.317  36.709  55.015  0.00  0.00    -0.204 F 
ATOM     22  C   UNL d   1      46.359  35.952  53.267  0.00  0.00     0.004 A 
ENDBRANCH  15  16
ENDBRANCH  13  15
ENDBRANCH  11  12
ENDBRANCH  10  11
ENDBRANCH   7  10
BRANCH   3  23
ATOM     23  C   UNL d   1      52.386  32.099  52.954  0.00  0.00     0.061 C 
BRANCH  23  24
ATOM     24  C   UNL d   1      52.951  31.493  52.931  0.00  0.00     0.105 C 
BRANCH  24  25
ATOM     25  N   UNL d   1      52.895  30.864  53.462  0.00  0.00    -0.206 NA
ATOM     26  C   UNL d   1      53.520  30.316  53.521  0.00  0.00     0.279 C 
ATOM     27  O   UNL d   1      54.193  30.411  53.042  0.00  0.00    -0.265 OA
BRANCH  26  28
ATOM     28  C   UNL d   1      53.466  29.689  54.050  0.00  0.00     0.058 A 
ATOM     29  C   UNL d   1      53.621  28.921  53.789  0.00  0.00     0.005 A 
ATOM     30  C   UNL d   1      53.569  28.288  54.315  0.00  0.00     0.000 A 
ATOM     31  C   UNL d   1      53.361  28.428  55.103  0.00  0.00     0.000 A 
ATOM     32  C   UNL d   1      53.206  29.196  55.364  0.00  0.00     0.000 A 
ATOM     33  C   UNL d   1      53.309  27.799  55.629  0.00  0.00     0.000 C 
ATOM     34  C   UNL d   1      53.260  29.828  54.831  0.00  0.00     0.005 A 
ENDBRANCH  26  28
ENDBRANCH  24  25
ENDBRANCH  23  24
ENDBRANCH   3  23
TORSDOF 9
ENDMDL
