MODEL 1
REMARK VINA RESULT:      -9.2      0.000      0.000
REMARK  4 active torsions:
REMARK  status: ('A' for Active; 'I' for Inactive)
REMARK    1  A    between atoms: N_2  and  S_1 
REMARK    2  A    between atoms: C_4  and  S_1 
REMARK    3  A    between atoms: C_15  and  C_3 
REMARK    4  A    between atoms: O_16  and  C_12 
ROOT
ATOM      1  S   UNL d   1      53.277  32.963  53.880  0.00  0.00     0.273 S 
ATOM      2  O   UNL d   1      53.847  33.105  53.301  0.00  0.00    -0.200 OA
ATOM      3  O   UNL d   1      52.706  32.821  54.459  0.00  0.00    -0.200 OA
ENDROOT
BRANCH   1   4
ATOM      4  N   UNL d   1      53.413  33.715  54.199  0.00  0.00    -0.213 N 
ATOM      5  C   UNL d   1      54.042  33.923  54.692  0.00  0.00     0.157 A 
ATOM      6  N   UNL d   1      53.960  34.728  54.877  0.00  0.00    -0.226 NA
ATOM      7  C   UNL d   1      53.285  35.011  54.498  0.00  0.00     0.101 A 
ATOM      8  C   UNL d   1      52.944  34.384  54.077  0.00  0.00     0.112 A 
ATOM      9  C   UNL d   1      52.996  35.783  54.531  0.00  0.00     0.022 C 
BRANCH   5  10
ATOM     10  C   UNL d   1      54.637  33.424  54.952  0.00  0.00     0.038 C 
ATOM     11  C   UNL d   1      55.251  33.724  55.413  0.00  0.00     0.003 C 
ENDBRANCH   5  10
ENDBRANCH   1   4
BRANCH   1  12
ATOM     12  C   UNL d   1      53.140  32.214  53.562  0.00  0.00     0.106 A 
ATOM     13  C   UNL d   1      53.558  31.562  53.849  0.00  0.00     0.037 A 
ATOM     14  C   UNL d   1      53.422  30.814  53.532  0.00  0.00     0.095 A 
ATOM     15  C   UNL d   1      52.868  30.716  52.927  0.00  0.00     0.022 A 
ATOM     16  C   UNL d   1      52.451  31.367  52.641  0.00  0.00     0.003 A 
ATOM     17  C   UNL d   1      52.732  29.966  52.610  0.00  0.00     0.002 C 
ATOM     18  C   UNL d   1      52.587  32.116  52.959  0.00  0.00     0.012 A 
ATOM     19  C   UNL d   1      52.176  32.764  52.678  0.00  0.00     0.001 C 
BRANCH  14  20
ATOM     20  O   UNL d   1      53.843  30.160  53.820  0.00  0.00    -0.328 OA
ATOM     21  C   UNL d   1      53.531  29.711  54.439  0.00  0.00     0.181 C 
ENDBRANCH  14  20
ENDBRANCH   1  12
TORSDOF 4
ENDMDL
MODEL 2
REMARK VINA RESULT:      -7.6      1.450      2.833
REMARK  4 active torsions:
REMARK  status: ('A' for Active; 'I' for Inactive)
REMARK    1  A    between atoms: N_2  and  S_1 
REMARK    2  A    between atoms: C_4  and  S_1 
REMARK    3  A    between atoms: C_15  and  C_3 
REMARK    4  A    between atoms: O_16  and  C_12 
ROOT
ATOM      1  S   UNL d   1      53.005  33.676  53.901  0.00  0.00     0.273 S 
ATOM      2  O   UNL d   1      53.359  33.640  53.156  0.00  0.00    -0.200 OA
ATOM      3  O   UNL d   1      52.652  33.713  54.645  0.00  0.00    -0.200 OA
ENDROOT
BRANCH   1   4
ATOM      4  N   UNL d   1      53.729  33.483  54.253  0.00  0.00    -0.213 N 
ATOM      5  C   UNL d   1      54.120  32.758  54.189  0.00  0.00     0.157 A 
ATOM      6  N   UNL d   1      54.821  32.810  54.629  0.00  0.00    -0.226 NA
ATOM      7  C   UNL d   1      54.860  33.565  54.961  0.00  0.00     0.101 A 
ATOM      8  C   UNL d   1      54.183  33.983  54.729  0.00  0.00     0.112 A 
ATOM      9  C   UNL d   1      55.465  33.854  55.440  0.00  0.00     0.022 C 
BRANCH   5  10
ATOM     10  C   UNL d   1      53.860  32.106  53.767  0.00  0.00     0.038 C 
ATOM     11  C   UNL d   1      54.268  31.393  53.824  0.00  0.00     0.003 C 
ENDBRANCH   5  10
ENDBRANCH   1   4
BRANCH   1  12
ATOM     12  C   UNL d   1      52.284  33.869  53.549  0.00  0.00     0.106 A 
ATOM     13  C   UNL d   1      51.678  33.309  53.518  0.00  0.00     0.037 A 
ATOM     14  C   UNL d   1      50.958  33.501  53.167  0.00  0.00     0.095 A 
ATOM     15  C   UNL d   1      50.842  34.253  52.847  0.00  0.00     0.022 A 
ATOM     16  C   UNL d   1      51.448  34.812  52.878  0.00  0.00     0.003 A 
ATOM     17  C   UNL d   1      50.121  34.445  52.495  0.00  0.00     0.002 C 
ATOM     18  C   UNL d   1      52.168  34.620  53.229  0.00  0.00     0.012 A 
ATOM     19  C   UNL d   1      52.771  35.170  53.263  0.00  0.00     0.001 C 
BRANCH  14  20
ATOM     20  O   UNL d   1      50.350  32.938  53.136  0.00  0.00    -0.328 OA
ATOM     21  C   UNL d   1      50.536  32.134  53.103  0.00  0.00     0.181 C 
ENDBRANCH  14  20
ENDBRANCH   1  12
TORSDOF 4
ENDMDL
MODEL 3
REMARK VINA RESULT:      -7.2      1.487      2.298
REMARK  4 active torsions:
REMARK  status: ('A' for Active; 'I' for Inactive)
REMARK    1  A    between atoms: N_2  and  S_1 
REMARK    2  A    between atoms: C_4  and  S_1 
REMARK    3  A    between atoms: C_15  and  C_3 
REMARK    4  A    between atoms: O_16  and  C_12 
ROOT
ATOM      1  S   UNL d   1      52.135  33.073  53.173  0.00  0.00     0.273 S 
ATOM      2  O   UNL d   1      51.963  33.009  53.977  0.00  0.00    -0.200 OA
ATOM      3  O   UNL d   1      52.307  33.137  52.369  0.00  0.00    -0.200 OA
ENDROOT
BRANCH   1   4
ATOM      4  N   UNL d   1      51.630  33.727  53.117  0.00  0.00    -0.213 N 
ATOM      5  C   UNL d   1      51.815  34.500  53.340  0.00  0.00     0.157 A 
ATOM      6  N   UNL d   1      51.150  34.971  53.188  0.00  0.00    -0.226 NA
ATOM      7  C   UNL d   1      50.559  34.488  52.874  0.00  0.00     0.101 A 
ATOM      8  C   UNL d   1      50.856  33.716  52.829  0.00  0.00     0.112 A 
ATOM      9  C   UNL d   1      49.805  34.730  52.643  0.00  0.00     0.022 C 
BRANCH   5  10
ATOM     10  C   UNL d   1      52.528  34.755  53.654  0.00  0.00     0.038 C 
ATOM     11  C   UNL d   1      52.591  35.517  53.960  0.00  0.00     0.003 C 
ENDBRANCH   5  10
ENDBRANCH   1   4
BRANCH   1  12
ATOM     12  C   UNL d   1      52.638  32.422  53.229  0.00  0.00     0.106 A 
ATOM     13  C   UNL d   1      53.442  32.532  53.383  0.00  0.00     0.037 A 
ATOM     14  C   UNL d   1      53.944  31.882  53.438  0.00  0.00     0.095 A 
ATOM     15  C   UNL d   1      53.644  31.119  53.341  0.00  0.00     0.022 A 
ATOM     16  C   UNL d   1      52.842  31.008  53.188  0.00  0.00     0.003 A 
ATOM     17  C   UNL d   1      54.148  30.467  53.397  0.00  0.00     0.002 C 
ATOM     18  C   UNL d   1      52.339  31.659  53.132  0.00  0.00     0.012 A 
ATOM     19  C   UNL d   1      51.543  31.554  52.980  0.00  0.00     0.001 C 
BRANCH  14  20
ATOM     20  O   UNL d   1      54.751  31.995  53.593  0.00  0.00    -0.328 OA
ATOM     21  C   UNL d   1      55.075  32.753  53.549  0.00  0.00     0.181 C 
ENDBRANCH  14  20
ENDBRANCH   1  12
TORSDOF 4
ENDMDL
MODEL 4
REMARK VINA RESULT:      -7.2      1.573      3.528
REMARK  4 active torsions:
REMARK  status: ('A' for Active; 'I' for Inactive)
REMARK    1  A    between atoms: N_2  and  S_1 
REMARK    2  A    between atoms: C_4  and  S_1 
REMARK    3  A    between atoms: C_15  and  C_3 
REMARK    4  A    between atoms: O_16  and  C_12 
ROOT
ATOM      1  S   UNL d   1      52.533  32.515  53.320  0.00  0.00     0.273 S 
ATOM      2  O   UNL d   1      52.446  32.510  54.140  0.00  0.00    -0.200 OA
ATOM      3  O   UNL d   1      52.621  32.521  52.499  0.00  0.00    -0.200 OA
ENDROOT
BRANCH   1   4
ATOM      4  N   UNL d   1      53.064  31.882  53.372  0.00  0.00    -0.213 N 
ATOM      5  C   UNL d   1      53.880  31.943  53.483  0.00  0.00     0.157 A 
ATOM      6  N   UNL d   1      54.190  31.174  53.502  0.00  0.00    -0.226 NA
ATOM      7  C   UNL d   1      53.566  30.644  53.402  0.00  0.00     0.101 A 
ATOM      8  C   UNL d   1      52.867  31.081  53.321  0.00  0.00     0.112 A 
ATOM      9  C   UNL d   1      53.625  29.822  53.385  0.00  0.00     0.022 C 
BRANCH   5  10
ATOM     10  C   UNL d   1      54.305  32.639  53.562  0.00  0.00     0.038 C 
ATOM     11  C   UNL d   1      55.126  32.612  53.623  0.00  0.00     0.003 C 
ENDBRANCH   5  10
ENDBRANCH   1   4
BRANCH   1  12
ATOM     12  C   UNL d   1      52.005  33.147  53.268  0.00  0.00     0.106 A 
ATOM     13  C   UNL d   1      52.273  33.920  53.376  0.00  0.00     0.037 A 
ATOM     14  C   UNL d   1      51.745  34.550  53.324  0.00  0.00     0.095 A 
ATOM     15  C   UNL d   1      50.947  34.409  53.164  0.00  0.00     0.022 A 
ATOM     16  C   UNL d   1      50.680  33.636  53.055  0.00  0.00     0.003 A 
ATOM     17  C   UNL d   1      50.419  35.040  53.112  0.00  0.00     0.002 C 
ATOM     18  C   UNL d   1      51.208  33.006  53.107  0.00  0.00     0.012 A 
ATOM     19  C   UNL d   1      50.947  32.239  53.001  0.00  0.00     0.001 C 
BRANCH  14  20
ATOM     20  O   UNL d   1      52.016  35.326  53.434  0.00  0.00    -0.328 OA
ATOM     21  C   UNL d   1      52.574  35.488  54.020  0.00  0.00     0.181 C 
ENDBRANCH  14  20
ENDBRANCH   1  12
TORSDOF 4
ENDMDL
MODEL 5
REMARK VINA RESULT:      -7.2      1.399      3.905
REMARK  4 active torsions:
REMARK  status: ('A' for Active; 'I' for Inactive)
REMARK    1  A    between atoms: N_2  and  S_1 
REMARK    2  A    between atoms: C_4  and  S_1 
REMARK    3  A    between atoms: C_15  and  C_3 
REMARK    4  A    between atoms: O_16  and  C_12 
ROOT
ATOM      1  S   UNL d   1      53.305  31.776  53.978  0.00  0.00     0.273 S 
ATOM      2  O   UNL d   1      52.528  31.767  54.255  0.00  0.00    -0.200 OA
ATOM      3  O   UNL d   1      54.082  31.784  53.700  0.00  0.00    -0.200 OA
ENDROOT
BRANCH   1   4
ATOM      4  N   UNL d   1      53.316  30.948  53.983  0.00  0.00    -0.213 N 
ATOM      5  C   UNL d   1      53.230  30.459  53.323  0.00  0.00     0.157 A 
ATOM      6  N   UNL d   1      53.277  29.673  53.583  0.00  0.00    -0.226 NA
ATOM      7  C   UNL d   1      53.391  29.680  54.400  0.00  0.00     0.101 A 
ATOM      8  C   UNL d   1      53.416  30.470  54.650  0.00  0.00     0.112 A 
ATOM      9  C   UNL d   1      53.467  29.018  54.886  0.00  0.00     0.022 C 
BRANCH   5  10
ATOM     10  C   UNL d   1      53.119  30.707  52.550  0.00  0.00     0.038 C 
ATOM     11  C   UNL d   1      52.995  30.151  51.955  0.00  0.00     0.003 C 
ENDBRANCH   5  10
ENDBRANCH   1   4
BRANCH   1  12
ATOM     12  C   UNL d   1      53.294  32.600  53.972  0.00  0.00     0.106 A 
ATOM     13  C   UNL d   1      52.882  33.004  53.381  0.00  0.00     0.037 A 
ATOM     14  C   UNL d   1      52.870  33.828  53.376  0.00  0.00     0.095 A 
ATOM     15  C   UNL d   1      53.271  34.250  53.961  0.00  0.00     0.022 A 
ATOM     16  C   UNL d   1      53.683  33.847  54.551  0.00  0.00     0.003 A 
ATOM     17  C   UNL d   1      53.260  35.075  53.956  0.00  0.00     0.002 C 
ATOM     18  C   UNL d   1      53.694  33.023  54.557  0.00  0.00     0.012 A 
ATOM     19  C   UNL d   1      54.101  32.619  55.139  0.00  0.00     0.001 C 
BRANCH  14  20
ATOM     20  O   UNL d   1      52.456  34.231  52.782  0.00  0.00    -0.328 OA
ATOM     21  C   UNL d   1      51.663  34.052  52.640  0.00  0.00     0.181 C 
ENDBRANCH  14  20
ENDBRANCH   1  12
TORSDOF 4
ENDMDL
MODEL 6
REMARK VINA RESULT:      -7.2      1.255      3.830
REMARK  4 active torsions:
REMARK  status: ('A' for Active; 'I' for Inactive)
REMARK    1  A    between atoms: N_2  and  S_1 
REMARK    2  A    between atoms: C_4  and  S_1 
REMARK    3  A    between atoms: C_15  and  C_3 
REMARK    4  A    between atoms: O_16  and  C_12 
ROOT
ATOM      1  S   UNL d   1      53.583  32.321  53.782  0.00  0.00     0.273 S 
ATOM      2  O   UNL d   1      53.665  32.718  53.063  0.00  0.00    -0.200 OA
ATOM      3  O   UNL d   1      53.502  31.925  54.500  0.00  0.00    -0.200 OA
ENDROOT
BRANCH   1   4
ATOM      4  N   UNL d   1      53.138  31.732  53.406  0.00  0.00    -0.213 N 
ATOM      5  C   UNL d   1      52.406  31.840  53.039  0.00  0.00     0.157 A 
ATOM      6  N   UNL d   1      52.165  31.106  52.739  0.00  0.00    -0.226 NA
ATOM      7  C   UNL d   1      52.747  30.550  52.921  0.00  0.00     0.101 A 
ATOM      8  C   UNL d   1      53.352  30.937  53.335  0.00  0.00     0.112 A 
ATOM      9  C   UNL d   1      52.732  29.749  52.727  0.00  0.00     0.022 C 
BRANCH   5  10
ATOM     10  C   UNL d   1      51.994  32.546  52.982  0.00  0.00     0.038 C 
ATOM     11  C   UNL d   1      51.193  32.537  52.792  0.00  0.00     0.003 C 
ENDBRANCH   5  10
ENDBRANCH   1   4
BRANCH   1  12
ATOM     12  C   UNL d   1      54.026  32.908  54.155  0.00  0.00     0.106 A 
ATOM     13  C   UNL d   1      53.657  33.444  54.663  0.00  0.00     0.037 A 
ATOM     14  C   UNL d   1      54.099  34.031  55.036  0.00  0.00     0.095 A 
ATOM     15  C   UNL d   1      54.913  34.082  54.903  0.00  0.00     0.022 A 
ATOM     16  C   UNL d   1      55.281  33.546  54.396  0.00  0.00     0.003 A 
ATOM     17  C   UNL d   1      55.356  34.669  55.277  0.00  0.00     0.002 C 
ATOM     18  C   UNL d   1      54.839  32.960  54.023  0.00  0.00     0.012 A 
ATOM     19  C   UNL d   1      55.200  32.427  53.520  0.00  0.00     0.001 C 
BRANCH  14  20
ATOM     20  O   UNL d   1      53.726  34.568  55.546  0.00  0.00    -0.328 OA
ATOM     21  C   UNL d   1      53.153  35.083  55.251  0.00  0.00     0.181 C 
ENDBRANCH  14  20
ENDBRANCH   1  12
TORSDOF 4
ENDMDL
MODEL 7
REMARK VINA RESULT:      -6.9      2.445      3.555
REMARK  4 active torsions:
REMARK  status: ('A' for Active; 'I' for Inactive)
REMARK    1  A    between atoms: N_2  and  S_1 
REMARK    2  A    between atoms: C_4  and  S_1 
REMARK    3  A    between atoms: C_15  and  C_3 
REMARK    4  A    between atoms: O_16  and  C_12 
ROOT
ATOM      1  S   UNL d   1      51.218  34.049  53.022  0.00  0.00     0.273 S 
ATOM      2  O   UNL d   1      50.856  33.503  53.524  0.00  0.00    -0.200 OA
ATOM      3  O   UNL d   1      51.579  34.594  52.519  0.00  0.00    -0.200 OA
ENDROOT
BRANCH   1   4
ATOM      4  N   UNL d   1      50.490  34.426  52.907  0.00  0.00    -0.213 N 
ATOM      5  C   UNL d   1      50.066  34.453  52.199  0.00  0.00     0.157 A 
ATOM      6  N   UNL d   1      49.372  34.887  52.338  0.00  0.00    -0.226 NA
ATOM      7  C   UNL d   1      49.372  35.124  53.128  0.00  0.00     0.101 A 
ATOM      8  C   UNL d   1      50.064  34.839  53.482  0.00  0.00     0.112 A 
ATOM      9  C   UNL d   1      48.785  35.568  53.501  0.00  0.00     0.022 C 
BRANCH   5  10
ATOM     10  C   UNL d   1      50.291  34.113  51.488  0.00  0.00     0.038 C 
ATOM     11  C   UNL d   1      49.801  34.180  50.830  0.00  0.00     0.003 C 
ENDBRANCH   5  10
ENDBRANCH   1   4
BRANCH   1  12
ATOM     12  C   UNL d   1      51.943  33.672  53.136  0.00  0.00     0.106 A 
ATOM     13  C   UNL d   1      52.069  32.916  52.830  0.00  0.00     0.037 A 
ATOM     14  C   UNL d   1      52.793  32.540  52.943  0.00  0.00     0.095 A 
ATOM     15  C   UNL d   1      53.394  32.920  53.363  0.00  0.00     0.022 A 
ATOM     16  C   UNL d   1      53.268  33.676  53.669  0.00  0.00     0.003 A 
ATOM     17  C   UNL d   1      54.119  32.544  53.477  0.00  0.00     0.002 C 
ATOM     18  C   UNL d   1      52.544  34.052  53.555  0.00  0.00     0.012 A 
ATOM     19  C   UNL d   1      52.415  34.800  53.856  0.00  0.00     0.001 C 
BRANCH  14  20
ATOM     20  O   UNL d   1      52.917  31.780  52.635  0.00  0.00    -0.328 OA
ATOM     21  C   UNL d   1      52.507  31.137  52.950  0.00  0.00     0.181 C 
ENDBRANCH  14  20
ENDBRANCH   1  12
TORSDOF 4
ENDMDL
MODEL 8
REMARK VINA RESULT:      -6.9      2.083      3.497
REMARK  4 active torsions:
REMARK  status: ('A' for Active; 'I' for Inactive)
REMARK    1  A    between atoms: N_2  and  S_1 
REMARK    2  A    between atoms: C_4  and  S_1 
REMARK    3  A    between atoms: C_15  and  C_3 
REMARK    4  A    between atoms: O_16  and  C_12 
ROOT
ATOM      1  S   UNL d   1      52.114  34.190  53.524  0.00  0.00     0.273 S 
ATOM      2  O   UNL d   1      52.492  34.790  53.102  0.00  0.00    -0.200 OA
ATOM      3  O   UNL d   1      51.737  33.591  53.946  0.00  0.00    -0.200 OA
ENDROOT
BRANCH   1   4
ATOM      4  N   UNL d   1      52.764  34.141  54.035  0.00  0.00    -0.213 N 
ATOM      5  C   UNL d   1      53.078  34.762  54.480  0.00  0.00     0.157 A 
ATOM      6  N   UNL d   1      53.722  34.464  54.909  0.00  0.00    -0.226 NA
ATOM      7  C   UNL d   1      53.802  33.663  54.728  0.00  0.00     0.101 A 
ATOM      8  C   UNL d   1      53.209  33.461  54.185  0.00  0.00     0.112 A 
ATOM      9  C   UNL d   1      54.373  33.151  55.032  0.00  0.00     0.022 C 
BRANCH   5  10
ATOM     10  C   UNL d   1      52.801  35.533  54.494  0.00  0.00     0.038 C 
ATOM     11  C   UNL d   1      53.200  36.103  54.935  0.00  0.00     0.003 C 
ENDBRANCH   5  10
ENDBRANCH   1   4
BRANCH   1  12
ATOM     12  C   UNL d   1      51.467  34.240  53.015  0.00  0.00     0.106 A 
ATOM     13  C   UNL d   1      50.726  34.456  53.310  0.00  0.00     0.037 A 
ATOM     14  C   UNL d   1      50.079  34.505  52.801  0.00  0.00     0.095 A 
ATOM     15  C   UNL d   1      50.172  34.340  51.998  0.00  0.00     0.022 A 
ATOM     16  C   UNL d   1      50.912  34.124  51.704  0.00  0.00     0.003 A 
ATOM     17  C   UNL d   1      49.524  34.389  51.489  0.00  0.00     0.002 C 
ATOM     18  C   UNL d   1      51.559  34.075  52.213  0.00  0.00     0.012 A 
ATOM     19  C   UNL d   1      52.294  33.862  51.926  0.00  0.00     0.001 C 
BRANCH  14  20
ATOM     20  O   UNL d   1      49.336  34.722  53.099  0.00  0.00    -0.328 OA
ATOM     21  C   UNL d   1      49.209  35.492  53.365  0.00  0.00     0.181 C 
ENDBRANCH  14  20
ENDBRANCH   1  12
TORSDOF 4
ENDMDL
MODEL 9
REMARK VINA RESULT:      -6.6      2.419      3.987
REMARK  4 active torsions:
REMARK  status: ('A' for Active; 'I' for Inactive)
REMARK    1  A    between atoms: N_2  and  S_1 
REMARK    2  A    between atoms: C_4  and  S_1 
REMARK    3  A    between atoms: C_15  and  C_3 
REMARK    4  A    between atoms: O_16  and  C_12 
ROOT
ATOM      1  S   UNL d   1      51.323  34.074  52.881  0.00  0.00     0.273 S 
ATOM      2  O   UNL d   1      51.765  34.580  52.402  0.00  0.00    -0.200 OA
ATOM      3  O   UNL d   1      50.881  33.569  53.360  0.00  0.00    -0.200 OA
ENDROOT
BRANCH   1   4
ATOM      4  N   UNL d   1      50.647  34.240  52.432  0.00  0.00    -0.213 N 
ATOM      5  C   UNL d   1      49.975  34.638  52.701  0.00  0.00     0.157 A 
ATOM      6  N   UNL d   1      49.439  34.680  52.069  0.00  0.00    -0.226 NA
ATOM      7  C   UNL d   1      49.781  34.308  51.417  0.00  0.00     0.101 A 
ATOM      8  C   UNL d   1      50.531  34.035  51.641  0.00  0.00     0.112 A 
ATOM      9  C   UNL d   1      49.439  34.223  50.672  0.00  0.00     0.022 C 
BRANCH   5  10
ATOM     10  C   UNL d   1      49.860  34.938  53.455  0.00  0.00     0.038 C 
ATOM     11  C   UNL d   1      49.191  35.388  53.618  0.00  0.00     0.003 C 
ENDBRANCH   5  10
ENDBRANCH   1   4
BRANCH   1  12
ATOM     12  C   UNL d   1      51.997  33.909  53.328  0.00  0.00     0.106 A 
ATOM     13  C   UNL d   1      52.335  34.498  53.798  0.00  0.00     0.037 A 
ATOM     14  C   UNL d   1      53.008  34.333  54.245  0.00  0.00     0.095 A 
ATOM     15  C   UNL d   1      53.344  33.579  54.222  0.00  0.00     0.022 A 
ATOM     16  C   UNL d   1      53.006  32.991  53.752  0.00  0.00     0.003 A 
ATOM     17  C   UNL d   1      54.017  33.414  54.669  0.00  0.00     0.002 C 
ATOM     18  C   UNL d   1      52.333  33.156  53.306  0.00  0.00     0.012 A 
ATOM     19  C   UNL d   1      51.995  32.577  52.839  0.00  0.00     0.001 C 
BRANCH  14  20
ATOM     20  O   UNL d   1      53.346  34.925  54.716  0.00  0.00    -0.328 OA
ATOM     21  C   UNL d   1      53.116  35.711  54.617  0.00  0.00     0.181 C 
ENDBRANCH  14  20
ENDBRANCH   1  12
TORSDOF 4
ENDMDL
