MODEL 1
REMARK VINA RESULT:      23.9      0.000      0.000
REMARK  5 active torsions:
REMARK  status: ('A' for Active; 'I' for Inactive)
REMARK    1  A    between atoms: N_6  and  C_1 
REMARK    2  A    between atoms: C_11  and  N_2 
REMARK    3  A    between atoms: S_3  and  C_10 
REMARK    4  A    between atoms: N_8  and  S_3 
REMARK       I    between atoms: C_9  and  N_6 
REMARK    5  A    between atoms: C_15  and  C_9 
ROOT
ATOM      1  N   UNL d   1      45.895 -18.254  42.988  0.00  0.00    -0.189 NA
ATOM      2  C   UNL d   1      46.162 -17.886  43.630  0.00  0.00     0.281 C 
ATOM      3  O   UNL d   1      46.646 -18.343  44.112  0.00  0.00    -0.265 OA
ENDROOT
BRANCH   2   4
ATOM      4  C   UNL d   1      45.983 -17.097  43.828  0.00  0.00     0.058 A 
ATOM      5  C   UNL d   1      46.159 -16.539  43.378  0.00  0.00     0.005 A 
ATOM      6  C   UNL d   1      45.994 -15.793  43.555  0.00  0.00     0.013 A 
ATOM      7  C   UNL d   1      45.607 -15.638  44.278  0.00  0.00     0.104 A 
ATOM      8  C   UNL d   1      45.451 -16.267  44.702  0.00  0.00     0.013 A 
ATOM      9  C   UNL d   1      45.623 -17.008  44.510  0.00  0.00     0.005 A 
BRANCH   7  10
ATOM     10  S   UNL d   1      45.428 -14.839  44.473  0.00  0.00     0.271 S 
ATOM     11  O   UNL d   1      46.055 -14.574  44.090  0.00  0.00    -0.200 OA
ATOM     12  O   UNL d   1      44.736 -15.111  44.896  0.00  0.00    -0.200 OA
BRANCH  10  13
ATOM     13  N   UNL d   1      45.309 -14.047  44.628  0.00  0.00    -0.229 N 
ATOM     14  C   UNL d   1      44.581 -13.696  44.673  0.00  0.00     0.092 A 
ATOM     15  C   UNL d   1      44.731 -12.875  44.843  0.00  0.00     0.021 A 
ATOM     16  C   UNL d   1      45.499 -12.761  44.892  0.00  0.00     0.021 A 
ATOM     17  C   UNL d   1      45.886 -13.471  44.763  0.00  0.00     0.092 A 
ENDBRANCH  10  13
ENDBRANCH   7  10
ENDBRANCH   2   4
BRANCH   1  18
ATOM     18  C   UNL d   1      46.017 -19.018  42.713  0.00  0.00     0.165 A 
ATOM     19  N   UNL d   1      45.973 -19.752  43.003  0.00  0.00    -0.238 N 
ATOM     20  N   UNL d   1      46.142 -20.329  42.528  0.00  0.00    -0.168 NA
ATOM     21  C   UNL d   1      46.329 -19.971  41.815  0.00  0.00     0.111 A 
ATOM     22  C   UNL d   1      46.258 -19.164  41.908  0.00  0.00     0.062 A 
ATOM     23  C   UNL d   1      46.568 -20.089  41.015  0.00  0.00     0.056 A 
ATOM     24  C   UNL d   1      46.448 -18.774  41.179  0.00  0.00     0.040 A 
ATOM     25  S   UNL d   1      46.643 -19.368  40.621  0.00  0.00    -0.084 SA
BRANCH  19  26
ATOM     26  C   UNL d   1      45.756 -19.945  43.787  0.00  0.00     0.088 C 
ATOM     27  C   UNL d   1      46.567 -19.933  44.032  0.00  0.00     0.025 C 
ATOM     28  C   UNL d   1      44.925 -19.960  43.547  0.00  0.00     0.025 C 
ATOM     29  C   UNL d   1      45.496 -20.147  44.597  0.00  0.00     0.025 C 
ENDBRANCH  19  26
ENDBRANCH   1  18
TORSDOF 5
ENDMDL
