MODEL 1
REMARK VINA RESULT:      -2.9      0.000      0.000
REMARK  3 active torsions:
REMARK  status: ('A' for Active; 'I' for Inactive)
REMARK    1  A    between atoms: C_12  and  N_3 
REMARK    2  A    between atoms: C_11  and  C_6 
REMARK    3  A    between atoms: C_22  and  C_12 
ROOT
ATOM      1  C   UNL d   1      57.416   0.497  31.543  0.00  0.00     0.130 A 
ATOM      2  C   UNL d   1      57.997   0.571  32.124  0.00  0.00     0.157 A 
ATOM      3  N   UNL d   1      58.429   0.501  30.530  0.00  0.00    -0.256 N 
ATOM      4  C   UNL d   1      57.636   0.462  30.750  0.00  0.00     0.272 A 
ATOM      5  N   UNL d   1      58.796   0.611  31.915  0.00  0.00    -0.208 NA
ATOM      6  C   UNL d   1      59.017   0.576  31.122  0.00  0.00     0.175 A 
ATOM      7  C   UNL d   1      56.625   0.458  31.754  0.00  0.00     0.204 A 
ATOM      8  N   UNL d   1      57.786   0.607  32.925  0.00  0.00    -0.289 N 
ATOM      9  C   UNL d   1      56.408   0.493  32.550  0.00  0.00     0.055 A 
ATOM     10  C   UNL d   1      56.983   0.567  33.137  0.00  0.00     0.069 A 
ATOM     11  O   UNL d   1      57.061   0.388  30.164  0.00  0.00    -0.266 OA
ATOM     12  O   UNL d   1      56.048   0.384  31.172  0.00  0.00    -0.286 OA
ATOM     13  C   UNL d   1      58.361   0.681  33.512  0.00  0.00     0.101 C 
ATOM     14  C   UNL d   1      55.612   0.453  32.757  0.00  0.00     0.005 A 
ATOM     15  C   UNL d   1      56.763   0.602  33.929  0.00  0.00     0.018 A 
ATOM     16  C   UNL d   1      55.391   0.488  33.549  0.00  0.00     0.000 A 
ATOM     17  C   UNL d   1      55.966   0.562  34.135  0.00  0.00     0.002 A 
ENDROOT
BRANCH   6  18
ATOM     18  C   UNL d   1      59.819   0.615  30.904  0.00  0.00     0.135 A 
ATOM     19  O   UNL d   1      60.398   0.622  31.492  0.00  0.00    -0.302 OA
ATOM     20  C   UNL d   1      61.133   0.663  31.118  0.00  0.00     0.123 A 
ATOM     21  C   UNL d   1      61.006   0.682  30.300  0.00  0.00     0.029 A 
ATOM     22  C   UNL d   1      60.195   0.653  30.171  0.00  0.00     0.030 A 
ENDBRANCH   6  18
BRANCH   3  23
ATOM     23  C   UNL d   1      58.650   0.466  29.731  0.00  0.00     0.085 C 
BRANCH  23  24
ATOM     24  C   UNL d   1      58.293  -0.092  29.226  0.00  0.00     0.018 C 
ATOM     25  C   UNL d   1      57.866   0.171  28.551  0.00  0.00     0.002 C 
ATOM     26  C   UNL d   1      58.357  -0.908  29.386  0.00  0.00     0.002 C 
ENDBRANCH  23  24
ENDBRANCH   3  23
TORSDOF 3
ENDMDL
MODEL 2
REMARK VINA RESULT:      -1.2      2.511      4.990
REMARK  3 active torsions:
REMARK  status: ('A' for Active; 'I' for Inactive)
REMARK    1  A    between atoms: C_12  and  N_3 
REMARK    2  A    between atoms: C_11  and  C_6 
REMARK    3  A    between atoms: C_22  and  C_12 
ROOT
ATOM      1  C   UNL d   1      59.775  -2.124  29.240  0.00  0.00     0.130 A 
ATOM      2  C   UNL d   1      58.978  -2.319  29.326  0.00  0.00     0.157 A 
ATOM      3  N   UNL d   1      59.486  -0.776  29.633  0.00  0.00    -0.256 N 
ATOM      4  C   UNL d   1      60.023  -1.354  29.395  0.00  0.00     0.272 A 
ATOM      5  N   UNL d   1      58.430  -1.748  29.565  0.00  0.00    -0.208 NA
ATOM      6  C   UNL d   1      58.677  -0.978  29.719  0.00  0.00     0.175 A 
ATOM      7  C   UNL d   1      60.315  -2.693  29.004  0.00  0.00     0.204 A 
ATOM      8  N   UNL d   1      58.718  -3.092  29.173  0.00  0.00    -0.289 N 
ATOM      9  C   UNL d   1      60.063  -3.464  28.850  0.00  0.00     0.055 A 
ATOM     10  C   UNL d   1      59.267  -3.667  28.933  0.00  0.00     0.069 A 
ATOM     11  O   UNL d   1      60.819  -1.151  29.311  0.00  0.00    -0.266 OA
ATOM     12  O   UNL d   1      61.110  -2.494  28.919  0.00  0.00    -0.286 OA
ATOM     13  C   UNL d   1      57.922  -3.294  29.257  0.00  0.00     0.101 C 
ATOM     14  C   UNL d   1      60.610  -4.031  28.613  0.00  0.00     0.005 A 
ATOM     15  C   UNL d   1      59.019  -4.436  28.779  0.00  0.00     0.018 A 
ATOM     16  C   UNL d   1      60.362  -4.801  28.458  0.00  0.00     0.000 A 
ATOM     17  C   UNL d   1      59.567  -5.004  28.542  0.00  0.00     0.002 A 
ENDROOT
BRANCH   6  18
ATOM     18  C   UNL d   1      58.132  -0.397  29.960  0.00  0.00     0.135 A 
ATOM     19  O   UNL d   1      57.627  -0.555  30.593  0.00  0.00    -0.302 OA
ATOM     20  C   UNL d   1      57.153   0.112  30.706  0.00  0.00     0.123 A 
ATOM     21  C   UNL d   1      57.366   0.679  30.142  0.00  0.00     0.029 A 
ATOM     22  C   UNL d   1      57.970   0.362  29.683  0.00  0.00     0.030 A 
ENDBRANCH   6  18
BRANCH   3  23
ATOM     23  C   UNL d   1      59.738  -0.001  29.788  0.00  0.00     0.085 C 
BRANCH  23  24
ATOM     24  C   UNL d   1      60.551   0.177  29.801  0.00  0.00     0.018 C 
ATOM     25  C   UNL d   1      60.963   0.291  29.077  0.00  0.00     0.002 C 
ATOM     26  C   UNL d   1      60.957   0.241  30.526  0.00  0.00     0.002 C 
ENDBRANCH  23  24
ENDBRANCH   3  23
TORSDOF 3
ENDMDL
MODEL 3
REMARK VINA RESULT:      -1.2      1.185      3.883
REMARK  3 active torsions:
REMARK  status: ('A' for Active; 'I' for Inactive)
REMARK    1  A    between atoms: C_12  and  N_3 
REMARK    2  A    between atoms: C_11  and  C_6 
REMARK    3  A    between atoms: C_22  and  C_12 
ROOT
ATOM      1  C   UNL d   1      57.416   0.676  32.032  0.00  0.00     0.130 A 
ATOM      2  C   UNL d   1      58.160   0.675  32.389  0.00  0.00     0.157 A 
ATOM      3  N   UNL d   1      56.797   0.673  33.325  0.00  0.00    -0.256 N 
ATOM      4  C   UNL d   1      56.740   0.674  32.503  0.00  0.00     0.272 A 
ATOM      5  N   UNL d   1      58.229   0.674  33.214  0.00  0.00    -0.208 NA
ATOM      6  C   UNL d   1      57.554   0.673  33.685  0.00  0.00     0.175 A 
ATOM      7  C   UNL d   1      57.351   0.677  31.216  0.00  0.00     0.204 A 
ATOM      8  N   UNL d   1      58.847   0.677  31.925  0.00  0.00    -0.289 N 
ATOM      9  C   UNL d   1      58.031   0.678  30.747  0.00  0.00     0.055 A 
ATOM     10  C   UNL d   1      58.779   0.678  31.097  0.00  0.00     0.069 A 
ATOM     11  O   UNL d   1      55.993   0.674  32.153  0.00  0.00    -0.266 OA
ATOM     12  O   UNL d   1      56.607   0.677  30.863  0.00  0.00    -0.286 OA
ATOM     13  C   UNL d   1      59.594   0.676  32.275  0.00  0.00     0.101 C 
ATOM     14  C   UNL d   1      57.960   0.680  29.927  0.00  0.00     0.005 A 
ATOM     15  C   UNL d   1      59.454   0.679  30.627  0.00  0.00     0.018 A 
ATOM     16  C   UNL d   1      58.636   0.681  29.456  0.00  0.00     0.000 A 
ATOM     17  C   UNL d   1      59.383   0.681  29.806  0.00  0.00     0.002 A 
ENDROOT
BRANCH   6  18
ATOM     18  C   UNL d   1      57.616   0.671  34.514  0.00  0.00     0.135 A 
ATOM     19  O   UNL d   1      58.363   0.675  34.864  0.00  0.00    -0.302 OA
ATOM     20  C   UNL d   1      58.256   0.672  35.683  0.00  0.00     0.123 A 
ATOM     21  C   UNL d   1      57.443   0.667  35.837  0.00  0.00     0.029 A 
ATOM     22  C   UNL d   1      57.050   0.666  35.114  0.00  0.00     0.030 A 
ENDBRANCH   6  18
BRANCH   3  23
ATOM     23  C   UNL d   1      56.115   0.671  33.797  0.00  0.00     0.085 C 
BRANCH  23  24
ATOM     24  C   UNL d   1      55.441   0.247  33.553  0.00  0.00     0.018 C 
ATOM     25  C   UNL d   1      55.511  -0.569  33.362  0.00  0.00     0.002 C 
ATOM     26  C   UNL d   1      54.701   0.627  33.498  0.00  0.00     0.002 C 
ENDBRANCH  23  24
ENDBRANCH   3  23
TORSDOF 3
ENDMDL
MODEL 4
REMARK VINA RESULT:      -0.3      9.770     10.478
REMARK  3 active torsions:
REMARK  status: ('A' for Active; 'I' for Inactive)
REMARK    1  A    between atoms: C_12  and  N_3 
REMARK    2  A    between atoms: C_11  and  C_6 
REMARK    3  A    between atoms: C_22  and  C_12 
ROOT
ATOM      1  C   UNL d   1      58.857  -9.813  32.609  0.00  0.00     0.130 A 
ATOM      2  C   UNL d   1      59.672  -9.811  32.478  0.00  0.00     0.157 A 
ATOM      3  N   UNL d   1      58.630  -9.815  31.194  0.00  0.00    -0.256 N 
ATOM      4  C   UNL d   1      58.342  -9.816  31.966  0.00  0.00     0.272 A 
ATOM      5  N   UNL d   1      59.972  -9.811  31.707  0.00  0.00    -0.208 NA
ATOM      6  C   UNL d   1      59.458  -9.813  31.064  0.00  0.00     0.175 A 
ATOM      7  C   UNL d   1      58.563  -9.814  33.374  0.00  0.00     0.204 A 
ATOM      8  N   UNL d   1      60.199  -9.809  33.118  0.00  0.00    -0.289 N 
ATOM      9  C   UNL d   1      59.082  -9.812  34.016  0.00  0.00     0.055 A 
ATOM     10  C   UNL d   1      59.898  -9.809  33.893  0.00  0.00     0.069 A 
ATOM     11  O   UNL d   1      57.527  -9.818  32.089  0.00  0.00    -0.266 OA
ATOM     12  O   UNL d   1      57.749  -9.816  33.501  0.00  0.00    -0.286 OA
ATOM     13  C   UNL d   1      61.014  -9.806  32.994  0.00  0.00     0.101 C 
ATOM     14  C   UNL d   1      58.782  -9.812  34.782  0.00  0.00     0.005 A 
ATOM     15  C   UNL d   1      60.413  -9.807  34.535  0.00  0.00     0.018 A 
ATOM     16  C   UNL d   1      59.296  -9.810  35.425  0.00  0.00     0.000 A 
ATOM     17  C   UNL d   1      60.111  -9.807  35.302  0.00  0.00     0.002 A 
ENDROOT
BRANCH   6  18
ATOM     18  C   UNL d   1      59.753  -9.813  30.286  0.00  0.00     0.135 A 
ATOM     19  O   UNL d   1      60.568  -9.815  30.162  0.00  0.00    -0.302 OA
ATOM     20  C   UNL d   1      60.698  -9.814  29.347  0.00  0.00     0.123 A 
ATOM     21  C   UNL d   1      59.962  -9.811  28.969  0.00  0.00     0.029 A 
ATOM     22  C   UNL d   1      59.380  -9.810  29.550  0.00  0.00     0.030 A 
ENDBRANCH   6  18
BRANCH   3  23
ATOM     23  C   UNL d   1      58.110  -9.817  30.548  0.00  0.00     0.085 C 
BRANCH  23  24
ATOM     24  C   UNL d   1      57.418  -9.354  30.569  0.00  0.00     0.018 C 
ATOM     25  C   UNL d   1      57.478  -8.523  30.676  0.00  0.00     0.002 C 
ATOM     26  C   UNL d   1      56.670  -9.711  30.486  0.00  0.00     0.002 C 
ENDBRANCH  23  24
ENDBRANCH   3  23
TORSDOF 3
ENDMDL
