MODEL 1
REMARK VINA RESULT:      -8.7      0.000      0.000
REMARK  7 active torsions:
REMARK  status: ('A' for Active; 'I' for Inactive)
REMARK    1  A    between atoms: N_2  and  S_1 
REMARK    2  A    between atoms: C_3  and  S_1 
REMARK    3  A    between atoms: C_16  and  N_2 
REMARK    4  A    between atoms: C_4  and  C_10 
REMARK       I    between atoms: N_7  and  C_4 
REMARK    5  A    between atoms: C_17  and  N_7 
REMARK    6  A    between atoms: C_9  and  C_17 
REMARK    7  A    between atoms: O_23  and  C_20 
ROOT
ATOM      1  C   UNL d   1      50.138  34.421  52.041  0.00  0.00     0.058 A 
ATOM      2  C   UNL d   1      51.553  34.290  52.876  0.00  0.00     0.094 A 
ATOM      3  C   UNL d   1      50.129  34.355  52.863  0.00  0.00     0.006 A 
ATOM      4  C   UNL d   1      50.857  34.423  51.636  0.00  0.00     0.006 A 
ATOM      5  C   UNL d   1      50.837  34.289  53.283  0.00  0.00     0.020 A 
ATOM      6  C   UNL d   1      51.567  34.357  52.048  0.00  0.00     0.020 A 
ENDROOT
BRANCH   2   7
ATOM      7  N   UNL d   1      52.258  34.225  53.288  0.00  0.00    -0.158 NA
BRANCH   7   8
ATOM      8  S   UNL d   1      52.612  33.483  53.381  0.00  0.00     0.285 S 
ATOM      9  O   UNL d   1      53.097  33.631  52.726  0.00  0.00    -0.198 OA
ATOM     10  O   UNL d   1      52.134  33.331  54.032  0.00  0.00    -0.198 OA
BRANCH   8  11
ATOM     11  C   UNL d   1      52.968  32.747  53.470  0.00  0.00     0.107 A 
ATOM     12  C   UNL d   1      52.643  32.088  53.097  0.00  0.00     0.037 A 
ATOM     13  C   UNL d   1      52.996  31.340  53.181  0.00  0.00     0.095 A 
ATOM     14  C   UNL d   1      53.675  31.264  53.641  0.00  0.00     0.024 A 
ATOM     15  C   UNL d   1      54.003  31.922  54.015  0.00  0.00     0.003 A 
ATOM     16  C   UNL d   1      53.649  32.665  53.930  0.00  0.00     0.013 A 
BRANCH  13  17
ATOM     17  O   UNL d   1      52.666  30.670  52.803  0.00  0.00    -0.328 OA
ATOM     18  C   UNL d   1      52.796  29.915  53.122  0.00  0.00     0.181 C 
ENDBRANCH  13  17
ENDBRANCH   8  11
ENDBRANCH   7   8
ENDBRANCH   2   7
BRANCH   1  19
ATOM     19  C   UNL d   1      49.423  34.488  51.615  0.00  0.00     0.279 C 
ATOM     20  N   UNL d   1      48.840  35.006  51.873  0.00  0.00    -0.204 NA
ATOM     21  O   UNL d   1      49.302  34.032  50.931  0.00  0.00    -0.265 OA
BRANCH  20  22
ATOM     22  C   UNL d   1      48.129  35.073  51.449  0.00  0.00     0.127 C 
BRANCH  22  23
ATOM     23  C   UNL d   1      47.530  35.584  51.723  0.00  0.00     0.119 A 
ATOM     24  O   UNL d   1      47.635  36.227  52.222  0.00  0.00    -0.304 OA
ATOM     25  C   UNL d   1      46.897  36.568  52.344  0.00  0.00     0.123 A 
ATOM     26  C   UNL d   1      46.348  36.138  51.923  0.00  0.00     0.029 A 
ATOM     27  C   UNL d   1      46.740  35.527  51.537  0.00  0.00     0.028 A 
ENDBRANCH  22  23
ENDBRANCH  20  22
ENDBRANCH   1  19
TORSDOF 7
ENDMDL
MODEL 2
REMARK VINA RESULT:      -8.6      1.209      1.579
REMARK  7 active torsions:
REMARK  status: ('A' for Active; 'I' for Inactive)
REMARK    1  A    between atoms: N_2  and  S_1 
REMARK    2  A    between atoms: C_3  and  S_1 
REMARK    3  A    between atoms: C_16  and  N_2 
REMARK    4  A    between atoms: C_4  and  C_10 
REMARK       I    between atoms: N_7  and  C_4 
REMARK    5  A    between atoms: C_17  and  N_7 
REMARK    6  A    between atoms: C_9  and  C_17 
REMARK    7  A    between atoms: O_23  and  C_20 
ROOT
ATOM      1  C   UNL d   1      50.618  34.178  52.614  0.00  0.00     0.058 A 
ATOM      2  C   UNL d   1      52.049  33.493  53.064  0.00  0.00     0.094 A 
ATOM      3  C   UNL d   1      50.669  33.747  53.315  0.00  0.00     0.006 A 
ATOM      4  C   UNL d   1      51.286  34.266  52.137  0.00  0.00     0.006 A 
ATOM      5  C   UNL d   1      51.385  33.403  53.543  0.00  0.00     0.020 A 
ATOM      6  C   UNL d   1      52.003  33.927  52.356  0.00  0.00     0.020 A 
ENDROOT
BRANCH   2   7
ATOM      7  N   UNL d   1      52.761  33.154  53.285  0.00  0.00    -0.158 NA
BRANCH   7   8
ATOM      8  S   UNL d   1      52.850  32.332  53.260  0.00  0.00     0.285 S 
ATOM      9  O   UNL d   1      52.740  32.295  54.080  0.00  0.00    -0.198 OA
ATOM     10  O   UNL d   1      52.959  32.363  52.447  0.00  0.00    -0.198 OA
BRANCH   8  11
ATOM     11  C   UNL d   1      52.937  31.515  53.241  0.00  0.00     0.107 A 
ATOM     12  C   UNL d   1      53.191  31.114  53.915  0.00  0.00     0.037 A 
ATOM     13  C   UNL d   1      53.282  30.288  53.904  0.00  0.00     0.095 A 
ATOM     14  C   UNL d   1      53.115  29.872  53.213  0.00  0.00     0.024 A 
ATOM     15  C   UNL d   1      52.861  30.271  52.537  0.00  0.00     0.003 A 
ATOM     16  C   UNL d   1      52.771  31.093  52.550  0.00  0.00     0.013 A 
BRANCH  13  17
ATOM     17  O   UNL d   1      53.540  29.881  54.588  0.00  0.00    -0.328 OA
ATOM     18  C   UNL d   1      53.352  29.078  54.682  0.00  0.00     0.181 C 
ENDBRANCH  13  17
ENDBRANCH   8  11
ENDBRANCH   7   8
ENDBRANCH   2   7
BRANCH   1  19
ATOM     19  C   UNL d   1      49.896  34.526  52.383  0.00  0.00     0.279 C 
ATOM     20  N   UNL d   1      49.484  35.002  52.911  0.00  0.00    -0.204 NA
ATOM     21  O   UNL d   1      49.594  34.393  51.620  0.00  0.00    -0.265 OA
BRANCH  20  22
ATOM     22  C   UNL d   1      48.765  35.349  52.681  0.00  0.00     0.127 C 
BRANCH  22  23
ATOM     23  C   UNL d   1      48.372  35.870  53.200  0.00  0.00     0.119 A 
ATOM     24  O   UNL d   1      48.707  36.253  53.844  0.00  0.00    -0.304 OA
ATOM     25  C   UNL d   1      48.118  36.708  54.193  0.00  0.00     0.123 A 
ATOM     26  C   UNL d   1      47.432  36.604  53.767  0.00  0.00     0.029 A 
ATOM     27  C   UNL d   1      47.589  36.083  53.150  0.00  0.00     0.028 A 
ENDBRANCH  22  23
ENDBRANCH  20  22
ENDBRANCH   1  19
TORSDOF 7
ENDMDL
MODEL 3
REMARK VINA RESULT:      -8.1      1.488      2.240
REMARK  7 active torsions:
REMARK  status: ('A' for Active; 'I' for Inactive)
REMARK    1  A    between atoms: N_2  and  S_1 
REMARK    2  A    between atoms: C_3  and  S_1 
REMARK    3  A    between atoms: C_16  and  N_2 
REMARK    4  A    between atoms: C_4  and  C_10 
REMARK       I    between atoms: N_7  and  C_4 
REMARK    5  A    between atoms: C_17  and  N_7 
REMARK    6  A    between atoms: C_9  and  C_17 
REMARK    7  A    between atoms: O_23  and  C_20 
ROOT
ATOM      1  C   UNL d   1      50.263  34.236  52.404  0.00  0.00     0.058 A 
ATOM      2  C   UNL d   1      51.653  33.373  52.613  0.00  0.00     0.094 A 
ATOM      3  C   UNL d   1      50.282  33.602  52.932  0.00  0.00     0.006 A 
ATOM      4  C   UNL d   1      50.941  34.438  51.980  0.00  0.00     0.006 A 
ATOM      5  C   UNL d   1      50.977  33.169  53.038  0.00  0.00     0.020 A 
ATOM      6  C   UNL d   1      51.639  34.011  52.080  0.00  0.00     0.020 A 
ENDROOT
BRANCH   2   7
ATOM      7  N   UNL d   1      52.344  32.947  52.715  0.00  0.00    -0.158 NA
BRANCH   7   8
ATOM      8  S   UNL d   1      52.874  33.160  53.314  0.00  0.00     0.285 S 
ATOM      9  O   UNL d   1      52.500  32.634  53.833  0.00  0.00    -0.198 OA
ATOM     10  O   UNL d   1      53.249  33.683  52.803  0.00  0.00    -0.198 OA
BRANCH   8  11
ATOM     11  C   UNL d   1      53.398  33.368  53.912  0.00  0.00     0.107 A 
ATOM     12  C   UNL d   1      53.235  34.017  54.392  0.00  0.00     0.037 A 
ATOM     13  C   UNL d   1      53.760  34.234  54.999  0.00  0.00     0.095 A 
ATOM     14  C   UNL d   1      54.445  33.793  55.118  0.00  0.00     0.024 A 
ATOM     15  C   UNL d   1      54.610  33.142  54.639  0.00  0.00     0.003 A 
ATOM     16  C   UNL d   1      54.087  32.928  54.035  0.00  0.00     0.013 A 
BRANCH  13  17
ATOM     17  O   UNL d   1      53.594  34.894  55.486  0.00  0.00    -0.328 OA
ATOM     18  C   UNL d   1      53.497  35.643  55.141  0.00  0.00     0.181 C 
ENDBRANCH  13  17
ENDBRANCH   8  11
ENDBRANCH   7   8
ENDBRANCH   2   7
BRANCH   1  19
ATOM     19  C   UNL d   1      49.561  34.675  52.296  0.00  0.00     0.279 C 
ATOM     20  N   UNL d   1      49.257  35.118  52.917  0.00  0.00    -0.204 NA
ATOM     21  O   UNL d   1      49.172  34.664  51.562  0.00  0.00    -0.265 OA
BRANCH  20  22
ATOM     22  C   UNL d   1      48.559  35.555  52.809  0.00  0.00     0.127 C 
BRANCH  22  23
ATOM     23  C   UNL d   1      48.219  35.958  53.456  0.00  0.00     0.119 A 
ATOM     24  O   UNL d   1      48.620  36.425  53.999  0.00  0.00    -0.304 OA
ATOM     25  C   UNL d   1      48.066  36.709  54.535  0.00  0.00     0.123 A 
ATOM     26  C   UNL d   1      47.336  36.419  54.322  0.00  0.00     0.029 A 
ATOM     27  C   UNL d   1      47.430  35.953  53.651  0.00  0.00     0.028 A 
ENDBRANCH  22  23
ENDBRANCH  20  22
ENDBRANCH   1  19
TORSDOF 7
ENDMDL
MODEL 4
REMARK VINA RESULT:      -7.1      1.610      2.175
REMARK  7 active torsions:
REMARK  status: ('A' for Active; 'I' for Inactive)
REMARK    1  A    between atoms: N_2  and  S_1 
REMARK    2  A    between atoms: C_3  and  S_1 
REMARK    3  A    between atoms: C_16  and  N_2 
REMARK    4  A    between atoms: C_4  and  C_10 
REMARK       I    between atoms: N_7  and  C_4 
REMARK    5  A    between atoms: C_17  and  N_7 
REMARK    6  A    between atoms: C_9  and  C_17 
REMARK    7  A    between atoms: O_23  and  C_20 
ROOT
ATOM      1  C   UNL d   1      48.944  35.282  52.633  0.00  0.00     0.058 A 
ATOM      2  C   UNL d   1      50.232  34.253  52.609  0.00  0.00     0.094 A 
ATOM      3  C   UNL d   1      49.270  35.010  53.339  0.00  0.00     0.006 A 
ATOM      4  C   UNL d   1      49.264  35.039  51.912  0.00  0.00     0.006 A 
ATOM      5  C   UNL d   1      49.915  34.494  53.330  0.00  0.00     0.020 A 
ATOM      6  C   UNL d   1      49.907  34.525  51.894  0.00  0.00     0.020 A 
ENDROOT
BRANCH   2   7
ATOM      7  N   UNL d   1      50.871  33.741  52.594  0.00  0.00    -0.158 NA
BRANCH   7   8
ATOM      8  S   UNL d   1      51.554  33.924  53.025  0.00  0.00     0.285 S 
ATOM      9  O   UNL d   1      51.272  33.477  53.662  0.00  0.00    -0.198 OA
ATOM     10  O   UNL d   1      51.838  34.369  52.395  0.00  0.00    -0.198 OA
BRANCH   8  11
ATOM     11  C   UNL d   1      52.230  34.103  53.457  0.00  0.00     0.107 A 
ATOM     12  C   UNL d   1      52.660  33.498  53.814  0.00  0.00     0.037 A 
ATOM     13  C   UNL d   1      53.345  33.670  54.253  0.00  0.00     0.095 A 
ATOM     14  C   UNL d   1      53.590  34.452  54.328  0.00  0.00     0.024 A 
ATOM     15  C   UNL d   1      53.161  35.061  53.971  0.00  0.00     0.003 A 
ATOM     16  C   UNL d   1      52.480  34.887  53.535  0.00  0.00     0.013 A 
BRANCH  13  17
ATOM     17  O   UNL d   1      53.781  33.055  54.616  0.00  0.00    -0.328 OA
ATOM     18  C   UNL d   1      54.413  33.244  55.119  0.00  0.00     0.181 C 
ENDBRANCH  13  17
ENDBRANCH   8  11
ENDBRANCH   7   8
ENDBRANCH   2   7
BRANCH   1  19
ATOM     19  C   UNL d   1      48.292  35.804  52.641  0.00  0.00     0.279 C 
ATOM     20  N   UNL d   1      47.601  35.599  52.246  0.00  0.00    -0.204 NA
ATOM     21  O   UNL d   1      48.341  36.527  53.047  0.00  0.00    -0.265 OA
BRANCH  20  22
ATOM     22  C   UNL d   1      46.952  36.118  52.253  0.00  0.00     0.127 C 
BRANCH  22  23
ATOM     23  C   UNL d   1      46.236  35.891  51.890  0.00  0.00     0.119 A 
ATOM     24  O   UNL d   1      46.085  35.884  51.083  0.00  0.00    -0.304 OA
ATOM     25  C   UNL d   1      45.313  35.623  50.980  0.00  0.00     0.123 A 
ATOM     26  C   UNL d   1      44.997  35.472  51.715  0.00  0.00     0.029 A 
ATOM     27  C   UNL d   1      45.570  35.639  52.281  0.00  0.00     0.028 A 
ENDBRANCH  22  23
ENDBRANCH  20  22
ENDBRANCH   1  19
TORSDOF 7
ENDMDL
