MODEL 1
REMARK VINA RESULT:      60.3      0.000      0.000
REMARK  4 active torsions:
REMARK  status: ('A' for Active; 'I' for Inactive)
REMARK    1  A    between atoms: C_8  and  C_1 
REMARK    2  A    between atoms: N_5  and  C_2 
REMARK       I    between atoms: C_6  and  N_5 
REMARK    3  A    between atoms: C_10  and  C_6 
REMARK    4  A    between atoms: N_9  and  C_8 
ROOT
ATOM      1  C   UNL d   1     -56.297 -99.161 -44.267  0.00  0.00     0.042 A 
ATOM      2  C   UNL d   1     -55.613 -99.574 -44.467  0.00  0.00     0.115 A 
ATOM      3  S   UNL d   1     -55.245 -99.792 -43.762  0.00  0.00    -0.068 SA
ATOM      4  C   UNL d   1     -56.344 -99.129 -43.451  0.00  0.00     0.009 A 
ATOM      5  C   UNL d   1     -55.694 -99.519 -43.141  0.00  0.00     0.031 A 
ATOM      6  C   UNL d   1     -56.952 -98.761 -43.017  0.00  0.00     0.001 C 
ATOM      7  C   UNL d   1     -55.509 -99.626 -42.340  0.00  0.00     0.007 C 
ENDROOT
BRANCH   2   8
ATOM      8  N   UNL d   1     -55.341 -99.741 -45.228  0.00  0.00    -0.201 NA
ATOM      9  C   UNL d   1     -54.980-100.469 -45.386  0.00  0.00     0.282 C 
ATOM     10  O   UNL d   1     -54.712-100.630 -46.144  0.00  0.00    -0.265 OA
BRANCH   9  11
ATOM     11  C   UNL d   1     -54.893-101.027 -44.782  0.00  0.00     0.085 A 
ATOM     12  C   UNL d   1     -54.859-101.830 -44.974  0.00  0.00     0.145 A 
ATOM     13  F   UNL d   1     -54.905-102.144 -45.735  0.00  0.00    -0.204 F 
ATOM     14  C   UNL d   1     -54.772-102.392 -44.376  0.00  0.00     0.030 A 
ATOM     15  C   UNL d   1     -54.721-102.141 -43.588  0.00  0.00     0.002 A 
ATOM     16  C   UNL d   1     -54.755-101.340 -43.399  0.00  0.00     0.000 A 
ATOM     17  C   UNL d   1     -54.842-100.783 -44.004  0.00  0.00     0.007 A 
ENDBRANCH   9  11
ENDBRANCH   2   8
BRANCH   1  18
ATOM     18  C   UNL d   1     -56.887 -98.808 -44.734  0.00  0.00     0.082 C 
BRANCH  18  19
ATOM     19  N   UNL d   1     -57.664 -98.805 -44.469  0.00  0.00    -0.304 N 
ATOM     20  C   UNL d   1     -58.288 -98.826 -45.024  0.00  0.00     0.064 A 
ATOM     21  C   UNL d   1     -58.121 -98.850 -45.829  0.00  0.00     0.019 C 
ATOM     22  C   UNL d   1     -59.074 -98.824 -44.764  0.00  0.00     0.018 A 
ATOM     23  C   UNL d   1     -59.237 -98.800 -43.960  0.00  0.00     0.003 A 
ATOM     24  C   UNL d   1     -58.619 -98.779 -43.412  0.00  0.00     0.019 A 
ATOM     25  C   UNL d   1     -57.839 -98.782 -43.668  0.00  0.00     0.080 A 
ENDBRANCH  18  19
ENDBRANCH   1  18
TORSDOF 4
ENDMDL
