MODEL 1
REMARK VINA RESULT:      56.2      0.000      0.000
REMARK  7 active torsions:
REMARK  status: ('A' for Active; 'I' for Inactive)
REMARK    1  A    between atoms: C_14  and  N_3 
REMARK    2  A    between atoms: C_10  and  C_6 
REMARK    3  A    between atoms: C_15  and  C_14 
REMARK    4  A    between atoms: C_20  and  C_15 
REMARK    5  A    between atoms: N_16  and  C_20 
REMARK    6  A    between atoms: C_23  and  N_16 
REMARK    7  A    between atoms: C_24  and  N_16 
ROOT
ATOM      1  C   UNL d   1      58.922  49.703  50.656  0.00  0.00     0.083 A 
ATOM      2  C   UNL d   1      58.948  49.704  49.842  0.00  0.00     0.161 A 
ATOM      3  N   UNL d   1      60.188  49.704  50.281  0.00  0.00    -0.272 N 
ATOM      4  C   UNL d   1      59.729  49.705  49.609  0.00  0.00     0.288 A 
ATOM      5  C   UNL d   1      58.203  49.703  51.045  0.00  0.00     0.201 A 
ATOM      6  C   UNL d   1      59.692  49.703  50.926  0.00  0.00     0.074 A 
ATOM      7  O   UNL d   1      58.247  49.704  49.412  0.00  0.00    -0.302 OA
ATOM      8  C   UNL d   1      57.502  49.703  50.610  0.00  0.00     0.062 A 
ATOM      9  C   UNL d   1      57.528  49.704  49.796  0.00  0.00     0.103 A 
ATOM     10  O   UNL d   1      60.004  49.706  48.831  0.00  0.00    -0.264 OA
ATOM     11  O   UNL d   1      58.176  49.702  51.881  0.00  0.00    -0.286 OA
ATOM     12  C   UNL d   1      56.783  49.702  50.999  0.00  0.00     0.005 A 
ATOM     13  C   UNL d   1      56.836  49.704  49.367  0.00  0.00     0.025 A 
ATOM     14  C   UNL d   1      56.091  49.702  50.564  0.00  0.00     0.000 A 
ATOM     15  C   UNL d   1      56.117  49.703  49.751  0.00  0.00     0.002 A 
ENDROOT
BRANCH   3  16
ATOM     16  C   UNL d   1      61.016  49.704  50.307  0.00  0.00     0.085 C 
BRANCH  16  17
ATOM     17  C   UNL d   1      61.445  49.032  50.054  0.00  0.00     0.038 C 
BRANCH  17  18
ATOM     18  C   UNL d   1      61.648  48.439  50.596  0.00  0.00     0.082 C 
BRANCH  18  19
ATOM     19  N   UNL d   1      61.697  47.648  50.348  0.00  0.00    -0.302 N 
BRANCH  19  20
ATOM     20  C   UNL d   1      61.392  47.043  50.829  0.00  0.00     0.080 C 
ATOM     21  C   UNL d   1      61.277  46.279  50.516  0.00  0.00     0.021 C 
ENDBRANCH  19  20
BRANCH  19  22
ATOM     22  C   UNL d   1      62.052  47.461  49.618  0.00  0.00     0.080 C 
ATOM     23  C   UNL d   1      62.241  46.671  49.432  0.00  0.00     0.021 C 
ENDBRANCH  19  22
ENDBRANCH  18  19
ENDBRANCH  17  18
ENDBRANCH  16  17
ENDBRANCH   3  16
BRANCH   6  24
ATOM     24  C   UNL d   1      59.924  49.702  51.726  0.00  0.00     0.036 A 
ATOM     25  C   UNL d   1      60.732  49.702  51.924  0.00  0.00     0.100 A 
ATOM     26  N   UNL d   1      60.965  49.701  52.719  0.00  0.00    -0.242 NA
ATOM     27  C   UNL d   1      60.389  49.701  53.325  0.00  0.00     0.099 A 
ATOM     28  C   UNL d   1      59.580  49.701  53.122  0.00  0.00     0.021 A 
ATOM     29  C   UNL d   1      59.347  49.702  52.327  0.00  0.00     0.005 A 
ENDBRANCH   6  24
TORSDOF 7
ENDMDL
