MODEL 1
REMARK VINA RESULT:       0.4      0.000      0.000
REMARK  3 active torsions:
REMARK  status: ('A' for Active; 'I' for Inactive)
REMARK    1  A    between atoms: C_8  and  N_1 
REMARK    2  A    between atoms: O_16  and  C_11 
REMARK    3  A    between atoms: C_19  and  O_16 
ROOT
ATOM      1  N   UNL d   1      58.006  -9.384  29.761  0.00  0.00    -0.240 N 
ATOM      2  C   UNL d   1      57.921  -9.441  30.570  0.00  0.00     0.267 A 
ATOM      3  C   UNL d   1      58.700  -9.442  29.316  0.00  0.00     0.267 A 
ATOM      4  C   UNL d   1      59.475  -9.571  29.573  0.00  0.00     0.057 A 
ATOM      5  C   UNL d   1      58.497  -9.570  31.142  0.00  0.00     0.057 A 
ATOM      6  C   UNL d   1      59.740  -9.673  30.342  0.00  0.00     0.005 A 
ATOM      7  C   UNL d   1      59.309  -9.674  31.046  0.00  0.00     0.005 A 
ATOM      8  O   UNL d   1      57.144  -9.358  30.855  0.00  0.00    -0.267 OA
ATOM      9  O   UNL d   1      58.601  -9.359  28.500  0.00  0.00    -0.267 OA
ATOM     10  C   UNL d   1      60.001  -9.591  28.948  0.00  0.00     0.005 A 
ATOM     11  C   UNL d   1      58.171  -9.588  31.888  0.00  0.00     0.005 A 
ATOM     12  C   UNL d   1      59.790  -9.796  31.697  0.00  0.00     0.000 A 
ATOM     13  C   UNL d   1      60.547  -9.797  30.488  0.00  0.00     0.000 A 
ATOM     14  C   UNL d   1      61.080  -9.817  29.856  0.00  0.00     0.000 A 
ATOM     15  C   UNL d   1      59.466  -9.815  32.453  0.00  0.00     0.000 A 
ATOM     16  C   UNL d   1      58.649  -9.711  32.549  0.00  0.00     0.000 A 
ATOM     17  C   UNL d   1      60.809  -9.715  29.094  0.00  0.00     0.000 A 
ENDROOT
BRANCH   1  18
ATOM     18  C   UNL d   1      57.309  -9.252  29.333  0.00  0.00     0.092 A 
ATOM     19  C   UNL d   1      57.223  -8.561  28.888  0.00  0.00     0.116 A 
ATOM     20  C   UNL d   1      56.525  -8.429  28.460  0.00  0.00     0.026 A 
ATOM     21  C   UNL d   1      55.909  -8.992  28.478  0.00  0.00     0.002 A 
ATOM     22  C   UNL d   1      56.001  -9.689  28.931  0.00  0.00     0.002 A 
ATOM     23  C   UNL d   1      56.699  -9.818  29.356  0.00  0.00     0.020 A 
BRANCH  19  24
ATOM     24  O   UNL d   1      57.834  -8.005  28.871  0.00  0.00    -0.304 OA
BRANCH  24  25
ATOM     25  C   UNL d   1      57.687  -7.256  28.574  0.00  0.00     0.123 C 
ATOM     26  C   UNL d   1      58.313  -6.730  28.482  0.00  0.00     0.029 C 
ENDBRANCH  24  25
ENDBRANCH  19  24
ENDBRANCH   1  18
TORSDOF 3
ENDMDL
MODEL 2
REMARK VINA RESULT:       0.8      5.682      8.134
REMARK  3 active torsions:
REMARK  status: ('A' for Active; 'I' for Inactive)
REMARK    1  A    between atoms: C_8  and  N_1 
REMARK    2  A    between atoms: O_16  and  C_11 
REMARK    3  A    between atoms: C_19  and  O_16 
ROOT
ATOM      1  N   UNL d   1      58.731  -2.209  29.368  0.00  0.00    -0.240 N 
ATOM      2  C   UNL d   1      59.275  -1.705  29.027  0.00  0.00     0.267 A 
ATOM      3  C   UNL d   1      58.168  -2.034  29.947  0.00  0.00     0.267 A 
ATOM      4  C   UNL d   1      58.014  -1.315  30.325  0.00  0.00     0.057 A 
ATOM      5  C   UNL d   1      59.399  -0.905  29.172  0.00  0.00     0.057 A 
ATOM      6  C   UNL d   1      58.389  -0.596  30.211  0.00  0.00     0.005 A 
ATOM      7  C   UNL d   1      59.007  -0.406  29.699  0.00  0.00     0.005 A 
ATOM      8  O   UNL d   1      59.771  -2.047  28.455  0.00  0.00    -0.267 OA
ATOM      9  O   UNL d   1      57.695  -2.671  30.179  0.00  0.00    -0.267 OA
ATOM     10  C   UNL d   1      57.405  -1.384  30.867  0.00  0.00     0.005 A 
ATOM     11  C   UNL d   1      60.001  -0.613  28.708  0.00  0.00     0.005 A 
ATOM     12  C   UNL d   1      59.220   0.382  29.757  0.00  0.00     0.000 A 
ATOM     13  C   UNL d   1      58.151   0.069  30.648  0.00  0.00     0.000 A 
ATOM     14  C   UNL d   1      57.536  -0.000  31.196  0.00  0.00     0.000 A 
ATOM     15  C   UNL d   1      59.828   0.682  29.291  0.00  0.00     0.000 A 
ATOM     16  C   UNL d   1      60.222   0.180  28.762  0.00  0.00     0.000 A 
ATOM     17  C   UNL d   1      57.168  -0.720  31.304  0.00  0.00     0.000 A 
ENDROOT
BRANCH   1  18
ATOM     18  C   UNL d   1      58.747  -2.992  29.098  0.00  0.00     0.092 A 
ATOM     19  C   UNL d   1      59.426  -3.450  29.200  0.00  0.00     0.116 A 
ATOM     20  C   UNL d   1      59.442  -4.233  28.930  0.00  0.00     0.026 A 
ATOM     21  C   UNL d   1      58.771  -4.561  28.556  0.00  0.00     0.002 A 
ATOM     22  C   UNL d   1      58.086  -4.093  28.455  0.00  0.00     0.002 A 
ATOM     23  C   UNL d   1      58.074  -3.312  28.726  0.00  0.00     0.020 A 
BRANCH  19  24
ATOM     24  O   UNL d   1      60.089  -3.124  29.571  0.00  0.00    -0.304 OA
BRANCH  24  25
ATOM     25  C   UNL d   1      60.625  -3.618  29.944  0.00  0.00     0.123 C 
ATOM     26  C   UNL d   1      61.121  -3.311  30.524  0.00  0.00     0.029 C 
ENDBRANCH  24  25
ENDBRANCH  19  24
ENDBRANCH   1  18
TORSDOF 3
ENDMDL
MODEL 3
REMARK VINA RESULT:       1.5      6.802      8.848
REMARK  3 active torsions:
REMARK  status: ('A' for Active; 'I' for Inactive)
REMARK    1  A    between atoms: C_8  and  N_1 
REMARK    2  A    between atoms: O_16  and  C_11 
REMARK    3  A    between atoms: C_19  and  O_16 
ROOT
ATOM      1  N   UNL d   1      58.561  -0.651  30.509  0.00  0.00    -0.240 N 
ATOM      2  C   UNL d   1      58.370  -1.391  30.222  0.00  0.00     0.267 A 
ATOM      3  C   UNL d   1      59.207  -0.177  30.305  0.00  0.00     0.267 A 
ATOM      4  C   UNL d   1      59.816  -0.328  29.767  0.00  0.00     0.057 A 
ATOM      5  C   UNL d   1      58.767  -1.847  29.665  0.00  0.00     0.057 A 
ATOM      6  C   UNL d   1      59.923  -0.994  29.302  0.00  0.00     0.005 A 
ATOM      7  C   UNL d   1      59.459  -1.674  29.251  0.00  0.00     0.005 A 
ATOM      8  O   UNL d   1      57.680  -1.730  30.538  0.00  0.00    -0.267 OA
ATOM      9  O   UNL d   1      59.245   0.549  30.697  0.00  0.00    -0.267 OA
ATOM     10  C   UNL d   1      60.347   0.292  29.732  0.00  0.00     0.005 A 
ATOM     11  C   UNL d   1      58.384  -2.555  29.539  0.00  0.00     0.005 A 
ATOM     12  C   UNL d   1      59.764  -2.212  28.714  0.00  0.00     0.000 A 
ATOM     13  C   UNL d   1      60.575  -1.041  28.791  0.00  0.00     0.000 A 
ATOM     14  C   UNL d   1      61.114  -0.415  28.755  0.00  0.00     0.000 A 
ATOM     15  C   UNL d   1      59.381  -2.928  28.583  0.00  0.00     0.000 A 
ATOM     16  C   UNL d   1      58.685  -3.101  28.999  0.00  0.00     0.000 A 
ATOM     17  C   UNL d   1      61.000   0.245  29.221  0.00  0.00     0.000 A 
ENDROOT
BRANCH   1  18
ATOM     18  C   UNL d   1      58.043  -0.339  31.074  0.00  0.00     0.092 A 
ATOM     19  C   UNL d   1      57.403   0.125  30.835  0.00  0.00     0.116 A 
ATOM     20  C   UNL d   1      56.884   0.438  31.401  0.00  0.00     0.026 A 
ATOM     21  C   UNL d   1      57.008   0.285  32.213  0.00  0.00     0.002 A 
ATOM     22  C   UNL d   1      57.657  -0.185  32.449  0.00  0.00     0.002 A 
ATOM     23  C   UNL d   1      58.172  -0.495  31.882  0.00  0.00     0.020 A 
BRANCH  19  24
ATOM     24  O   UNL d   1      57.282   0.275  30.031  0.00  0.00    -0.304 OA
BRANCH  24  25
ATOM     25  C   UNL d   1      56.612   0.682  29.795  0.00  0.00     0.123 C 
ATOM     26  C   UNL d   1      56.377   0.647  29.007  0.00  0.00     0.029 C 
ENDBRANCH  24  25
ENDBRANCH  19  24
ENDBRANCH   1  18
TORSDOF 3
ENDMDL
MODEL 4
REMARK VINA RESULT:       3.1      6.851      8.985
REMARK  3 active torsions:
REMARK  status: ('A' for Active; 'I' for Inactive)
REMARK    1  A    between atoms: C_8  and  N_1 
REMARK    2  A    between atoms: O_16  and  C_11 
REMARK    3  A    between atoms: C_19  and  O_16 
ROOT
ATOM      1  N   UNL d   1      58.157  -0.609  30.406  0.00  0.00    -0.240 N 
ATOM      2  C   UNL d   1      58.712  -0.100  30.094  0.00  0.00     0.267 A 
ATOM      3  C   UNL d   1      58.051  -1.412  30.241  0.00  0.00     0.267 A 
ATOM      4  C   UNL d   1      58.475  -1.898  29.724  0.00  0.00     0.057 A 
ATOM      5  C   UNL d   1      59.301  -0.255  29.541  0.00  0.00     0.057 A 
ATOM      6  C   UNL d   1      59.109  -1.694  29.247  0.00  0.00     0.005 A 
ATOM      7  C   UNL d   1      59.482  -0.963  29.160  0.00  0.00     0.005 A 
ATOM      8  O   UNL d   1      58.677   0.682  30.372  0.00  0.00    -0.267 OA
ATOM      9  O   UNL d   1      57.434  -1.776  30.652  0.00  0.00    -0.267 OA
ATOM     10  C   UNL d   1      58.187  -2.664  29.726  0.00  0.00     0.005 A 
ATOM     11  C   UNL d   1      59.736   0.415  29.382  0.00  0.00     0.005 A 
ATOM     12  C   UNL d   1      60.098  -0.998  28.622  0.00  0.00     0.000 A 
ATOM     13  C   UNL d   1      59.463  -2.267  28.761  0.00  0.00     0.000 A 
ATOM     14  C   UNL d   1      59.173  -3.041  28.763  0.00  0.00     0.000 A 
ATOM     15  C   UNL d   1      60.541  -0.324  28.458  0.00  0.00     0.000 A 
ATOM     16  C   UNL d   1      60.359   0.388  28.841  0.00  0.00     0.000 A 
ATOM     17  C   UNL d   1      58.541  -3.237  29.240  0.00  0.00     0.000 A 
ENDROOT
BRANCH   1  18
ATOM     18  C   UNL d   1      57.634  -0.279  30.958  0.00  0.00     0.092 A 
ATOM     19  C   UNL d   1      57.925   0.038  31.663  0.00  0.00     0.116 A 
ATOM     20  C   UNL d   1      57.403   0.369  32.215  0.00  0.00     0.026 A 
ATOM     21  C   UNL d   1      56.582   0.382  32.059  0.00  0.00     0.002 A 
ATOM     22  C   UNL d   1      56.293   0.060  31.344  0.00  0.00     0.002 A 
ATOM     23  C   UNL d   1      56.818  -0.269  30.797  0.00  0.00     0.020 A 
BRANCH  19  24
ATOM     24  O   UNL d   1      58.738   0.024  31.815  0.00  0.00    -0.304 OA
BRANCH  24  25
ATOM     25  C   UNL d   1      59.035   0.447  32.450  0.00  0.00     0.123 C 
ATOM     26  C   UNL d   1      59.848   0.471  32.573  0.00  0.00     0.029 C 
ENDBRANCH  24  25
ENDBRANCH  19  24
ENDBRANCH   1  18
TORSDOF 3
ENDMDL
