MODEL 1
REMARK VINA RESULT:      61.2      0.000      0.000
REMARK  8 active torsions:
REMARK  status: ('A' for Active; 'I' for Inactive)
REMARK    1  A    between atoms: C_2  and  N_1 
REMARK    2  A    between atoms: O_17  and  C_3 
REMARK    3  A    between atoms: O_18  and  C_4 
REMARK    4  A    between atoms: O_19  and  C_5 
REMARK    5  A    between atoms: O_21  and  C_6 
REMARK    6  A    between atoms: C_9  and  C_11 
REMARK    7  A    between atoms: C_12  and  C_9 
REMARK    8  A    between atoms: C_11  and  C_15 
ROOT
ATOM      1  C   UNL d   1      59.731  49.687  51.341  0.00  0.00     0.000 C 
ENDROOT
BRANCH   1   2
ATOM      2  C   UNL d   1      59.048  49.474  51.751  0.00  0.00     0.000 C 
BRANCH   2   3
ATOM      3  C   UNL d   1      58.307  49.526  51.380  0.00  0.00     0.002 A 
ATOM      4  C   UNL d   1      58.254  49.451  50.572  0.00  0.00     0.026 A 
ATOM      5  C   UNL d   1      57.521  49.502  50.200  0.00  0.00     0.149 A 
ATOM      6  C   UNL d   1      56.838  49.629  50.647  0.00  0.00     0.116 A 
ATOM      7  C   UNL d   1      56.896  49.705  51.467  0.00  0.00     0.026 A 
ATOM      8  C   UNL d   1      57.628  49.654  51.840  0.00  0.00     0.002 A 
BRANCH   5   9
ATOM      9  N   UNL d   1      57.468  49.426  49.381  0.00  0.00    -0.112 N 
ATOM     10  O   UNL d   1      58.108  49.123  48.952  0.00  0.00    -0.532 OA
ATOM     11  O   UNL d   1      56.779  49.651  48.981  0.00  0.00    -0.532 OA
ENDBRANCH   5   9
BRANCH   6  12
ATOM     12  O   UNL d   1      56.098  49.682  50.280  0.00  0.00    -0.326 OA
ATOM     13  C   UNL d   1      56.037  49.587  49.460  0.00  0.00     0.181 C 
ENDBRANCH   6  12
ENDBRANCH   2   3
ENDBRANCH   1   2
BRANCH   1  14
ATOM     14  C   UNL d   1      60.317  49.121  51.200  0.00  0.00     0.004 A 
ATOM     15  C   UNL d   1      60.302  48.402  51.604  0.00  0.00     0.026 A 
ATOM     16  C   UNL d   1      60.892  47.835  51.461  0.00  0.00     0.118 A 
ATOM     17  C   UNL d   1      61.489  47.989  50.917  0.00  0.00     0.138 A 
ATOM     18  C   UNL d   1      61.505  48.708  50.512  0.00  0.00     0.118 A 
ATOM     19  C   UNL d   1      60.922  49.273  50.651  0.00  0.00     0.026 A 
BRANCH  16  20
ATOM     20  O   UNL d   1      60.876  47.117  51.865  0.00  0.00    -0.326 OA
ATOM     21  C   UNL d   1      60.848  47.107  52.689  0.00  0.00     0.181 C 
ENDBRANCH  16  20
BRANCH  17  22
ATOM     22  O   UNL d   1      62.072  47.425  50.777  0.00  0.00    -0.324 OA
ATOM     23  C   UNL d   1      62.292  47.244  50.005  0.00  0.00     0.182 C 
ENDBRANCH  17  22
BRANCH  18  24
ATOM     24  O   UNL d   1      62.103  48.862  49.967  0.00  0.00    -0.326 OA
ATOM     25  C   UNL d   1      62.033  49.500  49.452  0.00  0.00     0.181 C 
ENDBRANCH  18  24
ENDBRANCH   1  14
TORSDOF 8
ENDMDL
