MODEL 1
REMARK VINA RESULT:      15.4      0.000      0.000
REMARK  1 active torsions:
REMARK  status: ('A' for Active; 'I' for Inactive)
REMARK    1  A    between atoms: N_3  and  C_2 
ROOT
ATOM      1  N   UNL d   1     -51.376  25.261  33.342  0.00  0.00    -0.228 NA
ATOM      2  C   UNL d   1     -52.202  25.307  33.339  0.00  0.00     0.148 A 
ATOM      3  C   UNL d   1     -50.924  25.958  33.337  0.00  0.00     0.083 A 
ATOM      4  C   UNL d   1     -52.572  26.044  33.331  0.00  0.00     0.037 A 
ATOM      5  C   UNL d   1     -51.303  26.690  33.329  0.00  0.00     0.018 A 
ATOM      6  C   UNL d   1     -52.129  26.737  33.326  0.00  0.00     0.005 A 
ATOM      7  C   UNL d   1     -50.100  25.914  33.340  0.00  0.00     0.019 A 
ATOM      8  C   UNL d   1     -50.859  27.384  33.324  0.00  0.00     0.002 A 
ATOM      9  C   UNL d   1     -49.656  26.608  33.336  0.00  0.00     0.002 A 
ATOM     10  C   UNL d   1     -50.036  27.344  33.328  0.00  0.00     0.000 A 
ENDROOT
BRANCH   2  11
ATOM     11  N   UNL d   1     -52.649  24.612  33.344  0.00  0.00    -0.286 N 
ATOM     12  C   UNL d   1     -52.270  23.879  33.343  0.00  0.00     0.102 A 
ATOM     13  C   UNL d   1     -52.716  23.188  33.348  0.00  0.00     0.118 A 
ATOM     14  N   UNL d   1     -53.538  23.229  33.353  0.00  0.00    -0.239 NA
ATOM     15  C   UNL d   1     -53.917  23.962  33.354  0.00  0.00     0.118 A 
ATOM     16  C   UNL d   1     -53.470  24.656  33.349  0.00  0.00     0.102 A 
ENDBRANCH   2  11
TORSDOF 1
ENDMDL
