MODEL 1
REMARK VINA RESULT:      -6.3      0.000      0.000
REMARK  3 active torsions:
REMARK  status: ('A' for Active; 'I' for Inactive)
REMARK    1  A    between atoms: N_7  and  C_1 
REMARK    2  A    between atoms: N_10  and  N_7 
REMARK    3  A    between atoms: C_17  and  N_10 
ROOT
ATOM      1  N   UNL d   1     -41.952-122.320 -52.139  0.00  0.00    -0.148 NA
ENDROOT
BRANCH   1   2
ATOM      2  N   UNL d   1     -41.538-122.630 -52.797  0.00  0.00    -0.138 NA
BRANCH   2   3
ATOM      3  C   UNL d   1     -41.769-122.421 -53.537  0.00  0.00     0.218 A 
ATOM      4  C   UNL d   1     -41.758-121.667 -53.779  0.00  0.00     0.307 A 
ATOM      5  N   UNL d   1     -41.997-121.475 -54.534  0.00  0.00    -0.150 NA
ATOM      6  O   UNL d   1     -41.500-121.071 -53.250  0.00  0.00    -0.263 OA
ATOM      7  C   UNL d   1     -42.240-122.001 -55.045  0.00  0.00     0.374 A 
ATOM      8  N   UNL d   1     -42.259-122.797 -54.810  0.00  0.00    -0.150 NA
ATOM      9  O   UNL d   1     -42.478-121.758 -55.818  0.00  0.00    -0.242 OA
ATOM     10  C   UNL d   1     -42.028-123.017 -54.066  0.00  0.00     0.307 A 
ATOM     11  O   UNL d   1     -42.050-123.817 -53.841  0.00  0.00    -0.263 OA
ENDBRANCH   2   3
ENDBRANCH   1   2
BRANCH   1  12
ATOM     12  C   UNL d   1     -41.822-122.658 -51.389  0.00  0.00     0.105 A 
ATOM     13  C   UNL d   1     -42.334-122.414 -50.804  0.00  0.00     0.048 A 
ATOM     14  C   UNL d   1     -42.244-122.721 -50.044  0.00  0.00     0.124 A 
ATOM     15  O   UNL d   1     -42.757-122.478 -49.457  0.00  0.00    -0.301 OA
ATOM     16  C   UNL d   1     -41.635-123.275 -49.878  0.00  0.00     0.123 A 
ATOM     17  C   UNL d   1     -42.667-122.785 -48.697  0.00  0.00     0.149 A 
ATOM     18  C   UNL d   1     -42.058-123.339 -48.532  0.00  0.00     0.149 A 
ATOM     19  O   UNL d   1     -41.546-123.578 -49.129  0.00  0.00    -0.301 OA
ATOM     20  C   UNL d   1     -41.123-123.514 -50.476  0.00  0.00     0.028 A 
ATOM     21  C   UNL d   1     -41.212-123.211 -51.224  0.00  0.00     0.023 A 
ENDBRANCH   1  12
TORSDOF 3
ENDMDL
MODEL 2
REMARK VINA RESULT:      -6.2      0.129      1.080
REMARK  3 active torsions:
REMARK  status: ('A' for Active; 'I' for Inactive)
REMARK    1  A    between atoms: N_7  and  C_1 
REMARK    2  A    between atoms: N_10  and  N_7 
REMARK    3  A    between atoms: C_17  and  N_10 
ROOT
ATOM      1  N   UNL d   1     -41.966-122.417 -52.046  0.00  0.00    -0.148 NA
ENDROOT
BRANCH   1   2
ATOM      2  N   UNL d   1     -41.542-122.709 -52.706  0.00  0.00    -0.138 NA
BRANCH   2   3
ATOM      3  C   UNL d   1     -41.764-122.482 -53.444  0.00  0.00     0.218 A 
ATOM      4  C   UNL d   1     -42.015-123.006 -53.983  0.00  0.00     0.307 A 
ATOM      5  N   UNL d   1     -42.236-122.755 -54.726  0.00  0.00    -0.150 NA
ATOM      6  O   UNL d   1     -42.049-123.818 -53.779  0.00  0.00    -0.263 OA
ATOM      7  C   UNL d   1     -42.215-122.014 -54.943  0.00  0.00     0.374 A 
ATOM      8  N   UNL d   1     -41.956-121.450 -54.392  0.00  0.00    -0.150 NA
ATOM      9  O   UNL d   1     -42.454-121.798 -55.724  0.00  0.00    -0.242 OA
ATOM     10  C   UNL d   1     -41.730-121.670 -53.647  0.00  0.00     0.307 A 
ATOM     11  O   UNL d   1     -41.471-121.097 -53.102  0.00  0.00    -0.263 OA
ENDBRANCH   2   3
ENDBRANCH   1   2
BRANCH   1  12
ATOM     12  C   UNL d   1     -41.828-122.759 -51.299  0.00  0.00     0.105 A 
ATOM     13  C   UNL d   1     -42.329-122.514 -50.706  0.00  0.00     0.048 A 
ATOM     14  C   UNL d   1     -42.232-122.825 -49.948  0.00  0.00     0.124 A 
ATOM     15  O   UNL d   1     -42.734-122.579 -49.354  0.00  0.00    -0.301 OA
ATOM     16  C   UNL d   1     -41.625-123.384 -49.794  0.00  0.00     0.123 A 
ATOM     17  C   UNL d   1     -42.637-122.890 -48.596  0.00  0.00     0.149 A 
ATOM     18  C   UNL d   1     -42.030-123.450 -48.442  0.00  0.00     0.149 A 
ATOM     19  O   UNL d   1     -41.528-123.692 -49.047  0.00  0.00    -0.301 OA
ATOM     20  C   UNL d   1     -41.124-123.626 -50.399  0.00  0.00     0.028 A 
ATOM     21  C   UNL d   1     -41.221-123.319 -51.145  0.00  0.00     0.023 A 
ENDBRANCH   1  12
TORSDOF 3
ENDMDL
MODEL 3
REMARK VINA RESULT:      -6.1      1.469      4.574
REMARK  3 active torsions:
REMARK  status: ('A' for Active; 'I' for Inactive)
REMARK    1  A    between atoms: N_7  and  C_1 
REMARK    2  A    between atoms: N_10  and  N_7 
REMARK    3  A    between atoms: C_17  and  N_10 
ROOT
ATOM      1  N   UNL d   1     -41.601-122.805 -51.218  0.00  0.00    -0.148 NA
ENDROOT
BRANCH   1   2
ATOM      2  N   UNL d   1     -42.191-123.227 -50.799  0.00  0.00    -0.138 NA
BRANCH   2   3
ATOM      3  C   UNL d   1     -42.314-123.058 -50.024  0.00  0.00     0.218 A 
ATOM      4  C   UNL d   1     -42.930-122.619 -49.787  0.00  0.00     0.307 A 
ATOM      5  N   UNL d   1     -43.038-122.458 -48.995  0.00  0.00    -0.150 NA
ATOM      6  O   UNL d   1     -43.466-122.323 -50.358  0.00  0.00    -0.263 OA
ATOM      7  C   UNL d   1     -42.561-122.717 -48.445  0.00  0.00     0.374 A 
ATOM      8  N   UNL d   1     -41.910-123.179 -48.674  0.00  0.00    -0.150 NA
ATOM      9  O   UNL d   1     -42.710-122.527 -47.636  0.00  0.00    -0.242 OA
ATOM     10  C   UNL d   1     -41.778-123.354 -49.453  0.00  0.00     0.307 A 
ATOM     11  O   UNL d   1     -41.123-123.817 -49.672  0.00  0.00    -0.263 OA
ENDBRANCH   2   3
ENDBRANCH   1   2
BRANCH   1  12
ATOM     12  C   UNL d   1     -41.507-122.952 -52.033  0.00  0.00     0.105 A 
ATOM     13  C   UNL d   1     -41.735-122.343 -52.524  0.00  0.00     0.048 A 
ATOM     14  C   UNL d   1     -41.661-122.442 -53.340  0.00  0.00     0.124 A 
ATOM     15  O   UNL d   1     -41.888-121.833 -53.833  0.00  0.00    -0.301 OA
ATOM     16  C   UNL d   1     -41.356-123.158 -53.655  0.00  0.00     0.123 A 
ATOM     17  C   UNL d   1     -41.814-121.931 -54.649  0.00  0.00     0.149 A 
ATOM     18  C   UNL d   1     -41.509-122.648 -54.964  0.00  0.00     0.149 A 
ATOM     19  O   UNL d   1     -41.282-123.256 -54.459  0.00  0.00    -0.301 OA
ATOM     20  C   UNL d   1     -41.129-123.767 -53.151  0.00  0.00     0.028 A 
ATOM     21  C   UNL d   1     -41.203-123.668 -52.348  0.00  0.00     0.023 A 
ENDBRANCH   1  12
TORSDOF 3
ENDMDL
