MODEL 1
REMARK VINA RESULT:      60.2      0.000      0.000
REMARK  5 active torsions:
REMARK  status: ('A' for Active; 'I' for Inactive)
REMARK    1  A    between atoms: N_8  and  C_2 
REMARK    2  A    between atoms: C_6  and  C_5 
REMARK    3  A    between atoms: C_7  and  C_6 
REMARK       I    between atoms: N_9  and  C_7 
REMARK    4  A    between atoms: C_18  and  N_9 
REMARK    5  A    between atoms: C_11  and  C_12 
ROOT
ATOM      1  C   UNL d   1      59.620  49.488  50.316  0.00  0.00     0.280 C 
ATOM      2  N   UNL d   1      59.492  49.226  51.095  0.00  0.00    -0.208 NA
ATOM      3  O   UNL d   1      60.381  49.655  50.057  0.00  0.00    -0.265 OA
ENDROOT
BRANCH   1   4
ATOM      4  C   UNL d   1      58.980  49.578  49.813  0.00  0.00     0.074 C 
BRANCH   4   5
ATOM      5  C   UNL d   1      58.213  49.593  50.116  0.00  0.00     0.093 A 
ATOM      6  C   UNL d   1      57.523  49.542  49.668  0.00  0.00     0.272 A 
ATOM      7  N   UNL d   1      56.880  49.578  50.182  0.00  0.00    -0.251 N 
ATOM      8  O   UNL d   1      57.469  49.467  48.847  0.00  0.00    -0.266 OA
ATOM      9  C   UNL d   1      57.175  49.652  50.957  0.00  0.00     0.182 A 
ATOM     10  C   UNL d   1      56.082  49.547  49.979  0.00  0.00     0.104 C 
ATOM     11  S   UNL d   1      57.997  49.660  50.902  0.00  0.00    -0.045 SA
BRANCH   9  12
ATOM     12  N   UNL d   1      56.723  49.707  51.645  0.00  0.00    -0.219 NA
ATOM     13  C   UNL d   1      56.383  49.034  51.976  0.00  0.00     0.122 C 
ENDBRANCH   9  12
ENDBRANCH   4   5
ENDBRANCH   1   4
BRANCH   2  14
ATOM     14  C   UNL d   1      60.134  49.134  51.602  0.00  0.00     0.085 A 
ATOM     15  C   UNL d   1      60.741  49.707  51.624  0.00  0.00     0.019 A 
ATOM     16  C   UNL d   1      61.382  49.611  52.135  0.00  0.00     0.005 A 
ATOM     17  C   UNL d   1      61.426  48.945  52.628  0.00  0.00     0.039 A 
ATOM     18  C   UNL d   1      60.826  48.379  52.607  0.00  0.00     0.005 A 
ATOM     19  C   UNL d   1      60.179  48.474  52.092  0.00  0.00     0.019 A 
BRANCH  17  20
ATOM     20  C   UNL d   1      62.065  48.851  53.136  0.00  0.00     0.196 C 
ATOM     21  O   UNL d   1      62.491  48.145  53.139  0.00  0.00    -0.287 OA
ATOM     22  C   UNL d   1      62.279  49.466  53.643  0.00  0.00     0.045 C 
ENDBRANCH  17  20
ENDBRANCH   2  14
TORSDOF 5
ENDMDL
MODEL 2
REMARK VINA RESULT:      62.5      2.259      4.706
REMARK  5 active torsions:
REMARK  status: ('A' for Active; 'I' for Inactive)
REMARK    1  A    between atoms: N_8  and  C_2 
REMARK    2  A    between atoms: C_6  and  C_5 
REMARK    3  A    between atoms: C_7  and  C_6 
REMARK       I    between atoms: N_9  and  C_7 
REMARK    4  A    between atoms: C_18  and  N_9 
REMARK    5  A    between atoms: C_11  and  C_12 
ROOT
ATOM      1  C   UNL d   1      60.030  48.583  51.124  0.00  0.00     0.280 C 
ATOM      2  N   UNL d   1      59.711  48.903  50.426  0.00  0.00    -0.208 NA
ATOM      3  O   UNL d   1      59.543  48.430  51.767  0.00  0.00    -0.265 OA
ENDROOT
BRANCH   1   4
ATOM      4  C   UNL d   1      60.833  48.422  51.161  0.00  0.00     0.074 C 
BRANCH   4   5
ATOM      5  C   UNL d   1      61.142  47.764  50.772  0.00  0.00     0.093 A 
ATOM      6  C   UNL d   1      61.655  47.791  50.127  0.00  0.00     0.272 A 
ATOM      7  N   UNL d   1      61.830  47.017  49.906  0.00  0.00    -0.251 N 
ATOM      8  O   UNL d   1      61.950  48.467  49.756  0.00  0.00    -0.266 OA
ATOM      9  C   UNL d   1      61.422  46.505  50.419  0.00  0.00     0.182 A 
ATOM     10  C   UNL d   1      62.321  46.777  49.289  0.00  0.00     0.104 C 
ATOM     11  S   UNL d   1      61.002  46.978  50.948  0.00  0.00    -0.045 SA
BRANCH   9  12
ATOM     12  N   UNL d   1      61.438  45.680  50.398  0.00  0.00    -0.219 NA
ATOM     13  C   UNL d   1      61.126  45.240  51.019  0.00  0.00     0.122 C 
ENDBRANCH   9  12
ENDBRANCH   4   5
ENDBRANCH   1   4
BRANCH   2  14
ATOM     14  C   UNL d   1      58.905  49.065  50.386  0.00  0.00     0.085 A 
ATOM     15  C   UNL d   1      58.448  48.785  49.746  0.00  0.00     0.019 A 
ATOM     16  C   UNL d   1      57.640  48.950  49.711  0.00  0.00     0.005 A 
ATOM     17  C   UNL d   1      57.279  49.396  50.312  0.00  0.00     0.039 A 
ATOM     18  C   UNL d   1      57.731  49.673  50.944  0.00  0.00     0.005 A 
ATOM     19  C   UNL d   1      58.546  49.507  50.981  0.00  0.00     0.019 A 
BRANCH  17  20
ATOM     20  C   UNL d   1      56.475  49.560  50.275  0.00  0.00     0.196 C 
ATOM     21  O   UNL d   1      56.042  49.667  50.969  0.00  0.00    -0.287 OA
ATOM     22  C   UNL d   1      56.101  49.616  49.541  0.00  0.00     0.045 C 
ENDBRANCH  17  20
ENDBRANCH   2  14
TORSDOF 5
ENDMDL
