MODEL 1
REMARK VINA RESULT:      -5.1      0.000      0.000
REMARK  3 active torsions:
REMARK  status: ('A' for Active; 'I' for Inactive)
REMARK    1  A    between atoms: C_7  and  C_3 
REMARK    2  A    between atoms: C_10  and  C_5 
REMARK    3  A    between atoms: C_9  and  C_7 
ROOT
ATOM      1  C   UNL d   1      57.086  -0.058  31.460  0.00  0.00     0.101 A 
ATOM      2  O   UNL d   1      57.365  -0.616  30.917  0.00  0.00    -0.307 OA
ATOM      3  C   UNL d   1      57.760  -0.222  30.306  0.00  0.00     0.101 A 
ATOM      4  C   UNL d   1      57.315   0.682  31.174  0.00  0.00     0.027 A 
ATOM      5  C   UNL d   1      57.722   0.578  30.477  0.00  0.00     0.027 A 
ENDROOT
BRANCH   3   6
ATOM      6  C   UNL d   1      58.132  -0.559  29.638  0.00  0.00     0.036 C 
BRANCH   6   7
ATOM      7  C   UNL d   1      58.952  -0.509  29.564  0.00  0.00     0.091 A 
ATOM      8  C   UNL d   1      59.385  -1.129  29.201  0.00  0.00     0.286 A 
ATOM      9  N   UNL d   1      60.182  -0.930  29.205  0.00  0.00    -0.190 NA
ATOM     10  O   UNL d   1      59.057  -1.831  28.889  0.00  0.00    -0.265 OA
ATOM     11  C   UNL d   1      60.258  -0.220  29.551  0.00  0.00     0.169 A 
ATOM     12  S   UNL d   1      59.513   0.062  29.782  0.00  0.00    -0.052 SA
ATOM     13  S   UNL d   1      60.978   0.154  29.652  0.00  0.00    -0.050 SA
ENDBRANCH   6   7
ENDBRANCH   3   6
BRANCH   1  14
ATOM     14  C   UNL d   1      56.697  -0.431  32.063  0.00  0.00     0.033 A 
ATOM     15  C   UNL d   1      56.642  -0.056  32.809  0.00  0.00     0.060 A 
ATOM     16 CL   UNL d   1      56.978   0.682  32.931  0.00  0.00    -0.082 Cl
ATOM     17  C   UNL d   1      56.250  -0.421  33.433  0.00  0.00     0.011 A 
ATOM     18  C   UNL d   1      55.909  -1.166  33.314  0.00  0.00     0.001 A 
ATOM     19  C   UNL d   1      55.964  -1.541  32.568  0.00  0.00     0.000 A 
ATOM     20  C   UNL d   1      56.357  -1.161  31.962  0.00  0.00     0.003 A 
ENDBRANCH   1  14
TORSDOF 3
ENDMDL
MODEL 2
REMARK VINA RESULT:      -4.5      1.327      1.810
REMARK  3 active torsions:
REMARK  status: ('A' for Active; 'I' for Inactive)
REMARK    1  A    between atoms: C_7  and  C_3 
REMARK    2  A    between atoms: C_10  and  C_5 
REMARK    3  A    between atoms: C_9  and  C_7 
ROOT
ATOM      1  C   UNL d   1      56.695  -0.189  32.453  0.00  0.00     0.101 A 
ATOM      2  O   UNL d   1      56.901   0.458  31.981  0.00  0.00    -0.307 OA
ATOM      3  C   UNL d   1      57.120   0.185  31.231  0.00  0.00     0.101 A 
ATOM      4  C   UNL d   1      56.790  -0.861  31.982  0.00  0.00     0.027 A 
ATOM      5  C   UNL d   1      57.046  -0.631  31.245  0.00  0.00     0.027 A 
ENDROOT
BRANCH   3   6
ATOM      6  C   UNL d   1      57.369   0.639  30.575  0.00  0.00     0.036 C 
BRANCH   6   7
ATOM      7  C   UNL d   1      58.169   0.647  30.370  0.00  0.00     0.091 A 
ATOM      8  C   UNL d   1      58.402   0.635  29.566  0.00  0.00     0.286 A 
ATOM      9  N   UNL d   1      59.223   0.647  29.529  0.00  0.00    -0.190 NA
ATOM     10  O   UNL d   1      57.883   0.615  28.911  0.00  0.00    -0.265 OA
ATOM     11  C   UNL d   1      59.503   0.665  30.271  0.00  0.00     0.169 A 
ATOM     12  S   UNL d   1      58.872   0.666  30.810  0.00  0.00    -0.052 SA
ATOM     13  S   UNL d   1      60.301   0.681  30.449  0.00  0.00    -0.050 SA
ENDBRANCH   6   7
ENDBRANCH   3   6
BRANCH   1  14
ATOM     14  C   UNL d   1      56.479   0.064  33.190  0.00  0.00     0.033 A 
ATOM     15  C   UNL d   1      55.690  -0.045  33.445  0.00  0.00     0.060 A 
ATOM     16 CL   UNL d   1      55.138  -0.404  32.957  0.00  0.00    -0.082 Cl
ATOM     17  C   UNL d   1      55.454   0.207  34.192  0.00  0.00     0.011 A 
ATOM     18  C   UNL d   1      56.008   0.570  34.688  0.00  0.00     0.001 A 
ATOM     19  C   UNL d   1      56.797   0.679  34.433  0.00  0.00     0.000 A 
ATOM     20  C   UNL d   1      57.011   0.422  33.688  0.00  0.00     0.003 A 
ENDBRANCH   1  14
TORSDOF 3
ENDMDL
MODEL 3
REMARK VINA RESULT:      -4.0      2.252      4.252
REMARK  3 active torsions:
REMARK  status: ('A' for Active; 'I' for Inactive)
REMARK    1  A    between atoms: C_7  and  C_3 
REMARK    2  A    between atoms: C_10  and  C_5 
REMARK    3  A    between atoms: C_9  and  C_7 
ROOT
ATOM      1  C   UNL d   1      58.713  -0.108  29.775  0.00  0.00     0.101 A 
ATOM      2  O   UNL d   1      58.725   0.019  30.592  0.00  0.00    -0.307 OA
ATOM      3  C   UNL d   1      58.041   0.431  30.809  0.00  0.00     0.101 A 
ATOM      4  C   UNL d   1      58.014   0.232  29.495  0.00  0.00     0.027 A 
ATOM      5  C   UNL d   1      57.611   0.556  30.123  0.00  0.00     0.027 A 
ENDROOT
BRANCH   3   6
ATOM      6  C   UNL d   1      57.816   0.680  31.575  0.00  0.00     0.036 C 
BRANCH   6   7
ATOM      7  C   UNL d   1      57.337   0.189  32.035  0.00  0.00     0.091 A 
ATOM      8  C   UNL d   1      57.401   0.193  32.870  0.00  0.00     0.286 A 
ATOM      9  N   UNL d   1      56.863  -0.345  33.178  0.00  0.00    -0.190 NA
ATOM     10  O   UNL d   1      57.928   0.668  33.313  0.00  0.00    -0.265 OA
ATOM     11  C   UNL d   1      56.472  -0.678  32.573  0.00  0.00     0.169 A 
ATOM     12  S   UNL d   1      56.747  -0.366  31.855  0.00  0.00    -0.052 SA
ATOM     13  S   UNL d   1      55.890  -1.243  32.672  0.00  0.00    -0.050 SA
ENDBRANCH   6   7
ENDBRANCH   3   6
BRANCH   1  14
ATOM     14  C   UNL d   1      59.377  -0.511  29.549  0.00  0.00     0.033 A 
ATOM     15  C   UNL d   1      59.298  -1.262  29.189  0.00  0.00     0.060 A 
ATOM     16 CL   UNL d   1      58.557  -1.590  29.065  0.00  0.00    -0.082 Cl
ATOM     17  C   UNL d   1      59.964  -1.684  28.953  0.00  0.00     0.011 A 
ATOM     18  C   UNL d   1      60.714  -1.357  29.077  0.00  0.00     0.001 A 
ATOM     19  C   UNL d   1      60.793  -0.606  29.437  0.00  0.00     0.000 A 
ATOM     20  C   UNL d   1      60.120  -0.203  29.663  0.00  0.00     0.003 A 
ENDBRANCH   1  14
TORSDOF 3
ENDMDL
MODEL 4
REMARK VINA RESULT:      -3.8      3.091      4.804
REMARK  3 active torsions:
REMARK  status: ('A' for Active; 'I' for Inactive)
REMARK    1  A    between atoms: C_7  and  C_3 
REMARK    2  A    between atoms: C_10  and  C_5 
REMARK    3  A    between atoms: C_9  and  C_7 
ROOT
ATOM      1  C   UNL d   1      56.905  -0.591  31.734  0.00  0.00     0.101 A 
ATOM      2  O   UNL d   1      56.450   0.051  31.990  0.00  0.00    -0.307 OA
ATOM      3  C   UNL d   1      55.893  -0.218  32.540  0.00  0.00     0.101 A 
ATOM      4  C   UNL d   1      56.619  -1.255  32.134  0.00  0.00     0.027 A 
ATOM      5  C   UNL d   1      56.008  -1.025  32.619  0.00  0.00     0.027 A 
ENDROOT
BRANCH   3   6
ATOM      6  C   UNL d   1      55.317   0.233  32.945  0.00  0.00     0.036 C 
BRANCH   6   7
ATOM      7  C   UNL d   1      55.412   0.377  33.752  0.00  0.00     0.091 A 
ATOM      8  C   UNL d   1      54.747   0.537  34.236  0.00  0.00     0.286 A 
ATOM      9  N   UNL d   1      55.005   0.658  35.007  0.00  0.00    -0.190 NA
ATOM     10  O   UNL d   1      53.953   0.569  33.975  0.00  0.00    -0.265 OA
ATOM     11  C   UNL d   1      55.795   0.579  35.018  0.00  0.00     0.169 A 
ATOM     12  S   UNL d   1      56.071   0.405  34.255  0.00  0.00    -0.052 SA
ATOM     13  S   UNL d   1      56.244   0.662  35.696  0.00  0.00    -0.050 SA
ENDBRANCH   6   7
ENDBRANCH   3   6
BRANCH   1  14
ATOM     14  C   UNL d   1      57.455  -0.343  31.195  0.00  0.00     0.033 A 
ATOM     15  C   UNL d   1      57.757  -0.887  30.638  0.00  0.00     0.060 A 
ATOM     16 CL   UNL d   1      57.502  -1.666  30.633  0.00  0.00    -0.082 Cl
ATOM     17  C   UNL d   1      58.317  -0.650  30.083  0.00  0.00     0.011 A 
ATOM     18  C   UNL d   1      58.577   0.136  30.084  0.00  0.00     0.001 A 
ATOM     19  C   UNL d   1      58.275   0.680  30.642  0.00  0.00     0.000 A 
ATOM     20  C   UNL d   1      57.720   0.425  31.184  0.00  0.00     0.003 A 
ENDBRANCH   1  14
TORSDOF 3
ENDMDL
MODEL 5
REMARK VINA RESULT:      -2.7      2.387      4.045
REMARK  3 active torsions:
REMARK  status: ('A' for Active; 'I' for Inactive)
REMARK    1  A    between atoms: C_7  and  C_3 
REMARK    2  A    between atoms: C_10  and  C_5 
REMARK    3  A    between atoms: C_9  and  C_7 
ROOT
ATOM      1  C   UNL d   1      59.740  -1.292  28.912  0.00  0.00     0.101 A 
ATOM      2  O   UNL d   1      59.045  -0.860  29.037  0.00  0.00    -0.307 OA
ATOM      3  C   UNL d   1      59.233  -0.056  29.078  0.00  0.00     0.101 A 
ATOM      4  C   UNL d   1      60.354  -0.741  28.876  0.00  0.00     0.027 A 
ATOM      5  C   UNL d   1      60.044   0.005  28.977  0.00  0.00     0.027 A 
ENDROOT
BRANCH   3   6
ATOM      6  C   UNL d   1      58.710   0.585  29.198  0.00  0.00     0.036 C 
BRANCH   6   7
ATOM      7  C   UNL d   1      58.259   0.614  29.889  0.00  0.00     0.091 A 
ATOM      8  C   UNL d   1      57.423   0.661  29.849  0.00  0.00     0.286 A 
ATOM      9  N   UNL d   1      57.124   0.682  30.614  0.00  0.00    -0.190 NA
ATOM     10  O   UNL d   1      56.971   0.682  29.146  0.00  0.00    -0.265 OA
ATOM     11  C   UNL d   1      57.736   0.651  31.119  0.00  0.00     0.169 A 
ATOM     12  S   UNL d   1      58.448   0.609  30.697  0.00  0.00    -0.052 SA
ATOM     13  S   UNL d   1      57.646   0.661  31.932  0.00  0.00    -0.050 SA
ENDBRANCH   6   7
ENDBRANCH   3   6
BRANCH   1  14
ATOM     14  C   UNL d   1      59.570  -2.082  28.870  0.00  0.00     0.033 A 
ATOM     15  C   UNL d   1      60.096  -2.632  29.215  0.00  0.00     0.060 A 
ATOM     16 CL   UNL d   1      60.778  -2.379  29.592  0.00  0.00    -0.082 Cl
ATOM     17  C   UNL d   1      59.938  -3.439  29.181  0.00  0.00     0.011 A 
ATOM     18  C   UNL d   1      59.251  -3.699  28.800  0.00  0.00     0.001 A 
ATOM     19  C   UNL d   1      58.725  -3.149  28.456  0.00  0.00     0.000 A 
ATOM     20  C   UNL d   1      58.900  -2.353  28.500  0.00  0.00     0.003 A 
ENDBRANCH   1  14
TORSDOF 3
ENDMDL
