MODEL 1
REMARK VINA RESULT:      20.8      0.000      0.000
REMARK  2 active torsions:
REMARK  status: ('A' for Active; 'I' for Inactive)
REMARK    1  A    between atoms: C_8  and  N_1 
REMARK    2  A    between atoms: O_15  and  C_14 
ROOT
ATOM      1  N   UNL d   1      45.321 -14.435  44.596  0.00  0.00    -0.243 N 
ATOM      2  C   UNL d   1      44.602 -14.675  44.825  0.00  0.00     0.251 A 
ATOM      3  C   UNL d   1      45.820 -15.058  44.526  0.00  0.00     0.264 A 
ATOM      4  C   UNL d   1      44.633 -15.513  44.912  0.00  0.00     0.129 A 
ATOM      5  C   UNL d   1      45.388 -15.751  44.726  0.00  0.00     0.047 A 
ATOM      6  C   UNL d   1      45.798 -16.495  44.695  0.00  0.00     0.001 A 
ATOM      7  C   UNL d   1      45.409 -16.391  44.793  0.00  0.00    -0.009 A 
ATOM      8  C   UNL d   1      45.570 -17.369  44.859  0.00  0.00    -0.000 A 
ATOM      9  C   UNL d   1      45.180 -17.246  44.954  0.00  0.00    -0.004 A 
ATOM     10  C   UNL d   1      46.498 -16.172  44.462  0.00  0.00    -0.004 A 
ATOM     11  O   UNL d   1      43.937 -14.168  44.954  0.00  0.00    -0.271 OA
ATOM     12  O   UNL d   1      46.647 -14.876  44.273  0.00  0.00    -0.267 OA
ENDROOT
BRANCH   1  13
ATOM     13  C   UNL d   1      45.510 -13.654  44.454  0.00  0.00     0.092 A 
ATOM     14  C   UNL d   1      45.096 -13.222  43.882  0.00  0.00     0.110 A 
ATOM     15  C   UNL d   1      45.289 -12.441  43.744  0.00  0.00     0.026 A 
ATOM     16  C   UNL d   1      45.896 -12.082  44.172  0.00  0.00     0.002 A 
ATOM     17  C   UNL d   1      46.298 -12.510  44.731  0.00  0.00     0.002 A 
ATOM     18  C   UNL d   1      46.107 -13.296  44.874  0.00  0.00     0.020 A 
BRANCH  14  19
ATOM     19  O   UNL d   1      44.498 -13.600  43.469  0.00  0.00    -0.327 OA
ATOM     20  C   UNL d   1      44.048 -13.231  43.001  0.00  0.00     0.181 C 
ENDBRANCH  14  19
ENDBRANCH   1  13
TORSDOF 2
ENDMDL
MODEL 2
REMARK VINA RESULT:      22.7      6.896      8.152
REMARK  2 active torsions:
REMARK  status: ('A' for Active; 'I' for Inactive)
REMARK    1  A    between atoms: C_8  and  N_1 
REMARK    2  A    between atoms: O_15  and  C_14 
ROOT
ATOM      1  N   UNL d   1      44.350 -15.628  36.715  0.00  0.00    -0.243 N 
ATOM      2  C   UNL d   1      44.209 -16.369  36.473  0.00  0.00     0.251 A 
ATOM      3  C   UNL d   1      43.666 -15.217  36.787  0.00  0.00     0.264 A 
ATOM      4  C   UNL d   1      43.375 -16.448  36.380  0.00  0.00     0.129 A 
ATOM      5  C   UNL d   1      43.038 -15.734  36.574  0.00  0.00     0.047 A 
ATOM      6  C   UNL d   1      42.246 -15.426  36.605  0.00  0.00     0.001 A 
ATOM      7  C   UNL d   1      42.401 -15.796  36.503  0.00  0.00    -0.009 A 
ATOM      8  C   UNL d   1      41.411 -15.765  36.431  0.00  0.00    -0.000 A 
ATOM      9  C   UNL d   1      41.585 -16.134  36.331  0.00  0.00    -0.004 A 
ATOM     10  C   UNL d   1      42.471 -14.693  36.851  0.00  0.00    -0.004 A 
ATOM     11  O   UNL d   1      44.800 -16.959  36.339  0.00  0.00    -0.271 OA
ATOM     12  O   UNL d   1      43.735 -14.377  37.053  0.00  0.00    -0.267 OA
ENDROOT
BRANCH   1  13
ATOM     13  C   UNL d   1      45.098 -15.339  36.866  0.00  0.00     0.092 A 
ATOM     14  C   UNL d   1      45.525 -15.611  37.522  0.00  0.00     0.110 A 
ATOM     15  C   UNL d   1      46.272 -15.318  37.668  0.00  0.00     0.026 A 
ATOM     16  C   UNL d   1      46.604 -14.755  37.166  0.00  0.00     0.002 A 
ATOM     17  C   UNL d   1      46.182 -14.493  36.525  0.00  0.00     0.002 A 
ATOM     18  C   UNL d   1      45.428 -14.784  36.373  0.00  0.00     0.020 A 
BRANCH  14  19
ATOM     19  O   UNL d   1      45.175 -16.171  38.007  0.00  0.00    -0.327 OA
ATOM     20  C   UNL d   1      45.453 -16.338  38.680  0.00  0.00     0.181 C 
ENDBRANCH  14  19
ENDBRANCH   1  13
TORSDOF 2
ENDMDL
