MODEL 1
REMARK VINA RESULT:      -3.8      0.000      0.000
REMARK  9 active torsions:
REMARK  status: ('A' for Active; 'I' for Inactive)
REMARK    1  A    between atoms: N_5  and  S_1 
REMARK    2  A    between atoms: C_8  and  S_1 
REMARK    3  A    between atoms: C_2  and  N_10 
REMARK    4  A    between atoms: C_9  and  N_5 
REMARK    5  A    between atoms: C_25  and  N_5 
REMARK    6  A    between atoms: C_13  and  C_9 
REMARK    7  A    between atoms: N_10  and  O_14 
REMARK    8  A    between atoms: C_17  and  C_13 
REMARK    9  A    between atoms: O_14  and  C_17 
ROOT
ATOM      1  C   UNL d   1      56.979  -1.026  31.449  0.00  0.00     0.240 C 
ATOM      2  O   UNL d   1      56.794  -1.800  31.682  0.00  0.00    -0.283 OA
ENDROOT
BRANCH   1   3
ATOM      3  C   UNL d   1      56.842  -0.831  32.244  0.00  0.00     0.136 C 
BRANCH   3   4
ATOM      4  N   UNL d   1      56.810  -0.034  32.464  0.00  0.00    -0.226 N 
BRANCH   4   5
ATOM      5  S   UNL d   1      56.218   0.233  32.981  0.00  0.00     0.271 S 
ATOM      6  O   UNL d   1      56.066   0.682  32.301  0.00  0.00    -0.200 OA
ATOM      7  O   UNL d   1      56.198  -0.102  33.735  0.00  0.00    -0.200 OA
BRANCH   5   8
ATOM      8  C   UNL d   1      55.745   0.328  33.646  0.00  0.00     0.104 A 
ATOM      9  C   UNL d   1      54.943   0.156  33.609  0.00  0.00     0.013 A 
ATOM     10  C   UNL d   1      54.468   0.253  34.280  0.00  0.00     0.001 A 
ATOM     11  C   UNL d   1      54.803   0.524  34.989  0.00  0.00     0.000 A 
ATOM     12  C   UNL d   1      55.614   0.682  34.969  0.00  0.00     0.001 A 
ATOM     13  C   UNL d   1      54.349   0.629  35.672  0.00  0.00     0.000 C 
ATOM     14  C   UNL d   1      56.116   0.599  34.327  0.00  0.00     0.013 A 
ENDBRANCH   5   8
ENDBRANCH   4   5
BRANCH   4  15
ATOM     15  C   UNL d   1      57.282   0.613  32.263  0.00  0.00     0.092 C 
ATOM     16  C   UNL d   1      58.050   0.667  32.560  0.00  0.00     0.021 C 
ENDBRANCH   4  15
ENDBRANCH   3   4
ENDBRANCH   1   3
BRANCH   1  17
ATOM     17  C   UNL d   1      57.177  -0.859  30.667  0.00  0.00     0.193 C 
BRANCH  17  18
ATOM     18  O   UNL d   1      57.839  -1.220  30.328  0.00  0.00    -0.206 OA
BRANCH  18  19
ATOM     19  N   UNL d   1      58.192  -0.893  29.660  0.00  0.00    -0.126 NA
BRANCH  19  20
ATOM     20  C   UNL d   1      58.939  -1.150  29.416  0.00  0.00     0.108 A 
ATOM     21  C   UNL d   1      59.619  -0.681  29.353  0.00  0.00     0.020 A 
ATOM     22  C   UNL d   1      60.236  -1.162  29.090  0.00  0.00     0.002 A 
ATOM     23  C   UNL d   1      59.755   0.119  29.501  0.00  0.00     0.002 A 
ATOM     24  C   UNL d   1      60.988  -0.842  28.976  0.00  0.00     0.000 A 
ATOM     25  C   UNL d   1      59.948  -1.926  28.988  0.00  0.00     0.002 A 
ATOM     26  C   UNL d   1      61.123  -0.043  29.124  0.00  0.00     0.000 A 
ATOM     27  C   UNL d   1      60.507   0.439  29.386  0.00  0.00     0.000 A 
ATOM     28  C   UNL d   1      59.148  -1.916  29.190  0.00  0.00     0.020 A 
ATOM     29  C   UNL d   1      60.300  -2.628  28.741  0.00  0.00     0.000 A 
ATOM     30  C   UNL d   1      58.701  -2.605  29.145  0.00  0.00     0.002 A 
ATOM     31  C   UNL d   1      59.052  -3.308  28.898  0.00  0.00     0.000 A 
ATOM     32  C   UNL d   1      59.856  -3.319  28.695  0.00  0.00     0.000 A 
ENDBRANCH  19  20
ENDBRANCH  18  19
ENDBRANCH  17  18
ENDBRANCH   1  17
TORSDOF 9
ENDMDL
MODEL 2
REMARK VINA RESULT:      -3.2      0.218      1.652
REMARK  9 active torsions:
REMARK  status: ('A' for Active; 'I' for Inactive)
REMARK    1  A    between atoms: N_5  and  S_1 
REMARK    2  A    between atoms: C_8  and  S_1 
REMARK    3  A    between atoms: C_2  and  N_10 
REMARK    4  A    between atoms: C_9  and  N_5 
REMARK    5  A    between atoms: C_25  and  N_5 
REMARK    6  A    between atoms: C_13  and  C_9 
REMARK    7  A    between atoms: N_10  and  O_14 
REMARK    8  A    between atoms: C_17  and  C_13 
REMARK    9  A    between atoms: O_14  and  C_17 
ROOT
ATOM      1  C   UNL d   1      56.984  -1.021  31.438  0.00  0.00     0.240 C 
ATOM      2  O   UNL d   1      56.803  -1.793  31.679  0.00  0.00    -0.283 OA
ENDROOT
BRANCH   1   3
ATOM      3  C   UNL d   1      56.853  -0.820  32.232  0.00  0.00     0.136 C 
BRANCH   3   4
ATOM      4  N   UNL d   1      56.818  -0.021  32.446  0.00  0.00    -0.226 N 
BRANCH   4   5
ATOM      5  S   UNL d   1      56.227   0.248  32.963  0.00  0.00     0.271 S 
ATOM      6  O   UNL d   1      56.062   0.681  32.275  0.00  0.00    -0.200 OA
ATOM      7  O   UNL d   1      56.218  -0.073  33.723  0.00  0.00    -0.200 OA
BRANCH   5   8
ATOM      8  C   UNL d   1      55.759   0.350  33.629  0.00  0.00     0.104 A 
ATOM      9  C   UNL d   1      54.973   0.575  33.550  0.00  0.00     0.013 A 
ATOM     10  C   UNL d   1      54.502   0.677  34.225  0.00  0.00     0.001 A 
ATOM     11  C   UNL d   1      54.826   0.552  34.979  0.00  0.00     0.000 A 
ATOM     12  C   UNL d   1      55.621   0.327  34.998  0.00  0.00     0.001 A 
ATOM     13  C   UNL d   1      54.376   0.648  35.665  0.00  0.00     0.000 C 
ATOM     14  C   UNL d   1      56.117   0.216  34.356  0.00  0.00     0.013 A 
ENDBRANCH   5   8
ENDBRANCH   4   5
BRANCH   4  15
ATOM     15  C   UNL d   1      57.286   0.627  32.237  0.00  0.00     0.092 C 
ATOM     16  C   UNL d   1      58.059   0.682  32.523  0.00  0.00     0.021 C 
ENDBRANCH   4  15
ENDBRANCH   3   4
ENDBRANCH   1   3
BRANCH   1  17
ATOM     17  C   UNL d   1      57.175  -0.859  30.653  0.00  0.00     0.193 C 
BRANCH  17  18
ATOM     18  O   UNL d   1      57.833  -1.226  30.310  0.00  0.00    -0.206 OA
BRANCH  18  19
ATOM     19  N   UNL d   1      58.185  -0.902  29.640  0.00  0.00    -0.126 NA
BRANCH  19  20
ATOM     20  C   UNL d   1      58.926  -1.168  29.388  0.00  0.00     0.108 A 
ATOM     21  C   UNL d   1      59.149  -1.959  29.286  0.00  0.00     0.020 A 
ATOM     22  C   UNL d   1      59.934  -1.970  29.030  0.00  0.00     0.002 A 
ATOM     23  C   UNL d   1      58.741  -2.668  29.393  0.00  0.00     0.002 A 
ATOM     24  C   UNL d   1      60.309  -2.690  28.881  0.00  0.00     0.000 A 
ATOM     25  C   UNL d   1      60.201  -1.195  28.971  0.00  0.00     0.002 A 
ATOM     26  C   UNL d   1      59.901  -3.398  28.988  0.00  0.00     0.000 A 
ATOM     27  C   UNL d   1      59.117  -3.388  29.244  0.00  0.00     0.000 A 
ATOM     28  C   UNL d   1      59.578  -0.702  29.193  0.00  0.00     0.020 A 
ATOM     29  C   UNL d   1      60.923  -0.867  28.748  0.00  0.00     0.000 A 
ATOM     30  C   UNL d   1      59.674   0.115  29.192  0.00  0.00     0.002 A 
ATOM     31  C   UNL d   1      60.396   0.444  28.968  0.00  0.00     0.000 A 
ATOM     32  C   UNL d   1      61.024  -0.050  28.745  0.00  0.00     0.000 A 
ENDBRANCH  19  20
ENDBRANCH  18  19
ENDBRANCH  17  18
ENDBRANCH   1  17
TORSDOF 9
ENDMDL
