MODEL 1
REMARK VINA RESULT:      30.2      0.000      0.000
REMARK  1 active torsions:
REMARK  status: ('A' for Active; 'I' for Inactive)
REMARK    1  A    between atoms: C_2  and  C_1 
ROOT
ATOM      1  C   UNL d   1      59.425  49.693  50.715  0.00  0.00     0.087 A 
ATOM      2  C   UNL d   1      60.072  49.696  50.204  0.00  0.00     0.302 A 
ATOM      3  C   UNL d   1      59.536  49.693  51.537  0.00  0.00     0.009 A 
ATOM      4  O   UNL d   1      60.832  49.700  50.512  0.00  0.00    -0.273 OA
ATOM      5  C   UNL d   1      60.957  49.700  51.323  0.00  0.00     0.106 A 
ATOM      6  C   UNL d   1      60.310  49.696  51.835  0.00  0.00     0.023 A 
ATOM      7  C   UNL d   1      61.717  49.703  51.631  0.00  0.00     0.067 A 
ATOM      8  O   UNL d   1      59.947  49.696  49.392  0.00  0.00    -0.259 OA
ATOM      9  C   UNL d   1      60.420  49.697  52.656  0.00  0.00     0.005 A 
ATOM     10  C   UNL d   1      61.842  49.704  52.443  0.00  0.00     0.198 A 
ATOM     11  C   UNL d   1      61.195  49.700  52.954  0.00  0.00     0.042 A 
ATOM     12  O   UNL d   1      62.602  49.707  52.751  0.00  0.00    -0.286 OA
ENDROOT
BRANCH   1  13
ATOM     13  C   UNL d   1      58.660  49.689  50.429  0.00  0.00     0.116 A 
ATOM     14  N   UNL d   1      57.952  49.670  50.828  0.00  0.00    -0.238 NA
ATOM     15  C   UNL d   1      57.340  49.675  50.288  0.00  0.00     0.088 A 
ATOM     16  C   UNL d   1      56.517  49.661  50.398  0.00  0.00     0.020 A 
ATOM     17  C   UNL d   1      57.668  49.697  49.552  0.00  0.00     0.049 A 
ATOM     18  C   UNL d   1      56.036  49.671  49.718  0.00  0.00     0.002 A 
ATOM     19  C   UNL d   1      56.371  49.694  48.966  0.00  0.00     0.001 A 
ATOM     20  C   UNL d   1      57.195  49.707  48.883  0.00  0.00     0.008 A 
ATOM     21  S   UNL d   1      58.485  49.707  49.610  0.00  0.00    -0.066 SA
ENDBRANCH   1  13
TORSDOF 1
ENDMDL
