MODEL 1
REMARK VINA RESULT:      -8.1      0.000      0.000
REMARK  2 active torsions:
REMARK  status: ('A' for Active; 'I' for Inactive)
REMARK    1  A    between atoms: C_2  and  S_1 
REMARK    2  A    between atoms: N_4  and  S_1 
ROOT
ATOM      1  S   UNL d   1      53.772  32.538  53.866  0.00  0.00     0.275 S 
ATOM      2  O   UNL d   1      54.312  32.623  53.254  0.00  0.00    -0.199 OA
ATOM      3  O   UNL d   1      53.234  32.454  54.480  0.00  0.00    -0.199 OA
ENDROOT
BRANCH   1   4
ATOM      4  C   UNL d   1      53.262  32.118  53.379  0.00  0.00     0.143 A 
ATOM      5  C   UNL d   1      52.649  32.447  52.933  0.00  0.00     0.117 A 
ATOM      6  N   UNL d   1      52.278  31.833  52.527  0.00  0.00    -0.147 NA
ATOM      7  C   UNL d   1      52.442  33.244  52.896  0.00  0.00     0.023 C 
ATOM      8  N   UNL d   1      52.664  31.128  52.725  0.00  0.00    -0.147 NA
ATOM      9  C   UNL d   1      53.267  31.312  53.249  0.00  0.00     0.117 A 
ATOM     10  C   UNL d   1      53.791  30.772  53.587  0.00  0.00     0.023 C 
ENDBRANCH   1   4
BRANCH   1  11
ATOM     11  N   UNL d   1      54.263  32.957  54.383  0.00  0.00    -0.225 N 
ATOM     12  C   UNL d   1      54.938  33.350  54.090  0.00  0.00     0.118 A 
ATOM     13  C   UNL d   1      55.428  33.769  54.609  0.00  0.00     0.142 A 
ATOM     14  O   UNL d   1      55.253  33.800  55.412  0.00  0.00    -0.300 OA
ATOM     15  C   UNL d   1      54.585  33.412  55.704  0.00  0.00     0.142 A 
ATOM     16  C   UNL d   1      54.088  32.990  55.191  0.00  0.00     0.118 A 
ENDBRANCH   1  11
TORSDOF 2
ENDMDL
MODEL 2
REMARK VINA RESULT:      -7.7      1.400      3.089
REMARK  2 active torsions:
REMARK  status: ('A' for Active; 'I' for Inactive)
REMARK    1  A    between atoms: C_2  and  S_1 
REMARK    2  A    between atoms: N_4  and  S_1 
ROOT
ATOM      1  S   UNL d   1      53.303  33.206  53.848  0.00  0.00     0.275 S 
ATOM      2  O   UNL d   1      53.969  33.314  53.381  0.00  0.00    -0.199 OA
ATOM      3  O   UNL d   1      52.636  33.095  54.314  0.00  0.00    -0.199 OA
ENDROOT
BRANCH   1   4
ATOM      4  C   UNL d   1      53.384  33.958  54.167  0.00  0.00     0.143 A 
ATOM      5  C   UNL d   1      53.826  34.146  54.839  0.00  0.00     0.117 A 
ATOM      6  N   UNL d   1      53.757  34.958  54.963  0.00  0.00    -0.147 NA
ATOM      7  C   UNL d   1      54.259  33.621  55.305  0.00  0.00     0.023 C 
ATOM      8  N   UNL d   1      53.273  35.266  54.367  0.00  0.00    -0.147 NA
ATOM      9  C   UNL d   1      53.048  34.645  53.882  0.00  0.00     0.117 A 
ATOM     10  C   UNL d   1      52.564  34.706  53.218  0.00  0.00     0.023 C 
ENDBRANCH   1   4
BRANCH   1  11
ATOM     11  N   UNL d   1      53.192  32.443  53.547  0.00  0.00    -0.225 N 
ATOM     12  C   UNL d   1      52.519  32.272  53.084  0.00  0.00     0.118 A 
ATOM     13  C   UNL d   1      52.409  31.509  52.783  0.00  0.00     0.142 A 
ATOM     14  O   UNL d   1      52.960  30.918  52.939  0.00  0.00    -0.300 OA
ATOM     15  C   UNL d   1      53.626  31.085  53.398  0.00  0.00     0.142 A 
ATOM     16  C   UNL d   1      53.744  31.848  53.703  0.00  0.00     0.118 A 
ENDBRANCH   1  11
TORSDOF 2
ENDMDL
MODEL 3
REMARK VINA RESULT:      -7.4      1.667      3.161
REMARK  2 active torsions:
REMARK  status: ('A' for Active; 'I' for Inactive)
REMARK    1  A    between atoms: C_2  and  S_1 
REMARK    2  A    between atoms: N_4  and  S_1 
ROOT
ATOM      1  S   UNL d   1      52.927  33.746  53.791  0.00  0.00     0.275 S 
ATOM      2  O   UNL d   1      53.300  34.229  53.241  0.00  0.00    -0.199 OA
ATOM      3  O   UNL d   1      52.551  33.264  54.339  0.00  0.00    -0.199 OA
ENDROOT
BRANCH   1   4
ATOM      4  C   UNL d   1      53.619  33.682  54.228  0.00  0.00     0.143 A 
ATOM      5  C   UNL d   1      53.841  34.182  54.846  0.00  0.00     0.117 A 
ATOM      6  N   UNL d   1      54.570  33.921  55.129  0.00  0.00    -0.147 NA
ATOM      7  C   UNL d   1      53.415  34.828  55.132  0.00  0.00     0.023 C 
ATOM      8  N   UNL d   1      54.793  33.261  54.684  0.00  0.00    -0.147 NA
ATOM      9  C   UNL d   1      54.204  33.120  54.132  0.00  0.00     0.117 A 
ATOM     10  C   UNL d   1      54.202  32.513  53.575  0.00  0.00     0.023 C 
ENDBRANCH   1   4
BRANCH   1  11
ATOM     11  N   UNL d   1      52.213  33.791  53.374  0.00  0.00    -0.225 N 
ATOM     12  C   UNL d   1      52.143  34.307  52.723  0.00  0.00     0.118 A 
ATOM     13  C   UNL d   1      51.429  34.351  52.307  0.00  0.00     0.142 A 
ATOM     14  O   UNL d   1      50.788  33.886  52.533  0.00  0.00    -0.300 OA
ATOM     15  C   UNL d   1      50.856  33.374  53.177  0.00  0.00     0.142 A 
ATOM     16  C   UNL d   1      51.569  33.325  53.600  0.00  0.00     0.118 A 
ENDBRANCH   1  11
TORSDOF 2
ENDMDL
