MODEL 1
REMARK VINA RESULT:      -3.6      0.000      0.000
REMARK  6 active torsions:
REMARK  status: ('A' for Active; 'I' for Inactive)
REMARK    1  A    between atoms: N_7  and  C_1 
REMARK    2  A    between atoms: C_6  and  C_4 
REMARK    3  A    between atoms: C_22  and  C_12 
REMARK    4  A    between atoms: C_23  and  N_13 
REMARK    5  A    between atoms: O_17  and  C_22 
REMARK    6  A    between atoms: C_18  and  O_17 
ROOT
ATOM      1  C   UNL d   1      58.406  -1.693  29.898  0.00  0.00     0.198 A 
ATOM      2  C   UNL d   1      58.330  -0.901  29.745  0.00  0.00     0.191 A 
ATOM      3  O   UNL d   1      57.995  -1.841  30.583  0.00  0.00    -0.268 OA
ATOM      4  C   UNL d   1      57.675  -1.141  30.838  0.00  0.00     0.208 A 
ATOM      5  N   UNL d   1      57.879  -0.596  30.337  0.00  0.00    -0.206 NA
ATOM      6  C   UNL d   1      58.647  -0.451  29.101  0.00  0.00     0.124 C 
ATOM      7  N   UNL d   1      58.967  -0.015  28.458  0.00  0.00    -0.190 NA
ENDROOT
BRANCH   1   8
ATOM      8  N   UNL d   1      58.781  -2.341  29.542  0.00  0.00    -0.280 N 
ATOM      9  C   UNL d   1      59.511  -2.565  29.793  0.00  0.00     0.101 A 
ATOM     10  C   UNL d   1      59.885  -3.214  29.437  0.00  0.00     0.100 A 
ATOM     11  N   UNL d   1      59.530  -3.610  28.855  0.00  0.00    -0.300 N 
ATOM     12  C   UNL d   1      58.777  -3.395  28.581  0.00  0.00     0.100 A 
ATOM     13  C   UNL d   1      58.391  -2.752  28.925  0.00  0.00     0.101 A 
BRANCH  11  14
ATOM     14  C   UNL d   1      59.905  -4.258  28.500  0.00  0.00     0.080 C 
ATOM     15  C   UNL d   1      60.734  -4.420  28.613  0.00  0.00     0.021 C 
ENDBRANCH  11  14
ENDBRANCH   1   8
BRANCH   4  16
ATOM     16  C   UNL d   1      57.277  -0.590  31.265  0.00  0.00     0.141 A 
ATOM     17  O   UNL d   1      57.007   0.181  31.505  0.00  0.00    -0.301 OA
ATOM     18  C   UNL d   1      56.504   0.052  32.144  0.00  0.00     0.125 A 
ATOM     19  C   UNL d   1      56.472  -0.744  32.280  0.00  0.00     0.029 A 
ATOM     20  C   UNL d   1      56.943  -1.126  31.743  0.00  0.00     0.030 A 
BRANCH  18  21
ATOM     21  C   UNL d   1      56.123   0.645  32.544  0.00  0.00     0.147 C 
BRANCH  21  22
ATOM     22  O   UNL d   1      55.456   0.504  32.973  0.00  0.00    -0.303 OA
BRANCH  22  23
ATOM     23  C   UNL d   1      55.451   0.561  33.772  0.00  0.00     0.100 A 
ATOM     24  C   UNL d   1      54.735   0.586  34.189  0.00  0.00     0.023 A 
ATOM     25  C   UNL d   1      54.025   0.551  33.763  0.00  0.00     0.002 C 
ATOM     26  C   UNL d   1      54.731   0.642  34.979  0.00  0.00     0.002 A 
ATOM     27  C   UNL d   1      55.441   0.676  35.405  0.00  0.00     0.000 A 
ATOM     28  C   UNL d   1      56.166   0.651  34.988  0.00  0.00     0.002 A 
ATOM     29  C   UNL d   1      56.170   0.595  34.198  0.00  0.00     0.025 A 
ENDBRANCH  22  23
ENDBRANCH  21  22
ENDBRANCH  18  21
ENDBRANCH   4  16
TORSDOF 6
ENDMDL
MODEL 2
REMARK VINA RESULT:      -3.5      2.262      6.471
REMARK  6 active torsions:
REMARK  status: ('A' for Active; 'I' for Inactive)
REMARK    1  A    between atoms: N_7  and  C_1 
REMARK    2  A    between atoms: C_6  and  C_4 
REMARK    3  A    between atoms: C_22  and  C_12 
REMARK    4  A    between atoms: C_23  and  N_13 
REMARK    5  A    between atoms: O_17  and  C_22 
REMARK    6  A    between atoms: C_18  and  O_17 
ROOT
ATOM      1  C   UNL d   1      55.786   0.560  33.501  0.00  0.00     0.198 A 
ATOM      2  C   UNL d   1      56.571   0.574  33.701  0.00  0.00     0.191 A 
ATOM      3  O   UNL d   1      55.752   0.506  32.690  0.00  0.00    -0.268 OA
ATOM      4  C   UNL d   1      56.512   0.489  32.409  0.00  0.00     0.208 A 
ATOM      5  N   UNL d   1      56.984   0.530  33.012  0.00  0.00    -0.206 NA
ATOM      6  C   UNL d   1      56.921   0.626  34.470  0.00  0.00     0.124 C 
ATOM      7  N   UNL d   1      57.258   0.677  35.239  0.00  0.00    -0.190 NA
ENDROOT
BRANCH   1   8
ATOM      8  N   UNL d   1      55.061   0.585  33.902  0.00  0.00    -0.280 N 
ATOM      9  C   UNL d   1      54.377   0.647  33.484  0.00  0.00     0.101 A 
ATOM     10  C   UNL d   1      53.652   0.672  33.885  0.00  0.00     0.100 A 
ATOM     11  N   UNL d   1      53.631   0.635  34.673  0.00  0.00    -0.300 N 
ATOM     12  C   UNL d   1      54.325   0.570  35.123  0.00  0.00     0.100 A 
ATOM     13  C   UNL d   1      55.054   0.544  34.739  0.00  0.00     0.101 A 
BRANCH  11  14
ATOM     14  C   UNL d   1      52.906   0.660  35.073  0.00  0.00     0.080 C 
ATOM     15  C   UNL d   1      52.161   0.572  34.668  0.00  0.00     0.021 C 
ENDBRANCH  11  14
ENDBRANCH   1   8
BRANCH   4  16
ATOM     16  C   UNL d   1      57.148   0.458  31.921  0.00  0.00     0.141 A 
ATOM     17  O   UNL d   1      57.960   0.349  31.686  0.00  0.00    -0.301 OA
ATOM     18  C   UNL d   1      57.977   0.492  30.874  0.00  0.00     0.125 A 
ATOM     19  C   UNL d   1      57.227   0.675  30.637  0.00  0.00     0.029 A 
ATOM     20  C   UNL d   1      56.730   0.653  31.277  0.00  0.00     0.030 A 
BRANCH  18  21
ATOM     21  C   UNL d   1      58.649   0.448  30.425  0.00  0.00     0.147 C 
BRANCH  21  22
ATOM     22  O   UNL d   1      58.814  -0.199  29.975  0.00  0.00    -0.303 OA
BRANCH  22  23
ATOM     23  C   UNL d   1      59.547  -0.330  29.680  0.00  0.00     0.100 A 
ATOM     24  C   UNL d   1      59.718  -1.026  29.263  0.00  0.00     0.023 A 
ATOM     25  C   UNL d   1      59.115  -1.585  29.159  0.00  0.00     0.002 C 
ATOM     26  C   UNL d   1      60.443  -1.155  28.971  0.00  0.00     0.002 A 
ATOM     27  C   UNL d   1      61.047  -0.596  29.076  0.00  0.00     0.000 A 
ATOM     28  C   UNL d   1      60.879   0.108  29.496  0.00  0.00     0.002 A 
ATOM     29  C   UNL d   1      60.154   0.237  29.787  0.00  0.00     0.025 A 
ENDBRANCH  22  23
ENDBRANCH  21  22
ENDBRANCH  18  21
ENDBRANCH   4  16
TORSDOF 6
ENDMDL
