MODEL 1
REMARK VINA RESULT:      76.4      0.000      0.000
REMARK  13 active torsions:
REMARK  status: ('A' for Active; 'I' for Inactive)
REMARK    1  A    between atoms: C_21  and  N_1 
REMARK    2  A    between atoms: C_7  and  N_3 
REMARK    3  A    between atoms: C_8  and  C_7 
REMARK       I    between atoms: N_12  and  C_8 
REMARK    4  A    between atoms: C_11  and  C_22 
REMARK    5  A    between atoms: C_26  and  N_12 
REMARK    6  A    between atoms: C_27  and  N_12 
REMARK    7  A    between atoms: C_13  and  C_25 
REMARK       I    between atoms: N_15  and  C_13 
REMARK    8  A    between atoms: C_22  and  N_15 
REMARK    9  A    between atoms: C_28  and  C_21 
REMARK   10  A    between atoms: C_25  and  C_31 
REMARK   11  A    between atoms: C_29  and  C_26 
REMARK   12  A    between atoms: C_30  and  C_27 
REMARK   13  A    between atoms: C_31  and  C_28 
ROOT
ATOM      1  N   UNL d   1     -54.776-101.752 -41.272  0.00  0.00    -0.226 N 
ATOM      2  C   UNL d   1     -54.798-101.633 -42.088  0.00  0.00     0.342 A 
ATOM      3  N   UNL d   1     -54.812-100.860 -42.392  0.00  0.00    -0.254 N 
ATOM      4  C   UNL d   1     -54.767-101.098 -40.760  0.00  0.00     0.270 A 
ATOM      5  C   UNL d   1     -54.780-100.334 -41.065  0.00  0.00     0.073 A 
ATOM      6  C   UNL d   1     -54.803-100.215 -41.881  0.00  0.00     0.073 A 
ATOM      7  O   UNL d   1     -54.808-102.282 -42.604  0.00  0.00    -0.245 OA
ATOM      8  O   UNL d   1     -54.744-101.217 -39.944  0.00  0.00    -0.266 OA
ATOM      9  C   UNL d   1     -54.771 -99.687 -40.554  0.00  0.00     0.006 A 
ATOM     10  C   UNL d   1     -54.816 -99.449 -42.186  0.00  0.00     0.018 A 
ATOM     11  C   UNL d   1     -54.784 -98.924 -40.859  0.00  0.00     0.000 A 
ATOM     12  C   UNL d   1     -54.807 -98.805 -41.675  0.00  0.00     0.002 A 
ENDROOT
BRANCH   1  13
ATOM     13  C   UNL d   1     -54.762-102.520 -40.968  0.00  0.00     0.087 C 
BRANCH  13  14
ATOM     14  C   UNL d   1     -55.029-102.672 -40.202  0.00  0.00     0.019 C 
BRANCH  14  15
ATOM     15  C   UNL d   1     -55.830-102.617 -40.017  0.00  0.00     0.006 C 
BRANCH  15  16
ATOM     16  C   UNL d   1     -56.071-102.521 -39.226  0.00  0.00     0.063 C 
BRANCH  16  17
ATOM     17  C   UNL d   1     -55.519-102.328 -38.647  0.00  0.00     0.279 C 
ATOM     18  N   UNL d   1     -55.617-101.646 -38.192  0.00  0.00    -0.204 NA
ATOM     19  O   UNL d   1     -54.864-102.818 -38.520  0.00  0.00    -0.265 OA
BRANCH  18  20
ATOM     20  C   UNL d   1     -55.065-101.454 -37.614  0.00  0.00     0.127 C 
BRANCH  20  21
ATOM     21  C   UNL d   1     -55.088-101.831 -36.875  0.00  0.00     0.119 A 
ATOM     22  O   UNL d   1     -54.727-101.554 -36.179  0.00  0.00    -0.304 OA
ATOM     23  C   UNL d   1     -54.893-102.104 -35.576  0.00  0.00     0.123 A 
ATOM     24  C   UNL d   1     -55.353-102.713 -35.901  0.00  0.00     0.029 A 
ATOM     25  C   UNL d   1     -55.473-102.544 -36.704  0.00  0.00     0.028 A 
ENDBRANCH  20  21
ENDBRANCH  18  20
ENDBRANCH  16  17
ENDBRANCH  15  16
ENDBRANCH  14  15
ENDBRANCH  13  14
ENDBRANCH   1  13
BRANCH   3  26
ATOM     26  C   UNL d   1     -54.834-100.741 -43.208  0.00  0.00     0.146 C 
BRANCH  26  27
ATOM     27  C   UNL d   1     -55.035-100.002 -43.511  0.00  0.00     0.283 C 
ATOM     28  N   UNL d   1     -55.564 -99.944 -44.147  0.00  0.00    -0.271 N 
ATOM     29  O   UNL d   1     -54.711 -99.321 -43.183  0.00  0.00    -0.265 OA
BRANCH  28  30
ATOM     30  C   UNL d   1     -55.766 -99.207 -44.451  0.00  0.00     0.083 C 
BRANCH  30  31
ATOM     31  C   UNL d   1     -56.469 -98.842 -44.220  0.00  0.00     0.019 C 
ATOM     32  C   UNL d   1     -57.182 -99.250 -44.272  0.00  0.00     0.002 C 
ENDBRANCH  30  31
ENDBRANCH  28  30
BRANCH  28  33
ATOM     33  C   UNL d   1     -55.890-100.626 -44.477  0.00  0.00     0.083 C 
BRANCH  33  34
ATOM     34  C   UNL d   1     -56.629-100.594 -44.837  0.00  0.00     0.019 C 
ATOM     35  C   UNL d   1     -57.253-100.197 -44.464  0.00  0.00     0.002 C 
ENDBRANCH  33  34
ENDBRANCH  28  33
ENDBRANCH  26  27
ENDBRANCH   3  26
TORSDOF 13
ENDMDL
