MODEL 1
REMARK VINA RESULT:     110.6      0.000      0.000
REMARK  6 active torsions:
REMARK  status: ('A' for Active; 'I' for Inactive)
REMARK    1  A    between atoms: N_5  and  S_1 
REMARK    2  A    between atoms: C_8  and  S_1 
REMARK    3  A    between atoms: C_2  and  C_14 
REMARK    4  A    between atoms: C_7  and  N_5 
REMARK    5  A    between atoms: C_6  and  C_7 
REMARK       I    between atoms: N_11  and  C_6 
REMARK    6  A    between atoms: C_19  and  N_11 
ROOT
ATOM      1  C   UNL d   1      60.825  47.444  51.069  0.00  0.00     0.298 C 
ATOM      2  N   UNL d   1      61.045  47.067  50.383  0.00  0.00    -0.207 NA
ATOM      3  O   UNL d   1      60.895  47.060  51.800  0.00  0.00    -0.264 OA
ENDROOT
BRANCH   2   4
ATOM      4  C   UNL d   1      61.340  46.297  50.413  0.00  0.00     0.085 A 
ATOM      5  C   UNL d   1      60.961  45.738  50.881  0.00  0.00     0.019 A 
ATOM      6  C   UNL d   1      61.247  44.957  50.922  0.00  0.00     0.004 A 
ATOM      7  C   UNL d   1      61.914  44.742  50.491  0.00  0.00     0.024 A 
ATOM      8  C   UNL d   1      62.297  45.302  50.020  0.00  0.00     0.004 A 
ATOM      9  C   UNL d   1      62.017  46.078  49.977  0.00  0.00     0.019 A 
BRANCH   7  10
ATOM     10  C   UNL d   1      62.190  43.960  50.540  0.00  0.00     0.111 A 
ATOM     11  N   UNL d   1      62.171  43.523  51.234  0.00  0.00    -0.239 NA
ATOM     12  C   UNL d   1      62.487  42.775  51.081  0.00  0.00     0.088 A 
ATOM     13  C   UNL d   1      62.606  42.115  51.558  0.00  0.00     0.020 A 
ATOM     14  C   UNL d   1      62.703  42.753  50.285  0.00  0.00     0.049 A 
ATOM     15  C   UNL d   1      62.941  41.433  51.241  0.00  0.00     0.002 A 
ATOM     16  C   UNL d   1      63.157  41.411  50.445  0.00  0.00     0.001 A 
ATOM     17  C   UNL d   1      63.037  42.072  49.966  0.00  0.00     0.008 A 
ATOM     18  S   UNL d   1      62.518  43.488  49.950  0.00  0.00    -0.066 SA
ENDBRANCH   7  10
ENDBRANCH   2   4
BRANCH   1  19
ATOM     19  C   UNL d   1      60.528  48.214  51.047  0.00  0.00     0.151 C 
ATOM     20  C   UNL d   1      60.961  48.842  51.360  0.00  0.00     0.027 C 
BRANCH  19  21
ATOM     21  N   UNL d   1      59.839  48.588  50.768  0.00  0.00    -0.153 NA
BRANCH  21  22
ATOM     22  S   UNL d   1      59.894  49.149  50.170  0.00  0.00     0.285 S 
ATOM     23  O   UNL d   1      60.693  49.018  50.125  0.00  0.00    -0.198 OA
ATOM     24  O   UNL d   1      59.951  49.704  49.577  0.00  0.00    -0.198 OA
BRANCH  22  25
ATOM     25  C   UNL d   1      59.076  49.277  50.222  0.00  0.00     0.106 A 
ATOM     26  C   UNL d   1      58.723  49.428  50.954  0.00  0.00     0.024 A 
ATOM     27  C   UNL d   1      57.895  49.556  50.993  0.00  0.00     0.059 A 
ATOM     28 CL   UNL d   1      57.542  49.707  51.729  0.00  0.00    -0.082 Cl
ATOM     29  C   UNL d   1      57.439  49.531  50.308  0.00  0.00     0.011 A 
ATOM     30  C   UNL d   1      57.794  49.381  49.581  0.00  0.00     0.002 A 
ATOM     31  C   UNL d   1      58.622  49.253  49.541  0.00  0.00     0.013 A 
ENDBRANCH  22  25
ENDBRANCH  21  22
ENDBRANCH  19  21
ENDBRANCH   1  19
TORSDOF 6
ENDMDL
