MODEL 1
REMARK VINA RESULT:      56.8      0.000      0.000
REMARK  5 active torsions:
REMARK  status: ('A' for Active; 'I' for Inactive)
REMARK    1  A    between atoms: C_2  and  C_3 
REMARK    2  A    between atoms: S_14  and  C_6 
REMARK    3  A    between atoms: C_7  and  N_12 
REMARK       I    between atoms: N_12  and  C_13 
REMARK    4  A    between atoms: C_13  and  C_20 
REMARK    5  A    between atoms: C_20  and  S_14 
ROOT
ATOM      1  N   UNL d   1     -48.549  29.368  34.697  0.00  0.00    -0.208 NA
ATOM      2  C   UNL d   1     -48.610  28.562  34.522  0.00  0.00     0.286 C 
ATOM      3  O   UNL d   1     -48.067  28.035  34.861  0.00  0.00    -0.265 OA
ENDROOT
BRANCH   2   4
ATOM      4  C   UNL d   1     -49.195  28.295  34.024  0.00  0.00     0.099 C 
BRANCH   4   5
ATOM      5  S   UNL d   1     -49.323  27.490  33.926  0.00  0.00    -0.061 SA
BRANCH   5   6
ATOM      6  C   UNL d   1     -50.074  27.205  33.737  0.00  0.00     0.133 A 
ATOM      7  C   UNL d   1     -50.191  26.394  33.626  0.00  0.00     0.143 A 
ATOM      8  C   UNL d   1     -50.942  26.109  33.437  0.00  0.00     0.185 A 
ATOM      9  N   UNL d   1     -49.674  25.751  33.666  0.00  0.00    -0.219 NA
ATOM     10  N   UNL d   1     -50.883  25.293  33.362  0.00  0.00    -0.203 NA
ATOM     11  N   UNL d   1     -51.574  26.629  33.359  0.00  0.00    -0.203 NA
ATOM     12  C   UNL d   1     -50.103  25.074  33.503  0.00  0.00     0.201 A 
ATOM     13  C   UNL d   1     -51.461  27.434  33.469  0.00  0.00     0.201 A 
ATOM     14  N   UNL d   1     -50.713  27.730  33.658  0.00  0.00    -0.216 NA
ENDBRANCH   5   6
ENDBRANCH   4   5
ENDBRANCH   2   4
BRANCH   1  15
ATOM     15  C   UNL d   1     -47.955  29.647  35.204  0.00  0.00     0.088 A 
ATOM     16  C   UNL d   1     -47.741  30.440  35.187  0.00  0.00     0.089 A 
ATOM     17  C   UNL d   1     -47.152  30.711  35.691  0.00  0.00     0.005 A 
ATOM     18  C   UNL d   1     -46.776  30.193  36.212  0.00  0.00     0.000 A 
ATOM     19  C   UNL d   1     -46.992  29.396  36.227  0.00  0.00     0.002 A 
ATOM     20  C   UNL d   1     -47.587  29.122  35.719  0.00  0.00     0.019 A 
BRANCH  16  21
ATOM     21  C   UNL d   1     -48.115  30.963  34.667  0.00  0.00     0.420 C 
ATOM     22  F   UNL d   1     -48.451  31.443  34.192  0.00  0.00    -0.166 F 
ATOM     23  F   UNL d   1     -48.925  30.966  34.384  0.00  0.00    -0.166 F 
ATOM     24  F   UNL d   1     -47.787  31.648  34.269  0.00  0.00    -0.166 F 
ENDBRANCH  16  21
ENDBRANCH   1  15
TORSDOF 5
ENDMDL
MODEL 2
REMARK VINA RESULT:      57.0      1.319      1.924
REMARK  5 active torsions:
REMARK  status: ('A' for Active; 'I' for Inactive)
REMARK    1  A    between atoms: C_2  and  C_3 
REMARK    2  A    between atoms: S_14  and  C_6 
REMARK    3  A    between atoms: C_7  and  N_12 
REMARK       I    between atoms: N_12  and  C_13 
REMARK    4  A    between atoms: C_13  and  C_20 
REMARK    5  A    between atoms: C_20  and  S_14 
ROOT
ATOM      1  N   UNL d   1     -48.609  29.458  34.718  0.00  0.00    -0.208 NA
ATOM      2  C   UNL d   1     -49.116  29.175  34.130  0.00  0.00     0.286 C 
ATOM      3  O   UNL d   1     -49.294  29.664  33.484  0.00  0.00    -0.265 OA
ENDROOT
BRANCH   2   4
ATOM      4  C   UNL d   1     -49.433  28.428  34.188  0.00  0.00     0.099 C 
BRANCH   4   5
ATOM      5  S   UNL d   1     -49.915  28.133  33.592  0.00  0.00    -0.061 SA
BRANCH   5   6
ATOM      6  C   UNL d   1     -50.012  27.319  33.497  0.00  0.00     0.133 A 
ATOM      7  C   UNL d   1     -50.773  26.998  33.455  0.00  0.00     0.143 A 
ATOM      8  C   UNL d   1     -50.870  26.183  33.359  0.00  0.00     0.185 A 
ATOM      9  N   UNL d   1     -51.522  27.344  33.491  0.00  0.00    -0.219 NA
ATOM     10  N   UNL d   1     -51.677  26.035  33.337  0.00  0.00    -0.203 NA
ATOM     11  N   UNL d   1     -50.213  25.693  33.306  0.00  0.00    -0.203 NA
ATOM     12  C   UNL d   1     -52.077  26.748  33.418  0.00  0.00     0.201 A 
ATOM     13  C   UNL d   1     -49.458  26.009  33.347  0.00  0.00     0.201 A 
ATOM     14  N   UNL d   1     -49.349  26.822  33.443  0.00  0.00    -0.216 NA
ENDBRANCH   5   6
ENDBRANCH   4   5
ENDBRANCH   2   4
BRANCH   1  15
ATOM     15  C   UNL d   1     -48.282  30.218  34.666  0.00  0.00     0.088 A 
ATOM     16  C   UNL d   1     -47.674  30.439  35.172  0.00  0.00     0.089 A 
ATOM     17  C   UNL d   1     -47.354  31.194  35.115  0.00  0.00     0.005 A 
ATOM     18  C   UNL d   1     -47.639  31.728  34.555  0.00  0.00     0.000 A 
ATOM     19  C   UNL d   1     -48.250  31.504  34.046  0.00  0.00     0.002 A 
ATOM     20  C   UNL d   1     -48.573  30.743  34.103  0.00  0.00     0.019 A 
BRANCH  16  21
ATOM     21  C   UNL d   1     -47.385  29.908  35.735  0.00  0.00     0.420 C 
ATOM     22  F   UNL d   1     -47.126  29.424  36.253  0.00  0.00    -0.166 F 
ATOM     23  F   UNL d   1     -46.722  29.366  35.685  0.00  0.00    -0.166 F 
ATOM     24  F   UNL d   1     -47.677  29.757  36.528  0.00  0.00    -0.166 F 
ENDBRANCH  16  21
ENDBRANCH   1  15
TORSDOF 5
ENDMDL
MODEL 3
REMARK VINA RESULT:      57.9      3.449      5.939
REMARK  5 active torsions:
REMARK  status: ('A' for Active; 'I' for Inactive)
REMARK    1  A    between atoms: C_2  and  C_3 
REMARK    2  A    between atoms: S_14  and  C_6 
REMARK    3  A    between atoms: C_7  and  N_12 
REMARK       I    between atoms: N_12  and  C_13 
REMARK    4  A    between atoms: C_13  and  C_20 
REMARK    5  A    between atoms: C_20  and  S_14 
ROOT
ATOM      1  N   UNL d   1     -51.477  25.065  33.335  0.00  0.00    -0.208 NA
ATOM      2  C   UNL d   1     -51.554  25.837  33.621  0.00  0.00     0.286 C 
ATOM      3  O   UNL d   1     -52.238  26.043  34.043  0.00  0.00    -0.265 OA
ENDROOT
BRANCH   2   4
ATOM      4  C   UNL d   1     -50.966  26.382  33.489  0.00  0.00     0.099 C 
BRANCH   4   5
ATOM      5  S   UNL d   1     -50.515  26.667  34.114  0.00  0.00    -0.061 SA
BRANCH   5   6
ATOM      6  C   UNL d   1     -49.710  26.822  34.013  0.00  0.00     0.133 A 
ATOM      7  C   UNL d   1     -49.340  27.395  34.480  0.00  0.00     0.143 A 
ATOM      8  C   UNL d   1     -48.535  27.550  34.379  0.00  0.00     0.185 A 
ATOM      9  N   UNL d   1     -49.625  27.889  35.078  0.00  0.00    -0.219 NA
ATOM     10  N   UNL d   1     -48.331  28.138  34.915  0.00  0.00    -0.203 NA
ATOM     11  N   UNL d   1     -48.102  27.137  33.815  0.00  0.00    -0.203 NA
ATOM     12  C   UNL d   1     -49.000  28.345  35.344  0.00  0.00     0.201 A 
ATOM     13  C   UNL d   1     -48.467  26.569  33.351  0.00  0.00     0.201 A 
ATOM     14  N   UNL d   1     -49.272  26.405  33.444  0.00  0.00    -0.216 NA
ENDBRANCH   5   6
ENDBRANCH   4   5
ENDBRANCH   2   4
BRANCH   1  15
ATOM     15  C   UNL d   1     -52.073  24.504  33.466  0.00  0.00     0.088 A 
ATOM     16  C   UNL d   1     -51.877  23.752  33.731  0.00  0.00     0.089 A 
ATOM     17  C   UNL d   1     -52.472  23.199  33.859  0.00  0.00     0.005 A 
ATOM     18  C   UNL d   1     -53.262  23.396  33.722  0.00  0.00     0.000 A 
ATOM     19  C   UNL d   1     -53.457  24.153  33.455  0.00  0.00     0.002 A 
ATOM     20  C   UNL d   1     -52.858  24.710  33.326  0.00  0.00     0.019 A 
BRANCH  16  21
ATOM     21  C   UNL d   1     -51.088  23.550  33.869  0.00  0.00     0.420 C 
ATOM     22  F   UNL d   1     -50.368  23.366  34.001  0.00  0.00    -0.166 F 
ATOM     23  F   UNL d   1     -50.470  23.348  33.310  0.00  0.00    -0.166 F 
ATOM     24  F   UNL d   1     -50.674  23.489  34.618  0.00  0.00    -0.166 F 
ENDBRANCH  16  21
ENDBRANCH   1  15
TORSDOF 5
ENDMDL
MODEL 4
REMARK VINA RESULT:      58.3      2.095      4.903
REMARK  5 active torsions:
REMARK  status: ('A' for Active; 'I' for Inactive)
REMARK    1  A    between atoms: C_2  and  C_3 
REMARK    2  A    between atoms: S_14  and  C_6 
REMARK    3  A    between atoms: C_7  and  N_12 
REMARK       I    between atoms: N_12  and  C_13 
REMARK    4  A    between atoms: C_13  and  C_20 
REMARK    5  A    between atoms: C_20  and  S_14 
ROOT
ATOM      1  N   UNL d   1     -49.803  27.129  33.729  0.00  0.00    -0.208 NA
ATOM      2  C   UNL d   1     -49.203  27.316  34.267  0.00  0.00     0.286 C 
ATOM      3  O   UNL d   1     -48.818  26.702  34.670  0.00  0.00    -0.265 OA
ENDROOT
BRANCH   2   4
ATOM      4  C   UNL d   1     -48.997  28.093  34.394  0.00  0.00     0.099 C 
BRANCH   4   5
ATOM      5  S   UNL d   1     -48.587  28.308  35.072  0.00  0.00    -0.061 SA
BRANCH   5   6
ATOM      6  C   UNL d   1     -48.183  29.027  35.106  0.00  0.00     0.133 A 
ATOM      7  C   UNL d   1     -47.914  29.314  35.834  0.00  0.00     0.143 A 
ATOM      8  C   UNL d   1     -47.510  30.033  35.868  0.00  0.00     0.185 A 
ATOM      9  N   UNL d   1     -47.967  29.011  36.601  0.00  0.00    -0.219 NA
ATOM     10  N   UNL d   1     -47.317  30.168  36.655  0.00  0.00    -0.203 NA
ATOM     11  N   UNL d   1     -47.374  30.463  35.181  0.00  0.00    -0.203 NA
ATOM     12  C   UNL d   1     -47.598  29.540  37.104  0.00  0.00     0.201 A 
ATOM     13  C   UNL d   1     -47.639  30.181  34.458  0.00  0.00     0.201 A 
ATOM     14  N   UNL d   1     -48.044  29.463  34.413  0.00  0.00    -0.216 NA
ENDBRANCH   5   6
ENDBRANCH   4   5
ENDBRANCH   2   4
BRANCH   1  15
ATOM     15  C   UNL d   1     -50.018  26.339  33.594  0.00  0.00     0.088 A 
ATOM     16  C   UNL d   1     -50.809  26.121  33.613  0.00  0.00     0.089 A 
ATOM     17  C   UNL d   1     -51.017  25.337  33.478  0.00  0.00     0.005 A 
ATOM     18  C   UNL d   1     -50.436  24.772  33.324  0.00  0.00     0.000 A 
ATOM     19  C   UNL d   1     -49.641  24.993  33.306  0.00  0.00     0.002 A 
ATOM     20  C   UNL d   1     -49.431  25.783  33.442  0.00  0.00     0.019 A 
BRANCH  16  21
ATOM     21  C   UNL d   1     -51.395  26.684  33.766  0.00  0.00     0.420 C 
ATOM     22  F   UNL d   1     -51.928  27.201  33.902  0.00  0.00    -0.166 F 
ATOM     23  F   UNL d   1     -51.947  26.733  34.421  0.00  0.00    -0.166 F 
ATOM     24  F   UNL d   1     -51.606  27.376  33.306  0.00  0.00    -0.166 F 
ENDBRANCH  16  21
ENDBRANCH   1  15
TORSDOF 5
ENDMDL
MODEL 5
REMARK VINA RESULT:      59.3      2.479      5.237
REMARK  5 active torsions:
REMARK  status: ('A' for Active; 'I' for Inactive)
REMARK    1  A    between atoms: C_2  and  C_3 
REMARK    2  A    between atoms: S_14  and  C_6 
REMARK    3  A    between atoms: C_7  and  N_12 
REMARK       I    between atoms: N_12  and  C_13 
REMARK    4  A    between atoms: C_13  and  C_20 
REMARK    5  A    between atoms: C_20  and  S_14 
ROOT
ATOM      1  N   UNL d   1     -50.041  26.599  34.141  0.00  0.00    -0.208 NA
ATOM      2  C   UNL d   1     -49.767  27.340  33.897  0.00  0.00     0.286 C 
ATOM      3  O   UNL d   1     -50.225  27.783  33.366  0.00  0.00    -0.265 OA
ENDROOT
BRANCH   2   4
ATOM      4  C   UNL d   1     -49.059  27.626  34.176  0.00  0.00     0.099 C 
BRANCH   4   5
ATOM      5  S   UNL d   1     -48.937  28.435  34.251  0.00  0.00    -0.061 SA
BRANCH   5   6
ATOM      6  C   UNL d   1     -48.388  28.727  34.794  0.00  0.00     0.133 A 
ATOM      7  C   UNL d   1     -48.252  29.542  34.843  0.00  0.00     0.143 A 
ATOM      8  C   UNL d   1     -47.702  29.834  35.385  0.00  0.00     0.185 A 
ATOM      9  N   UNL d   1     -48.573  30.182  34.430  0.00  0.00    -0.219 NA
ATOM     10  N   UNL d   1     -47.690  30.651  35.303  0.00  0.00    -0.203 NA
ATOM     11  N   UNL d   1     -47.292  29.318  35.876  0.00  0.00    -0.203 NA
ATOM     12  C   UNL d   1     -48.225  30.863  34.717  0.00  0.00     0.201 A 
ATOM     13  C   UNL d   1     -47.426  28.511  35.830  0.00  0.00     0.201 A 
ATOM     14  N   UNL d   1     -47.973  28.207  35.291  0.00  0.00    -0.216 NA
ENDBRANCH   5   6
ENDBRANCH   4   5
ENDBRANCH   2   4
BRANCH   1  15
ATOM     15  C   UNL d   1     -50.762  26.301  33.861  0.00  0.00     0.088 A 
ATOM     16  C   UNL d   1     -50.808  25.528  33.588  0.00  0.00     0.089 A 
ATOM     17  C   UNL d   1     -51.525  25.237  33.311  0.00  0.00     0.005 A 
ATOM     18  C   UNL d   1     -52.196  25.717  33.306  0.00  0.00     0.000 A 
ATOM     19  C   UNL d   1     -52.148  26.494  33.581  0.00  0.00     0.002 A 
ATOM     20  C   UNL d   1     -51.425  26.787  33.860  0.00  0.00     0.019 A 
BRANCH  16  21
ATOM     21  C   UNL d   1     -50.138  25.043  33.591  0.00  0.00     0.420 C 
ATOM     22  F   UNL d   1     -49.530  24.597  33.596  0.00  0.00    -0.166 F 
ATOM     23  F   UNL d   1     -49.345  25.206  33.306  0.00  0.00    -0.166 F 
ATOM     24  F   UNL d   1     -50.059  24.241  33.883  0.00  0.00    -0.166 F 
ENDBRANCH  16  21
ENDBRANCH   1  15
TORSDOF 5
ENDMDL
