MODEL 1
REMARK VINA RESULT:      87.1      0.000      0.000
REMARK  9 active torsions:
REMARK  status: ('A' for Active; 'I' for Inactive)
REMARK    1  A    between atoms: C_10  and  N_1 
REMARK    2  A    between atoms: C_7  and  N_3 
REMARK    3  A    between atoms: C_8  and  C_7 
REMARK       I    between atoms: N_12  and  C_8 
REMARK    4  A    between atoms: C_13  and  C_10 
REMARK    5  A    between atoms: C_21  and  N_12 
REMARK    6  A    between atoms: C_28  and  N_12 
REMARK       I    between atoms: N_19  and  C_13 
REMARK    7  A    between atoms: C_17  and  C_26 
REMARK    8  A    between atoms: C_26  and  N_19 
REMARK    9  A    between atoms: C_27  and  C_21 
ROOT
ATOM      1  N   UNL d   1     -49.760  27.466  34.470  0.00  0.00    -0.220 N 
ATOM      2  C   UNL d   1     -49.139  27.999  34.370  0.00  0.00     0.342 A 
ATOM      3  N   UNL d   1     -48.776  28.362  35.037  0.00  0.00    -0.254 N 
ATOM      4  C   UNL d   1     -49.684  27.634  35.885  0.00  0.00     0.102 A 
ATOM      5  C   UNL d   1     -50.025  27.290  35.225  0.00  0.00     0.276 A 
ATOM      6  C   UNL d   1     -49.051  28.177  35.785  0.00  0.00     0.080 A 
ATOM      7  S   UNL d   1     -49.837  27.560  36.710  0.00  0.00    -0.080 SA
ATOM      8  C   UNL d   1     -48.811  28.440  36.553  0.00  0.00     0.025 A 
ATOM      9  O   UNL d   1     -48.868  28.182  33.627  0.00  0.00    -0.245 OA
ATOM     10  C   UNL d   1     -49.302  28.053  37.120  0.00  0.00     0.037 A 
ATOM     11  O   UNL d   1     -50.640  26.763  35.323  0.00  0.00    -0.266 OA
ENDROOT
BRANCH   3  12
ATOM     12  C   UNL d   1     -48.161  28.891  34.951  0.00  0.00     0.146 C 
BRANCH  12  13
ATOM     13  C   UNL d   1     -48.278  29.696  35.099  0.00  0.00     0.283 C 
ATOM     14  N   UNL d   1     -47.639  30.169  35.319  0.00  0.00    -0.271 N 
ATOM     15  O   UNL d   1     -49.031  30.014  35.026  0.00  0.00    -0.265 OA
BRANCH  14  16
ATOM     16  C   UNL d   1     -47.765  30.973  35.465  0.00  0.00     0.083 C 
BRANCH  16  17
ATOM     17  C   UNL d   1     -47.709  31.513  34.845  0.00  0.00     0.018 A 
ATOM     18  C   UNL d   1     -46.983  31.848  34.656  0.00  0.00     0.002 A 
ATOM     19  C   UNL d   1     -46.924  32.394  34.029  0.00  0.00     0.000 A 
ATOM     20  C   UNL d   1     -47.591  32.596  33.603  0.00  0.00     0.000 A 
ATOM     21  C   UNL d   1     -48.324  32.262  33.789  0.00  0.00     0.000 A 
ATOM     22  C   UNL d   1     -48.384  31.720  34.411  0.00  0.00     0.002 A 
ENDBRANCH  16  17
ENDBRANCH  14  16
BRANCH  14  23
ATOM     23  C   UNL d   1     -46.892  29.847  35.390  0.00  0.00     0.083 C 
ATOM     24  C   UNL d   1     -46.233  30.336  35.459  0.00  0.00     0.021 C 
ENDBRANCH  14  23
ENDBRANCH  12  13
ENDBRANCH   3  12
BRANCH   1  25
ATOM     25  C   UNL d   1     -50.100  27.125  33.825  0.00  0.00     0.150 C 
BRANCH  25  26
ATOM     26  C   UNL d   1     -49.948  26.333  33.650  0.00  0.00     0.297 C 
ATOM     27  N   UNL d   1     -50.568  25.815  33.481  0.00  0.00    -0.203 NA
ATOM     28  O   UNL d   1     -49.173  26.053  33.643  0.00  0.00    -0.264 OA
BRANCH  27  29
ATOM     29  C   UNL d   1     -50.420  25.025  33.306  0.00  0.00     0.127 C 
BRANCH  29  30
ATOM     30  C   UNL d   1     -51.025  24.471  33.334  0.00  0.00     0.119 A 
ATOM     31  O   UNL d   1     -51.836  24.637  33.317  0.00  0.00    -0.304 OA
ATOM     32  C   UNL d   1     -52.238  23.921  33.357  0.00  0.00     0.123 A 
ATOM     33  C   UNL d   1     -51.678  23.309  33.399  0.00  0.00     0.029 A 
ATOM     34  C   UNL d   1     -50.934  23.663  33.385  0.00  0.00     0.028 A 
ENDBRANCH  29  30
ENDBRANCH  27  29
ENDBRANCH  25  26
ENDBRANCH   1  25
TORSDOF 9
ENDMDL
