MODEL 1
REMARK VINA RESULT:      43.0      0.000      0.000
REMARK  1 active torsions:
REMARK  status: ('A' for Active; 'I' for Inactive)
REMARK    1  A    between atoms: C_2  and  C_1 
REMARK       I    between atoms: N_3  and  C_2 
ROOT
ATOM      1  C   UNL d   1      13.706  12.196  -2.829  0.00  0.00     0.248 C 
ATOM      2  N   UNL d   1      13.747  13.005  -3.010  0.00  0.00    -0.278 N 
ATOM      3  C   UNL d   1      13.524  13.217  -3.689  0.00  0.00     0.067 A 
ATOM      4  C   UNL d   1      13.991  13.445  -2.508  0.00  0.00     0.067 A 
ATOM      5  C   UNL d   1      14.018  14.233  -2.719  0.00  0.00     0.018 A 
ATOM      6  C   UNL d   1      13.549  13.934  -3.881  0.00  0.00     0.019 A 
ATOM      7  O   UNL d   1      13.407  11.779  -3.489  0.00  0.00    -0.271 OA
ATOM      8  C   UNL d   1      13.278  12.703  -4.169  0.00  0.00     0.019 C 
ATOM      9  C   UNL d   1      14.237  13.207  -1.758  0.00  0.00     0.018 A 
ATOM     10  C   UNL d   1      14.290  14.794  -2.186  0.00  0.00     0.002 A 
ATOM     11  C   UNL d   1      14.511  13.769  -1.219  0.00  0.00     0.002 A 
ATOM     12  C   UNL d   1      14.536  14.563  -1.436  0.00  0.00     0.000 A 
ENDROOT
BRANCH   1  13
ATOM     13  C   UNL d   1      13.971  12.088  -2.075  0.00  0.00     0.112 A 
ATOM     14  C   UNL d   1      14.018  11.923  -0.662  0.00  0.00     0.025 A 
ATOM     15  C   UNL d   1      14.482  11.964  -1.360  0.00  0.00     0.074 A 
ATOM     16  C   UNL d   1      13.186  11.997  -0.699  0.00  0.00     0.002 C 
ATOM     17  C   UNL d   1      14.571  11.808  -0.053  0.00  0.00     0.002 C 
ATOM     18  C   UNL d   1      15.034  11.848  -0.743  0.00  0.00     0.012 C 
ATOM     19  C   UNL d   1      13.784  12.073  -1.807  0.00  0.00    -0.023 A 
ATOM     20  C   UNL d   1      15.301  11.892  -1.326  0.00  0.00     0.172 A 
ATOM     21  C   UNL d   1      13.404  12.189  -2.547  0.00  0.00    -0.018 A 
ATOM     22  C   UNL d   1      14.922  12.008  -2.065  0.00  0.00     0.024 A 
ATOM     23  O   UNL d   1      15.999  11.782  -0.874  0.00  0.00    -0.291 OA
ENDBRANCH   1  13
TORSDOF 1
ENDMDL
