MODEL 1
REMARK VINA RESULT:      -8.5      0.000      0.000
REMARK  7 active torsions:
REMARK  status: ('A' for Active; 'I' for Inactive)
REMARK    1  A    between atoms: C_6  and  N_1 
REMARK    2  A    between atoms: C_12  and  C_6 
REMARK    3  A    between atoms: C_7  and  C_8 
REMARK    4  A    between atoms: C_22  and  C_7 
REMARK    5  A    between atoms: C_15  and  C_12 
REMARK    6  A    between atoms: O_13  and  C_15 
REMARK    7  A    between atoms: C_14  and  O_13 
ROOT
ATOM      1  C   UNL d   1      52.204  33.390  53.412  0.00  0.00     0.238 C 
ATOM      2  O   UNL d   1      52.300  33.624  54.199  0.00  0.00    -0.283 OA
ENDROOT
BRANCH   1   3
ATOM      3  C   UNL d   1      52.831  33.044  53.001  0.00  0.00     0.126 C 
BRANCH   3   4
ATOM      4  N   UNL d   1      53.268  32.434  53.361  0.00  0.00    -0.286 N 
ATOM      5  C   UNL d   1      53.922  32.542  53.862  0.00  0.00     0.148 A 
ATOM      6  N   UNL d   1      54.189  31.790  54.097  0.00  0.00    -0.227 NA
ATOM      7  C   UNL d   1      54.250  33.261  54.088  0.00  0.00     0.041 C 
ATOM      8  C   UNL d   1      53.705  31.224  53.746  0.00  0.00     0.099 A 
ATOM      9  C   UNL d   1      53.134  31.626  53.289  0.00  0.00     0.083 A 
ATOM     10  C   UNL d   1      53.705  30.409  53.777  0.00  0.00     0.021 A 
ATOM     11  C   UNL d   1      52.568  31.189  52.869  0.00  0.00     0.019 A 
ATOM     12  C   UNL d   1      52.574  30.362  52.906  0.00  0.00     0.002 A 
ATOM     13  C   UNL d   1      53.143  29.975  53.360  0.00  0.00     0.002 A 
ENDBRANCH   3   4
ENDBRANCH   1   3
BRANCH   1  14
ATOM     14  C   UNL d   1      51.468  33.506  53.038  0.00  0.00     0.166 C 
BRANCH  14  15
ATOM     15  O   UNL d   1      51.170  34.297  52.937  0.00  0.00    -0.302 OA
BRANCH  15  16
ATOM     16  C   UNL d   1      50.446  34.442  52.547  0.00  0.00     0.100 A 
ATOM     17  C   UNL d   1      50.361  34.254  51.753  0.00  0.00     0.025 A 
ATOM     18  C   UNL d   1      49.641  34.399  51.370  0.00  0.00     0.005 A 
ATOM     19  C   UNL d   1      49.021  34.727  51.781  0.00  0.00     0.039 A 
ATOM     20  C   UNL d   1      49.112  34.916  52.583  0.00  0.00     0.005 A 
ATOM     21  C   UNL d   1      49.826  34.770  52.959  0.00  0.00     0.025 A 
BRANCH  19  22
ATOM     22  C   UNL d   1      48.305  34.872  51.402  0.00  0.00     0.196 C 
ATOM     23  O   UNL d   1      48.097  34.449  50.731  0.00  0.00    -0.287 OA
BRANCH  22  24
ATOM     24  C   UNL d   1      47.792  35.448  51.699  0.00  0.00     0.042 C 
ATOM     25  C   UNL d   1      47.066  35.571  51.346  0.00  0.00     0.003 C 
ENDBRANCH  22  24
ENDBRANCH  19  22
ENDBRANCH  15  16
ENDBRANCH  14  15
ENDBRANCH   1  14
TORSDOF 7
ENDMDL
MODEL 2
REMARK VINA RESULT:      -8.2      0.933      1.980
REMARK  7 active torsions:
REMARK  status: ('A' for Active; 'I' for Inactive)
REMARK    1  A    between atoms: C_6  and  N_1 
REMARK    2  A    between atoms: C_12  and  C_6 
REMARK    3  A    between atoms: C_7  and  C_8 
REMARK    4  A    between atoms: C_22  and  C_7 
REMARK    5  A    between atoms: C_15  and  C_12 
REMARK    6  A    between atoms: O_13  and  C_15 
REMARK    7  A    between atoms: C_14  and  O_13 
ROOT
ATOM      1  C   UNL d   1      51.730  33.477  52.920  0.00  0.00     0.238 C 
ATOM      2  O   UNL d   1      52.218  33.463  52.253  0.00  0.00    -0.283 OA
ENDROOT
BRANCH   1   3
ATOM      3  C   UNL d   1      51.939  33.054  53.599  0.00  0.00     0.126 C 
BRANCH   3   4
ATOM      4  N   UNL d   1      52.732  32.825  53.707  0.00  0.00    -0.286 N 
ATOM      5  C   UNL d   1      53.088  32.152  53.376  0.00  0.00     0.148 A 
ATOM      6  N   UNL d   1      53.882  32.135  53.625  0.00  0.00    -0.227 NA
ATOM      7  C   UNL d   1      52.726  31.598  52.887  0.00  0.00     0.041 C 
ATOM      8  C   UNL d   1      54.014  32.790  54.106  0.00  0.00     0.099 A 
ATOM      9  C   UNL d   1      53.299  33.218  54.155  0.00  0.00     0.083 A 
ATOM     10  C   UNL d   1      54.677  33.054  54.500  0.00  0.00     0.021 A 
ATOM     11  C   UNL d   1      53.271  33.912  54.609  0.00  0.00     0.019 A 
ATOM     12  C   UNL d   1      53.948  34.173  55.006  0.00  0.00     0.002 A 
ATOM     13  C   UNL d   1      54.649  33.743  54.950  0.00  0.00     0.002 A 
ENDBRANCH   3   4
ENDBRANCH   1   3
BRANCH   1  14
ATOM     14  C   UNL d   1      51.025  33.922  52.903  0.00  0.00     0.166 C 
BRANCH  14  15
ATOM     15  O   UNL d   1      50.655  34.090  52.155  0.00  0.00    -0.302 OA
BRANCH  15  16
ATOM     16  C   UNL d   1      49.914  34.473  52.113  0.00  0.00     0.100 A 
ATOM     17  C   UNL d   1      49.612  34.858  52.771  0.00  0.00     0.025 A 
ATOM     18  C   UNL d   1      48.876  35.237  52.727  0.00  0.00     0.005 A 
ATOM     19  C   UNL d   1      48.456  35.225  52.031  0.00  0.00     0.039 A 
ATOM     20  C   UNL d   1      48.765  34.835  51.368  0.00  0.00     0.005 A 
ATOM     21  C   UNL d   1      49.494  34.461  51.417  0.00  0.00     0.025 A 
BRANCH  19  22
ATOM     22  C   UNL d   1      47.725  35.601  51.984  0.00  0.00     0.196 C 
ATOM     23  O   UNL d   1      47.169  35.360  51.431  0.00  0.00    -0.287 OA
BRANCH  22  24
ATOM     24  C   UNL d   1      47.550  36.225  52.496  0.00  0.00     0.042 C 
ATOM     25  C   UNL d   1      46.808  36.568  52.485  0.00  0.00     0.003 C 
ENDBRANCH  22  24
ENDBRANCH  19  22
ENDBRANCH  15  16
ENDBRANCH  14  15
ENDBRANCH   1  14
TORSDOF 7
ENDMDL
MODEL 3
REMARK VINA RESULT:      -7.4      2.507      6.183
REMARK  7 active torsions:
REMARK  status: ('A' for Active; 'I' for Inactive)
REMARK    1  A    between atoms: C_6  and  N_1 
REMARK    2  A    between atoms: C_12  and  C_6 
REMARK    3  A    between atoms: C_7  and  C_8 
REMARK    4  A    between atoms: C_22  and  C_7 
REMARK    5  A    between atoms: C_15  and  C_12 
REMARK    6  A    between atoms: O_13  and  C_15 
REMARK    7  A    between atoms: C_14  and  O_13 
ROOT
ATOM      1  C   UNL d   1      48.693  35.061  52.081  0.00  0.00     0.238 C 
ATOM      2  O   UNL d   1      48.336  34.531  51.557  0.00  0.00    -0.283 OA
ENDROOT
BRANCH   1   3
ATOM      3  C   UNL d   1      48.386  35.823  52.176  0.00  0.00     0.126 C 
BRANCH   3   4
ATOM      4  N   UNL d   1      47.614  35.916  52.475  0.00  0.00    -0.286 N 
ATOM      5  C   UNL d   1      46.915  35.830  52.036  0.00  0.00     0.148 A 
ATOM      6  N   UNL d   1      46.274  35.971  52.548  0.00  0.00    -0.227 NA
ATOM      7  C   UNL d   1      46.860  35.640  51.237  0.00  0.00     0.041 C 
ATOM      8  C   UNL d   1      46.575  36.142  53.294  0.00  0.00     0.099 A 
ATOM      9  C   UNL d   1      47.408  36.108  53.247  0.00  0.00     0.083 A 
ATOM     10  C   UNL d   1      46.212  36.322  54.003  0.00  0.00     0.021 A 
ATOM     11  C   UNL d   1      47.860  36.258  53.926  0.00  0.00     0.019 A 
ATOM     12  C   UNL d   1      47.484  36.440  54.641  0.00  0.00     0.002 A 
ATOM     13  C   UNL d   1      46.661  36.471  54.676  0.00  0.00     0.002 A 
ENDBRANCH   3   4
ENDBRANCH   1   3
BRANCH   1  14
ATOM     14  C   UNL d   1      49.365  34.822  52.512  0.00  0.00     0.166 C 
BRANCH  14  15
ATOM     15  O   UNL d   1      49.962  34.351  52.129  0.00  0.00    -0.302 OA
BRANCH  15  16
ATOM     16  C   UNL d   1      50.654  34.115  52.533  0.00  0.00     0.100 A 
ATOM     17  C   UNL d   1      50.617  33.528  53.104  0.00  0.00     0.025 A 
ATOM     18  C   UNL d   1      51.306  33.296  53.503  0.00  0.00     0.005 A 
ATOM     19  C   UNL d   1      52.015  33.652  53.326  0.00  0.00     0.039 A 
ATOM     20  C   UNL d   1      52.048  34.244  52.748  0.00  0.00     0.005 A 
ATOM     21  C   UNL d   1      51.364  34.470  52.356  0.00  0.00     0.025 A 
BRANCH  19  22
ATOM     22  C   UNL d   1      52.701  33.423  53.721  0.00  0.00     0.196 C 
ATOM     23  O   UNL d   1      52.931  33.805  54.408  0.00  0.00    -0.287 OA
BRANCH  22  24
ATOM     24  C   UNL d   1      53.160  32.804  53.422  0.00  0.00     0.042 C 
ATOM     25  C   UNL d   1      53.851  32.588  53.800  0.00  0.00     0.003 C 
ENDBRANCH  22  24
ENDBRANCH  19  22
ENDBRANCH  15  16
ENDBRANCH  14  15
ENDBRANCH   1  14
TORSDOF 7
ENDMDL
MODEL 4
REMARK VINA RESULT:      -7.3      2.371      6.138
REMARK  7 active torsions:
REMARK  status: ('A' for Active; 'I' for Inactive)
REMARK    1  A    between atoms: C_6  and  N_1 
REMARK    2  A    between atoms: C_12  and  C_6 
REMARK    3  A    between atoms: C_7  and  C_8 
REMARK    4  A    between atoms: C_22  and  C_7 
REMARK    5  A    between atoms: C_15  and  C_12 
REMARK    6  A    between atoms: O_13  and  C_15 
REMARK    7  A    between atoms: C_14  and  O_13 
ROOT
ATOM      1  C   UNL d   1      48.977  35.206  52.665  0.00  0.00     0.238 C 
ATOM      2  O   UNL d   1      48.581  35.204  53.390  0.00  0.00    -0.283 OA
ENDROOT
BRANCH   1   3
ATOM      3  C   UNL d   1      48.711  35.687  52.047  0.00  0.00     0.126 C 
BRANCH   3   4
ATOM      4  N   UNL d   1      47.960  35.548  51.717  0.00  0.00    -0.286 N 
ATOM      5  C   UNL d   1      47.798  35.024  51.092  0.00  0.00     0.148 A 
ATOM      6  N   UNL d   1      46.982  35.056  50.939  0.00  0.00    -0.227 NA
ATOM      7  C   UNL d   1      48.345  34.556  50.694  0.00  0.00     0.041 C 
ATOM      8  C   UNL d   1      46.643  35.593  51.463  0.00  0.00     0.099 A 
ATOM      9  C   UNL d   1      47.252  35.897  51.945  0.00  0.00     0.083 A 
ATOM     10  C   UNL d   1      45.873  35.844  51.567  0.00  0.00     0.021 A 
ATOM     11  C   UNL d   1      47.067  36.456  52.529  0.00  0.00     0.019 A 
ATOM     12  C   UNL d   1      46.284  36.706  52.629  0.00  0.00     0.002 A 
ATOM     13  C   UNL d   1      45.690  36.399  52.147  0.00  0.00     0.002 A 
ENDBRANCH   3   4
ENDBRANCH   1   3
BRANCH   1  14
ATOM     14  C   UNL d   1      49.646  34.720  52.561  0.00  0.00     0.166 C 
BRANCH  14  15
ATOM     15  O   UNL d   1      50.267  34.734  53.144  0.00  0.00    -0.302 OA
BRANCH  15  16
ATOM     16  C   UNL d   1      50.907  34.198  53.109  0.00  0.00     0.100 A 
ATOM     17  C   UNL d   1      51.656  34.464  52.905  0.00  0.00     0.025 A 
ATOM     18  C   UNL d   1      52.288  33.930  52.871  0.00  0.00     0.005 A 
ATOM     19  C   UNL d   1      52.165  33.145  53.040  0.00  0.00     0.039 A 
ATOM     20  C   UNL d   1      51.407  32.880  53.245  0.00  0.00     0.005 A 
ATOM     21  C   UNL d   1      50.783  33.413  53.278  0.00  0.00     0.025 A 
BRANCH  19  22
ATOM     22  C   UNL d   1      52.792  32.612  53.007  0.00  0.00     0.196 C 
ATOM     23  O   UNL d   1      52.758  31.961  52.510  0.00  0.00    -0.287 OA
BRANCH  22  24
ATOM     24  C   UNL d   1      53.460  32.734  53.478  0.00  0.00     0.042 C 
ATOM     25  C   UNL d   1      54.042  32.162  53.519  0.00  0.00     0.003 C 
ENDBRANCH  22  24
ENDBRANCH  19  22
ENDBRANCH  15  16
ENDBRANCH  14  15
ENDBRANCH   1  14
TORSDOF 7
ENDMDL
