MODEL 1
REMARK VINA RESULT:      31.4      0.000      0.000
REMARK  3 active torsions:
REMARK  status: ('A' for Active; 'I' for Inactive)
REMARK    1  A    between atoms: N_2  and  S_1 
REMARK    2  A    between atoms: C_4  and  S_1 
REMARK    3  A    between atoms: C_3  and  N_2 
ROOT
ATOM      1  N   UNL d   1     -56.977 -98.757 -44.289  0.00  0.00    -0.157 NA
ENDROOT
BRANCH   1   2
ATOM      2  S   UNL d   1     -56.522 -99.445 -44.306  0.00  0.00     0.285 S 
ATOM      3  O   UNL d   1     -55.846 -98.994 -44.448  0.00  0.00    -0.198 OA
ATOM      4  O   UNL d   1     -57.198 -99.906 -44.163  0.00  0.00    -0.198 OA
BRANCH   2   5
ATOM      5  C   UNL d   1     -56.067-100.133 -44.322  0.00  0.00     0.105 A 
ATOM      6  C   UNL d   1     -56.439-100.878 -44.326  0.00  0.00     0.013 A 
ATOM      7  C   UNL d   1     -55.984-101.567 -44.342  0.00  0.00     0.001 A 
ATOM      8  C   UNL d   1     -55.162-101.521 -44.354  0.00  0.00     0.000 A 
ATOM      9  C   UNL d   1     -54.790-100.785 -44.351  0.00  0.00     0.001 A 
ATOM     10  C   UNL d   1     -54.711-102.216 -44.371  0.00  0.00     0.000 C 
ATOM     11  C   UNL d   1     -55.243-100.093 -44.335  0.00  0.00     0.013 A 
ENDBRANCH   2   5
ENDBRANCH   1   2
BRANCH   1  12
ATOM     12  C   UNL d   1     -57.735 -98.757 -44.615  0.00  0.00     0.111 A 
ATOM     13  C   UNL d   1     -58.400 -98.758 -44.124  0.00  0.00     0.100 A 
ATOM     14  N   UNL d   1     -58.304 -98.759 -43.294  0.00  0.00    -0.242 NA
ATOM     15  C   UNL d   1     -59.157 -98.758 -44.450  0.00  0.00     0.019 A 
ATOM     16  C   UNL d   1     -58.970 -98.760 -42.798  0.00  0.00     0.099 A 
ATOM     17  C   UNL d   1     -59.728 -98.760 -43.124  0.00  0.00     0.021 A 
ATOM     18  C   UNL d   1     -59.822 -98.759 -43.948  0.00  0.00     0.003 A 
ATOM     19  C   UNL d   1     -59.254 -98.758 -45.269  0.00  0.00     0.002 A 
ATOM     20  C   UNL d   1     -58.593 -98.757 -45.763  0.00  0.00     0.002 A 
ATOM     21  C   UNL d   1     -57.835 -98.757 -45.437  0.00  0.00     0.021 A 
ENDBRANCH   1  12
TORSDOF 3
ENDMDL
