MODEL 1
REMARK VINA RESULT:      69.5      0.000      0.000
REMARK  6 active torsions:
REMARK  status: ('A' for Active; 'I' for Inactive)
REMARK    1  A    between atoms: S_3  and  N_1 
REMARK    2  A    between atoms: C_19  and  S_3 
REMARK    3  A    between atoms: S_4  and  N_8 
REMARK    4  A    between atoms: C_12  and  C_5 
REMARK    5  A    between atoms: C_9  and  C_6 
REMARK    6  A    between atoms: N_8  and  C_16 
ROOT
ATOM      1  N   UNL d   1     -55.225-100.296 -43.460  0.00  0.00    -0.152 N 
ATOM      2  N   UNL d   1     -55.180-100.130 -42.647  0.00  0.00    -0.155 NA
ATOM      3  C   UNL d   1     -55.074-101.108 -43.558  0.00  0.00     0.096 A 
ATOM      4  C   UNL d   1     -55.004-100.831 -42.249  0.00  0.00     0.104 A 
ATOM      5  C   UNL d   1     -54.939-101.431 -42.814  0.00  0.00     0.041 A 
ENDROOT
BRANCH   4   6
ATOM      6  C   UNL d   1     -54.909-100.917 -41.435  0.00  0.00     0.021 A 
ATOM      7  C   UNL d   1     -54.909-101.667 -41.101  0.00  0.00     0.021 A 
ATOM      8  C   UNL d   1     -54.814-101.754 -40.282  0.00  0.00     0.093 A 
ATOM      9  C   UNL d   1     -54.719-101.084 -39.801  0.00  0.00     0.020 A 
ATOM     10  C   UNL d   1     -54.719-100.331 -40.145  0.00  0.00     0.002 A 
ATOM     11  C   UNL d   1     -54.814-100.243 -40.956  0.00  0.00     0.002 A 
BRANCH   8  12
ATOM     12  N   UNL d   1     -54.814-102.515 -39.942  0.00  0.00    -0.162 NA
BRANCH  12  13
ATOM     13  S   UNL d   1     -55.333-102.691 -39.332  0.00  0.00     0.266 S 
ATOM     14  O   UNL d   1     -56.051-102.879 -38.955  0.00  0.00    -0.203 OA
ATOM     15  O   UNL d   1     -55.893-102.727 -39.942  0.00  0.00    -0.203 OA
ATOM     16  C   UNL d   1     -54.787-102.659 -38.719  0.00  0.00     0.165 C 
ENDBRANCH  12  13
ENDBRANCH   8  12
ENDBRANCH   4   6
BRANCH   1  17
ATOM     17  S   UNL d   1     -55.391 -99.747 -44.056  0.00  0.00     0.287 S 
ATOM     18  O   UNL d   1     -55.317 -99.496 -44.838  0.00  0.00    -0.198 OA
ATOM     19  O   UNL d   1     -54.929-100.413 -44.222  0.00  0.00    -0.198 OA
BRANCH  17  20
ATOM     20  C   UNL d   1     -55.852 -99.111 -43.825  0.00  0.00     0.118 C 
ATOM     21  C   UNL d   1     -56.510 -98.894 -44.279  0.00  0.00     0.014 C 
ENDBRANCH  17  20
ENDBRANCH   1  17
BRANCH   3  22
ATOM     22  C   UNL d   1     -55.064-101.505 -44.274  0.00  0.00     0.018 A 
ATOM     23  C   UNL d   1     -55.062-101.072 -44.976  0.00  0.00     0.002 A 
ATOM     24  C   UNL d   1     -55.052-101.465 -45.702  0.00  0.00     0.000 A 
ATOM     25  C   UNL d   1     -55.043-102.284 -45.724  0.00  0.00     0.000 A 
ATOM     26  C   UNL d   1     -55.045-102.708 -45.015  0.00  0.00     0.000 A 
ATOM     27  C   UNL d   1     -55.033-102.678 -46.450  0.00  0.00     0.000 C 
ATOM     28  C   UNL d   1     -55.055-102.328 -44.300  0.00  0.00     0.002 A 
ENDBRANCH   3  22
TORSDOF 6
ENDMDL
MODEL 2
REMARK VINA RESULT:      70.7      1.277      5.485
REMARK  6 active torsions:
REMARK  status: ('A' for Active; 'I' for Inactive)
REMARK    1  A    between atoms: S_3  and  N_1 
REMARK    2  A    between atoms: C_19  and  S_3 
REMARK    3  A    between atoms: S_4  and  N_8 
REMARK    4  A    between atoms: C_12  and  C_5 
REMARK    5  A    between atoms: C_9  and  C_6 
REMARK    6  A    between atoms: N_8  and  C_16 
ROOT
ATOM      1  N   UNL d   1     -55.139-101.864 -39.735  0.00  0.00    -0.152 N 
ATOM      2  N   UNL d   1     -55.136-102.140 -40.519  0.00  0.00    -0.155 NA
ATOM      3  C   UNL d   1     -54.949-101.054 -39.754  0.00  0.00     0.096 A 
ATOM      4  C   UNL d   1     -54.946-101.508 -41.015  0.00  0.00     0.104 A 
ATOM      5  C   UNL d   1     -54.832-100.841 -40.539  0.00  0.00     0.041 A 
ENDROOT
BRANCH   4   6
ATOM      6  C   UNL d   1     -54.883-101.537 -41.836  0.00  0.00     0.021 A 
ATOM      7  C   UNL d   1     -54.831-100.839 -42.265  0.00  0.00     0.021 A 
ATOM      8  C   UNL d   1     -54.767-100.868 -43.092  0.00  0.00     0.093 A 
ATOM      9  C   UNL d   1     -54.755-101.600 -43.483  0.00  0.00     0.020 A 
ATOM     10  C   UNL d   1     -54.808-102.299 -43.042  0.00  0.00     0.002 A 
ATOM     11  C   UNL d   1     -54.871-102.272 -42.225  0.00  0.00     0.002 A 
BRANCH   8  12
ATOM     12  N   UNL d   1     -54.714-100.161 -43.529  0.00  0.00    -0.162 NA
BRANCH  12  13
ATOM     13  S   UNL d   1     -54.996-100.132 -44.299  0.00  0.00     0.266 S 
ATOM     14  O   UNL d   1     -55.316 -99.807 -44.996  0.00  0.00    -0.203 OA
ATOM     15  O   UNL d   1     -55.110 -99.329 -44.130  0.00  0.00    -0.203 OA
ATOM     16  C   UNL d   1     -54.889-100.926 -44.479  0.00  0.00     0.165 C 
ENDBRANCH  12  13
ENDBRANCH   8  12
ENDBRANCH   4   6
BRANCH   1  17
ATOM     17  S   UNL d   1     -55.302-102.319 -39.064  0.00  0.00     0.287 S 
ATOM     18  O   UNL d   1     -55.154-102.510 -38.275  0.00  0.00    -0.198 OA
ATOM     19  O   UNL d   1     -54.715-101.737 -39.037  0.00  0.00    -0.198 OA
BRANCH  17  20
ATOM     20  C   UNL d   1     -55.894-102.876 -39.158  0.00  0.00     0.118 C 
ATOM     21  C   UNL d   1     -56.561-102.855 -38.666  0.00  0.00     0.014 C 
ENDBRANCH  17  20
ENDBRANCH   1  17
BRANCH   3  22
ATOM     22  C   UNL d   1     -54.891-100.565 -39.099  0.00  0.00     0.018 A 
ATOM     23  C   UNL d   1     -54.788-100.900 -38.353  0.00  0.00     0.002 A 
ATOM     24  C   UNL d   1     -54.730-100.414 -37.689  0.00  0.00     0.000 A 
ATOM     25  C   UNL d   1     -54.773 -99.600 -37.772  0.00  0.00     0.000 A 
ATOM     26  C   UNL d   1     -54.877 -99.275 -38.523  0.00  0.00     0.000 A 
ATOM     27  C   UNL d   1     -54.715 -99.113 -37.107  0.00  0.00     0.000 C 
ATOM     28  C   UNL d   1     -54.935 -99.746 -39.180  0.00  0.00     0.002 A 
ENDBRANCH   3  22
TORSDOF 6
ENDMDL
