MODEL 1
REMARK VINA RESULT:      16.8      0.000      0.000
REMARK  4 active torsions:
REMARK  status: ('A' for Active; 'I' for Inactive)
REMARK    1  A    between atoms: C_2  and  C_1 
REMARK    2  A    between atoms: C_13  and  N_5 
REMARK    3  A    between atoms: C_16  and  C_13 
REMARK    4  A    between atoms: C_17  and  C_16 
ROOT
ATOM      1  C   UNL d   1      45.384 -15.624  44.555  0.00  0.00     0.112 A 
ATOM      2  C   UNL d   1      45.849 -14.951  44.470  0.00  0.00     0.176 A 
ATOM      3  N   UNL d   1      45.386 -14.290  44.662  0.00  0.00    -0.285 N 
ATOM      4  C   UNL d   1      44.632 -15.378  44.799  0.00  0.00     0.219 A 
ATOM      5  C   UNL d   1      44.638 -14.561  44.864  0.00  0.00     0.124 A 
ATOM      6  O   UNL d   1      43.981 -15.875  44.954  0.00  0.00    -0.285 OA
ATOM      7  N   UNL d   1      46.647 -14.943  44.232  0.00  0.00    -0.128 N 
ENDROOT
BRANCH   1   8
ATOM      8  C   UNL d   1      45.647 -16.395  44.413  0.00  0.00     0.169 A 
ATOM      9  N   UNL d   1      45.815 -16.999  44.952  0.00  0.00    -0.225 NA
ATOM     10  C   UNL d   1      46.059 -17.658  44.529  0.00  0.00     0.101 A 
ATOM     11  C   UNL d   1      46.294 -18.410  44.770  0.00  0.00     0.021 A 
ATOM     12  C   UNL d   1      46.043 -17.466  43.726  0.00  0.00     0.101 A 
ATOM     13  C   UNL d   1      46.516 -18.978  44.206  0.00  0.00     0.002 A 
ATOM     14  C   UNL d   1      46.500 -18.787  43.402  0.00  0.00     0.002 A 
ATOM     15  C   UNL d   1      46.263 -18.027  43.163  0.00  0.00     0.021 A 
ATOM     16  N   UNL d   1      45.790 -16.690  43.659  0.00  0.00    -0.225 NA
ENDBRANCH   1   8
BRANCH   3  17
ATOM     17  C   UNL d   1      45.638 -13.499  44.651  0.00  0.00     0.082 C 
BRANCH  17  18
ATOM     18  C   UNL d   1      45.201 -12.947  44.244  0.00  0.00     0.019 C 
BRANCH  18  19
ATOM     19  C   UNL d   1      45.573 -12.445  43.705  0.00  0.00     0.002 C 
ATOM     20  C   UNL d   1      45.160 -12.172  43.053  0.00  0.00     0.000 C 
ENDBRANCH  18  19
ENDBRANCH  17  18
ENDBRANCH   3  17
TORSDOF 4
ENDMDL
MODEL 2
REMARK VINA RESULT:      19.6      0.665      4.285
REMARK  4 active torsions:
REMARK  status: ('A' for Active; 'I' for Inactive)
REMARK    1  A    between atoms: C_2  and  C_1 
REMARK    2  A    between atoms: C_13  and  N_5 
REMARK    3  A    between atoms: C_16  and  C_13 
REMARK    4  A    between atoms: C_17  and  C_16 
ROOT
ATOM      1  C   UNL d   1      45.225 -15.553  44.673  0.00  0.00     0.112 A 
ATOM      2  C   UNL d   1      45.858 -16.078  44.649  0.00  0.00     0.176 A 
ATOM      3  N   UNL d   1      45.571 -16.837  44.824  0.00  0.00    -0.285 N 
ATOM      4  C   UNL d   1      44.547 -15.989  44.863  0.00  0.00     0.219 A 
ATOM      5  C   UNL d   1      44.763 -16.774  44.954  0.00  0.00     0.124 A 
ATOM      6  O   UNL d   1      43.776 -15.683  44.946  0.00  0.00    -0.285 OA
ATOM      7  N   UNL d   1      46.647 -15.875  44.479  0.00  0.00    -0.128 N 
ENDROOT
BRANCH   1   8
ATOM      8  C   UNL d   1      45.286 -14.741  44.529  0.00  0.00     0.169 A 
ATOM      9  N   UNL d   1      44.810 -14.255  44.060  0.00  0.00    -0.225 NA
ATOM     10  C   UNL d   1      45.106 -13.491  44.103  0.00  0.00     0.101 A 
ATOM     11  C   UNL d   1      44.860 -12.786  43.754  0.00  0.00     0.021 A 
ATOM     12  C   UNL d   1      45.766 -13.499  44.599  0.00  0.00     0.101 A 
ATOM     13  C   UNL d   1      45.276 -12.081  43.901  0.00  0.00     0.002 A 
ATOM     14  C   UNL d   1      45.936 -12.090  44.397  0.00  0.00     0.002 A 
ATOM     15  C   UNL d   1      46.181 -12.803  44.747  0.00  0.00     0.021 A 
ATOM     16  N   UNL d   1      45.874 -14.269  44.859  0.00  0.00    -0.225 NA
ENDBRANCH   1   8
BRANCH   3  17
ATOM     17  C   UNL d   1      46.025 -17.531  44.859  0.00  0.00     0.082 C 
BRANCH  17  18
ATOM     18  C   UNL d   1      45.981 -18.068  44.249  0.00  0.00     0.019 C 
BRANCH  18  19
ATOM     19  C   UNL d   1      46.365 -18.796  44.314  0.00  0.00     0.002 C 
ATOM     20  C   UNL d   1      46.160 -19.409  43.812  0.00  0.00     0.000 C 
ENDBRANCH  18  19
ENDBRANCH  17  18
ENDBRANCH   3  17
TORSDOF 4
ENDMDL
