MODEL 1
REMARK VINA RESULT:      -2.8      0.000      0.000
REMARK  0 active torsions:
REMARK  status: ('A' for Active; 'I' for Inactive)
ROOT
ATOM      1  N   UNL d   1      30.177  17.712 -24.660  0.00  0.00    -0.202 NA
ATOM      2  N   UNL d   1      30.056  16.226 -23.970  0.00  0.00    -0.202 NA
ATOM      3  C   UNL d   1      29.392  16.573 -24.307  0.00  0.00     0.337 A 
ATOM      4  C   UNL d   1      29.450  17.322 -24.655  0.00  0.00     0.337 A 
ATOM      5  C   UNL d   1      30.775  16.618 -23.978  0.00  0.00     0.102 A 
ATOM      6  C   UNL d   1      30.832  17.356 -24.321  0.00  0.00     0.102 A 
ATOM      7  C   UNL d   1      31.555  17.757 -24.332  0.00  0.00     0.021 A 
ATOM      8  C   UNL d   1      31.438  16.259 -23.636  0.00  0.00     0.021 A 
ATOM      9  C   UNL d   1      32.164  16.664 -23.648  0.00  0.00     0.002 A 
ATOM     10  C   UNL d   1      32.222  17.407 -23.993  0.00  0.00     0.002 A 
ATOM     11  O   UNL d   1      28.670  16.181 -24.300  0.00  0.00    -0.260 OA
ATOM     12  O   UNL d   1      28.786  17.673 -24.994  0.00  0.00    -0.260 OA
ATOM     13  C   UNL d   1      32.945  17.802 -24.002  0.00  0.00     0.000 C 
ATOM     14  C   UNL d   1      32.822  16.313 -23.310  0.00  0.00     0.000 C 
ENDROOT
TORSDOF 0
ENDMDL
MODEL 2
REMARK VINA RESULT:      -2.7      1.685      2.753
REMARK  0 active torsions:
REMARK  status: ('A' for Active; 'I' for Inactive)
ROOT
ATOM      1  N   UNL d   1      30.924  17.706 -24.724  0.00  0.00    -0.202 NA
ATOM      2  N   UNL d   1      31.658  16.485 -23.906  0.00  0.00    -0.202 NA
ATOM      3  C   UNL d   1      32.115  17.047 -24.294  0.00  0.00     0.337 A 
ATOM      4  C   UNL d   1      31.747  17.663 -24.707  0.00  0.00     0.337 A 
ATOM      5  C   UNL d   1      30.841  16.533 -23.927  0.00  0.00     0.102 A 
ATOM      6  C   UNL d   1      30.479  17.139 -24.334  0.00  0.00     0.102 A 
ATOM      7  C   UNL d   1      29.654  17.194 -24.359  0.00  0.00     0.021 A 
ATOM      8  C   UNL d   1      30.389  15.961 -23.533  0.00  0.00     0.021 A 
ATOM      9  C   UNL d   1      29.560  16.016 -23.559  0.00  0.00     0.002 A 
ATOM     10  C   UNL d   1      29.195  16.628 -23.969  0.00  0.00     0.002 A 
ATOM     11  O   UNL d   1      32.935  17.000 -24.274  0.00  0.00    -0.260 OA
ATOM     12  O   UNL d   1      32.202  18.229 -25.097  0.00  0.00    -0.260 OA
ATOM     13  C   UNL d   1      28.373  16.676 -23.990  0.00  0.00     0.000 C 
ATOM     14  C   UNL d   1      29.110  15.453 -23.171  0.00  0.00     0.000 C 
ENDROOT
TORSDOF 0
ENDMDL
MODEL 3
REMARK VINA RESULT:      -2.7      5.215      6.094
REMARK  0 active torsions:
REMARK  status: ('A' for Active; 'I' for Inactive)
ROOT
ATOM      1  N   UNL d   1      33.049  20.410 -21.088  0.00  0.00    -0.202 NA
ATOM      2  N   UNL d   1      33.050  21.202 -22.528  0.00  0.00    -0.202 NA
ATOM      3  C   UNL d   1      33.146  20.386 -22.513  0.00  0.00     0.337 A 
ATOM      4  C   UNL d   1      33.145  19.985 -21.789  0.00  0.00     0.337 A 
ATOM      5  C   UNL d   1      32.956  21.619 -21.830  0.00  0.00     0.102 A 
ATOM      6  C   UNL d   1      32.955  21.224 -21.117  0.00  0.00     0.102 A 
ATOM      7  C   UNL d   1      32.860  21.638 -20.408  0.00  0.00     0.021 A 
ATOM      8  C   UNL d   1      32.860  22.441 -21.856  0.00  0.00     0.021 A 
ATOM      9  C   UNL d   1      32.764  22.857 -21.143  0.00  0.00     0.002 A 
ATOM     10  C   UNL d   1      32.764  22.459 -20.424  0.00  0.00     0.002 A 
ATOM     11  O   UNL d   1      33.241  19.966 -23.213  0.00  0.00    -0.260 OA
ATOM     12  O   UNL d   1      33.241  19.166 -21.770  0.00  0.00    -0.260 OA
ATOM     13  C   UNL d   1      32.669  22.878 -19.721  0.00  0.00     0.000 C 
ATOM     14  C   UNL d   1      32.670  23.670 -21.165  0.00  0.00     0.000 C 
ENDROOT
TORSDOF 0
ENDMDL
MODEL 4
REMARK VINA RESULT:      -2.6      4.299      5.246
REMARK  0 active torsions:
REMARK  status: ('A' for Active; 'I' for Inactive)
ROOT
ATOM      1  N   UNL d   1      33.036  19.532 -21.792  0.00  0.00    -0.202 NA
ATOM      2  N   UNL d   1      33.240  20.392 -23.177  0.00  0.00    -0.202 NA
ATOM      3  C   UNL d   1      33.190  19.572 -23.211  0.00  0.00     0.337 A 
ATOM      4  C   UNL d   1      33.087  19.137 -22.514  0.00  0.00     0.337 A 
ATOM      5  C   UNL d   1      33.188  20.778 -22.457  0.00  0.00     0.102 A 
ATOM      6  C   UNL d   1      33.087  20.350 -21.772  0.00  0.00     0.102 A 
ATOM      7  C   UNL d   1      33.035  20.734 -21.041  0.00  0.00     0.021 A 
ATOM      8  C   UNL d   1      33.240  21.605 -22.435  0.00  0.00     0.021 A 
ATOM      9  C   UNL d   1      33.187  21.990 -21.700  0.00  0.00     0.002 A 
ATOM     10  C   UNL d   1      33.086  21.558 -21.009  0.00  0.00     0.002 A 
ATOM     11  O   UNL d   1      33.241  19.182 -23.933  0.00  0.00    -0.260 OA
ATOM     12  O   UNL d   1      33.036  18.315 -22.544  0.00  0.00    -0.260 OA
ATOM     13  C   UNL d   1      33.034  21.947 -20.284  0.00  0.00     0.000 C 
ATOM     14  C   UNL d   1      33.238  22.807 -21.674  0.00  0.00     0.000 C 
ENDROOT
TORSDOF 0
ENDMDL
MODEL 5
REMARK VINA RESULT:      -2.5      1.684      2.367
REMARK  0 active torsions:
REMARK  status: ('A' for Active; 'I' for Inactive)
ROOT
ATOM      1  N   UNL d   1      31.872  16.792 -23.306  0.00  0.00    -0.202 NA
ATOM      2  N   UNL d   1      31.848  17.014 -24.934  0.00  0.00    -0.202 NA
ATOM      3  C   UNL d   1      31.511  16.338 -24.610  0.00  0.00     0.337 A 
ATOM      4  C   UNL d   1      31.521  16.224 -23.790  0.00  0.00     0.337 A 
ATOM      5  C   UNL d   1      32.194  17.574 -24.448  0.00  0.00     0.102 A 
ATOM      6  C   UNL d   1      32.205  17.462 -23.641  0.00  0.00     0.102 A 
ATOM      7  C   UNL d   1      32.553  18.024 -23.144  0.00  0.00     0.021 A 
ATOM      8  C   UNL d   1      32.532  18.252 -24.784  0.00  0.00     0.021 A 
ATOM      9  C   UNL d   1      32.881  18.816 -24.285  0.00  0.00     0.002 A 
ATOM     10  C   UNL d   1      32.892  18.703 -23.470  0.00  0.00     0.002 A 
ATOM     11  O   UNL d   1      31.163  15.774 -25.097  0.00  0.00    -0.260 OA
ATOM     12  O   UNL d   1      31.184  15.547 -23.463  0.00  0.00    -0.260 OA
ATOM     13  C   UNL d   1      33.240  19.267 -22.981  0.00  0.00     0.000 C 
ATOM     14  C   UNL d   1      33.216  19.487 -24.613  0.00  0.00     0.000 C 
ENDROOT
TORSDOF 0
ENDMDL
MODEL 6
REMARK VINA RESULT:      -2.5      4.399      5.299
REMARK  0 active torsions:
REMARK  status: ('A' for Active; 'I' for Inactive)
ROOT
ATOM      1  N   UNL d   1      33.227  20.429 -21.047  0.00  0.00    -0.202 NA
ATOM      2  N   UNL d   1      33.216  21.477 -22.312  0.00  0.00    -0.202 NA
ATOM      3  C   UNL d   1      33.215  21.768 -21.543  0.00  0.00     0.337 A 
ATOM      4  C   UNL d   1      33.220  21.242 -20.904  0.00  0.00     0.337 A 
ATOM      5  C   UNL d   1      33.222  20.670 -22.447  0.00  0.00     0.102 A 
ATOM      6  C   UNL d   1      33.227  20.152 -21.818  0.00  0.00     0.102 A 
ATOM      7  C   UNL d   1      33.234  19.335 -21.948  0.00  0.00     0.021 A 
ATOM      8  C   UNL d   1      33.223  20.388 -23.226  0.00  0.00     0.021 A 
ATOM      9  C   UNL d   1      33.229  19.567 -23.355  0.00  0.00     0.002 A 
ATOM     10  C   UNL d   1      33.235  19.045 -22.721  0.00  0.00     0.002 A 
ATOM     11  O   UNL d   1      33.209  22.578 -21.406  0.00  0.00    -0.260 OA
ATOM     12  O   UNL d   1      33.219  21.530 -20.132  0.00  0.00    -0.260 OA
ATOM     13  C   UNL d   1      33.241  18.231 -22.857  0.00  0.00     0.000 C 
ATOM     14  C   UNL d   1      33.230  19.284 -24.124  0.00  0.00     0.000 C 
ENDROOT
TORSDOF 0
ENDMDL
MODEL 7
REMARK VINA RESULT:      -2.2      2.989      3.473
REMARK  0 active torsions:
REMARK  status: ('A' for Active; 'I' for Inactive)
ROOT
ATOM      1  N   UNL d   1      32.894  19.441 -23.919  0.00  0.00    -0.202 NA
ATOM      2  N   UNL d   1      32.897  18.744 -22.431  0.00  0.00    -0.202 NA
ATOM      3  C   UNL d   1      33.069  19.545 -22.506  0.00  0.00     0.337 A 
ATOM      4  C   UNL d   1      33.068  19.898 -23.255  0.00  0.00     0.337 A 
ATOM      5  C   UNL d   1      32.726  18.296 -23.094  0.00  0.00     0.102 A 
ATOM      6  C   UNL d   1      32.725  18.644 -23.831  0.00  0.00     0.102 A 
ATOM      7  C   UNL d   1      32.553  18.197 -24.505  0.00  0.00     0.021 A 
ATOM      8  C   UNL d   1      32.554  17.491 -23.008  0.00  0.00     0.021 A 
ATOM      9  C   UNL d   1      32.381  17.042 -23.685  0.00  0.00     0.002 A 
ATOM     10  C   UNL d   1      32.380  17.393 -24.429  0.00  0.00     0.002 A 
ATOM     11  O   UNL d   1      33.241  19.996 -21.841  0.00  0.00    -0.260 OA
ATOM     12  O   UNL d   1      33.240  20.700 -23.334  0.00  0.00    -0.260 OA
ATOM     13  C   UNL d   1      32.208  16.941 -25.097  0.00  0.00     0.000 C 
ATOM     14  C   UNL d   1      32.211  16.245 -23.604  0.00  0.00     0.000 C 
ENDROOT
TORSDOF 0
ENDMDL
MODEL 8
REMARK VINA RESULT:      -2.1      6.105      6.807
REMARK  0 active torsions:
REMARK  status: ('A' for Active; 'I' for Inactive)
ROOT
ATOM      1  N   UNL d   1      32.711  23.696 -22.990  0.00  0.00    -0.202 NA
ATOM      2  N   UNL d   1      33.153  22.114 -22.966  0.00  0.00    -0.202 NA
ATOM      3  C   UNL d   1      33.087  22.507 -23.685  0.00  0.00     0.337 A 
ATOM      4  C   UNL d   1      32.864  23.304 -23.699  0.00  0.00     0.337 A 
ATOM      5  C   UNL d   1      33.000  22.508 -22.266  0.00  0.00     0.102 A 
ATOM      6  C   UNL d   1      32.781  23.293 -22.280  0.00  0.00     0.102 A 
ATOM      7  C   UNL d   1      32.624  23.697 -21.575  0.00  0.00     0.021 A 
ATOM      8  C   UNL d   1      33.069  22.102 -21.547  0.00  0.00     0.021 A 
ATOM      9  C   UNL d   1      32.912  22.509 -20.839  0.00  0.00     0.002 A 
ATOM     10  C   UNL d   1      32.691  23.301 -20.854  0.00  0.00     0.002 A 
ATOM     11  O   UNL d   1      33.241  22.112 -24.389  0.00  0.00    -0.260 OA
ATOM     12  O   UNL d   1      32.797  23.701 -24.418  0.00  0.00    -0.260 OA
ATOM     13  C   UNL d   1      32.536  23.698 -20.148  0.00  0.00     0.000 C 
ATOM     14  C   UNL d   1      32.980  22.112 -20.126  0.00  0.00     0.000 C 
ENDROOT
TORSDOF 0
ENDMDL
MODEL 9
REMARK VINA RESULT:      -1.9      6.100      6.923
REMARK  0 active torsions:
REMARK  status: ('A' for Active; 'I' for Inactive)
ROOT
ATOM      1  N   UNL d   1      33.168  21.729 -21.295  0.00  0.00    -0.202 NA
ATOM      2  N   UNL d   1      32.726  23.296 -21.076  0.00  0.00    -0.202 NA
ATOM      3  C   UNL d   1      32.820  22.805 -20.424  0.00  0.00     0.337 A 
ATOM      4  C   UNL d   1      33.042  22.015 -20.532  0.00  0.00     0.337 A 
ATOM      5  C   UNL d   1      32.852  23.006 -21.831  0.00  0.00     0.102 A 
ATOM      6  C   UNL d   1      33.071  22.228 -21.937  0.00  0.00     0.102 A 
ATOM      7  C   UNL d   1      33.200  21.929 -22.697  0.00  0.00     0.021 A 
ATOM      8  C   UNL d   1      32.755  23.509 -22.482  0.00  0.00     0.021 A 
ATOM      9  C   UNL d   1      32.885  23.208 -23.246  0.00  0.00     0.002 A 
ATOM     10  C   UNL d   1      33.106  22.423 -23.352  0.00  0.00     0.002 A 
ATOM     11  O   UNL d   1      32.694  23.095 -19.665  0.00  0.00    -0.260 OA
ATOM     12  O   UNL d   1      33.137  21.520 -19.880  0.00  0.00    -0.260 OA
ATOM     13  C   UNL d   1      33.233  22.131 -24.113  0.00  0.00     0.000 C 
ATOM     14  C   UNL d   1      32.790  23.702 -23.892  0.00  0.00     0.000 C 
ENDROOT
TORSDOF 0
ENDMDL
