MODEL 1
REMARK VINA RESULT:     -10.3      0.000      0.000
REMARK  0 active torsions:
REMARK  status: ('A' for Active; 'I' for Inactive)
ROOT
ATOM      1  N   UNL d   1     -47.949  14.049  22.945  0.00  0.00    -0.176 N 
ATOM      2  C   UNL d   1     -48.224  13.313  23.196  0.00  0.00     0.167 A 
ATOM      3  N   UNL d   1     -47.169  14.171  22.820  0.00  0.00    -0.150 NA
ATOM      4  C   UNL d   1     -48.506  14.671  22.821  0.00  0.00     0.283 A 
ATOM      5  N   UNL d   1     -49.054  13.204  23.323  0.00  0.00    -0.227 NA
ATOM      6  C   UNL d   1     -46.618  13.551  22.943  0.00  0.00     0.159 A 
ATOM      7  C   UNL d   1     -49.318  14.560  22.946  0.00  0.00     0.076 A 
ATOM      8  C   UNL d   1     -47.717  12.704  23.321  0.00  0.00     0.038 A 
ATOM      9  C   UNL d   1     -49.593  13.824  23.198  0.00  0.00     0.088 A 
ATOM     10  C   UNL d   1     -46.893  12.815  23.195  0.00  0.00     0.033 A 
ATOM     11  O   UNL d   1     -48.229  15.412  22.568  0.00  0.00    -0.265 OA
ATOM     12 CL   UNL d   1     -45.834  13.672  22.818  0.00  0.00    -0.060 Cl
ATOM     13  C   UNL d   1     -49.847  15.172  22.823  0.00  0.00     0.006 A 
ATOM     14  C   UNL d   1     -47.992  11.968  23.572  0.00  0.00     0.003 A 
ATOM     15  C   UNL d   1     -46.381  12.205  23.320  0.00  0.00     0.003 A 
ATOM     16  C   UNL d   1     -50.395  13.705  23.324  0.00  0.00     0.019 A 
ATOM     17  C   UNL d   1     -50.654  15.060  22.948  0.00  0.00     0.000 A 
ATOM     18  C   UNL d   1     -47.443  11.343  23.698  0.00  0.00     0.000 A 
ATOM     19  C   UNL d   1     -46.656  11.469  23.571  0.00  0.00     0.000 A 
ATOM     20  C   UNL d   1     -50.929  14.324  23.199  0.00  0.00     0.002 A 
ENDROOT
TORSDOF 0
ENDMDL
MODEL 2
REMARK VINA RESULT:     -10.1      1.532      3.172
REMARK  0 active torsions:
REMARK  status: ('A' for Active; 'I' for Inactive)
ROOT
ATOM      1  N   UNL d   1     -48.892  14.020  22.980  0.00  0.00    -0.176 N 
ATOM      2  C   UNL d   1     -48.921  13.218  23.171  0.00  0.00     0.167 A 
ATOM      3  N   UNL d   1     -49.561  14.457  22.954  0.00  0.00    -0.150 NA
ATOM      4  C   UNL d   1     -48.144  14.371  22.811  0.00  0.00     0.283 A 
ATOM      5  N   UNL d   1     -48.202  12.773  23.192  0.00  0.00    -0.227 NA
ATOM      6  C   UNL d   1     -50.303  14.105  23.122  0.00  0.00     0.159 A 
ATOM      7  C   UNL d   1     -47.441  13.932  22.833  0.00  0.00     0.076 A 
ATOM      8  C   UNL d   1     -49.619  12.858  23.335  0.00  0.00     0.038 A 
ATOM      9  C   UNL d   1     -47.470  13.130  23.024  0.00  0.00     0.088 A 
ATOM     10  C   UNL d   1     -50.332  13.303  23.313  0.00  0.00     0.033 A 
ATOM     11  O   UNL d   1     -48.114  15.179  22.619  0.00  0.00    -0.265 OA
ATOM     12 CL   UNL d   1     -50.977  14.542  23.097  0.00  0.00    -0.060 Cl
ATOM     13  C   UNL d   1     -46.721  14.285  22.668  0.00  0.00     0.006 A 
ATOM     14  C   UNL d   1     -49.648  12.056  23.526  0.00  0.00     0.003 A 
ATOM     15  C   UNL d   1     -51.035  12.944  23.478  0.00  0.00     0.003 A 
ATOM     16  C   UNL d   1     -46.780  12.687  23.049  0.00  0.00     0.019 A 
ATOM     17  C   UNL d   1     -46.025  13.846  22.690  0.00  0.00     0.000 A 
ATOM     18  C   UNL d   1     -50.391  11.699  23.696  0.00  0.00     0.000 A 
ATOM     19  C   UNL d   1     -51.064  12.142  23.669  0.00  0.00     0.000 A 
ATOM     20  C   UNL d   1     -46.054  13.044  22.882  0.00  0.00     0.002 A 
ENDROOT
TORSDOF 0
ENDMDL
MODEL 3
REMARK VINA RESULT:     -10.0      1.678      3.830
REMARK  0 active torsions:
REMARK  status: ('A' for Active; 'I' for Inactive)
ROOT
ATOM      1  N   UNL d   1     -49.013  12.443  23.318  0.00  0.00    -0.176 N 
ATOM      2  C   UNL d   1     -48.619  13.144  23.134  0.00  0.00     0.167 A 
ATOM      3  N   UNL d   1     -49.812  12.413  23.319  0.00  0.00    -0.150 NA
ATOM      4  C   UNL d   1     -48.558  11.758  23.506  0.00  0.00     0.283 A 
ATOM      5  N   UNL d   1     -47.773  13.154  23.138  0.00  0.00    -0.227 NA
ATOM      6  C   UNL d   1     -50.261  13.096  23.132  0.00  0.00     0.159 A 
ATOM      7  C   UNL d   1     -47.729  11.772  23.510  0.00  0.00     0.076 A 
ATOM      8  C   UNL d   1     -49.026  13.810  22.952  0.00  0.00     0.038 A 
ATOM      9  C   UNL d   1     -47.335  12.472  23.325  0.00  0.00     0.088 A 
ATOM     10  C   UNL d   1     -49.867  13.797  22.948  0.00  0.00     0.033 A 
ATOM     11  O   UNL d   1     -48.955  11.052  23.692  0.00  0.00    -0.265 OA
ATOM     12 CL   UNL d   1     -51.064  13.069  23.132  0.00  0.00    -0.060 Cl
ATOM     13  C   UNL d   1     -47.300  11.100  23.694  0.00  0.00     0.006 A 
ATOM     14  C   UNL d   1     -48.632  14.511  22.767  0.00  0.00     0.003 A 
ATOM     15  C   UNL d   1     -50.279  14.465  22.765  0.00  0.00     0.003 A 
ATOM     16  C   UNL d   1     -46.515  12.496  23.326  0.00  0.00     0.019 A 
ATOM     17  C   UNL d   1     -46.477  11.116  23.696  0.00  0.00     0.000 A 
ATOM     18  C   UNL d   1     -49.079  15.199  22.579  0.00  0.00     0.000 A 
ATOM     19  C   UNL d   1     -49.885  15.166  22.580  0.00  0.00     0.000 A 
ATOM     20  C   UNL d   1     -46.083  11.817  23.512  0.00  0.00     0.002 A 
ENDROOT
TORSDOF 0
ENDMDL
MODEL 4
REMARK VINA RESULT:      -9.9      1.080      1.572
REMARK  0 active torsions:
REMARK  status: ('A' for Active; 'I' for Inactive)
ROOT
ATOM      1  N   UNL d   1     -48.528  13.805  23.041  0.00  0.00    -0.176 N 
ATOM      2  C   UNL d   1     -48.145  13.081  23.142  0.00  0.00     0.167 A 
ATOM      3  N   UNL d   1     -48.112  14.463  22.858  0.00  0.00    -0.150 NA
ATOM      4  C   UNL d   1     -49.366  13.840  23.133  0.00  0.00     0.283 A 
ATOM      5  N   UNL d   1     -48.604  12.397  23.335  0.00  0.00    -0.227 NA
ATOM      6  C   UNL d   1     -47.279  14.426  22.767  0.00  0.00     0.159 A 
ATOM      7  C   UNL d   1     -49.811  13.167  23.322  0.00  0.00     0.076 A 
ATOM      8  C   UNL d   1     -47.350  13.020  23.060  0.00  0.00     0.038 A 
ATOM      9  C   UNL d   1     -49.429  12.443  23.423  0.00  0.00     0.088 A 
ATOM     10  C   UNL d   1     -46.897  13.702  22.869  0.00  0.00     0.033 A 
ATOM     11  O   UNL d   1     -49.750  14.569  23.031  0.00  0.00    -0.265 OA
ATOM     12 CL   UNL d   1     -46.859  15.086  22.584  0.00  0.00    -0.060 Cl
ATOM     13  C   UNL d   1     -50.624  13.214  23.409  0.00  0.00     0.006 A 
ATOM     14  C   UNL d   1     -46.968  12.296  23.162  0.00  0.00     0.003 A 
ATOM     15  C   UNL d   1     -46.097  13.643  22.786  0.00  0.00     0.003 A 
ATOM     16  C   UNL d   1     -49.862  11.771  23.611  0.00  0.00     0.019 A 
ATOM     17  C   UNL d   1     -51.064  12.544  23.596  0.00  0.00     0.000 A 
ATOM     18  C   UNL d   1     -46.133  12.254  23.072  0.00  0.00     0.000 A 
ATOM     19  C   UNL d   1     -45.715  12.919  22.887  0.00  0.00     0.000 A 
ATOM     20  C   UNL d   1     -50.682  11.820  23.698  0.00  0.00     0.002 A 
ENDROOT
TORSDOF 0
ENDMDL
MODEL 5
REMARK VINA RESULT:      -9.9      1.185      3.333
REMARK  0 active torsions:
REMARK  status: ('A' for Active; 'I' for Inactive)
ROOT
ATOM      1  N   UNL d   1     -48.163  13.753  22.935  0.00  0.00    -0.176 N 
ATOM      2  C   UNL d   1     -48.779  13.205  22.936  0.00  0.00     0.167 A 
ATOM      3  N   UNL d   1     -48.299  14.520  22.754  0.00  0.00    -0.150 NA
ATOM      4  C   UNL d   1     -47.385  13.491  23.130  0.00  0.00     0.283 A 
ATOM      5  N   UNL d   1     -48.614  12.399  23.131  0.00  0.00    -0.227 NA
ATOM      6  C   UNL d   1     -49.073  14.778  22.560  0.00  0.00     0.159 A 
ATOM      7  C   UNL d   1     -47.227  12.700  23.321  0.00  0.00     0.076 A 
ATOM      8  C   UNL d   1     -49.528  13.428  22.754  0.00  0.00     0.038 A 
ATOM      9  C   UNL d   1     -47.843  12.152  23.321  0.00  0.00     0.088 A 
ATOM     10  C   UNL d   1     -49.690  14.230  22.560  0.00  0.00     0.033 A 
ATOM     11  O   UNL d   1     -46.764  14.043  23.130  0.00  0.00    -0.265 OA
ATOM     12 CL   UNL d   1     -49.213  15.548  22.377  0.00  0.00    -0.060 Cl
ATOM     13  C   UNL d   1     -46.468  12.458  23.509  0.00  0.00     0.006 A 
ATOM     14  C   UNL d   1     -50.145  12.880  22.754  0.00  0.00     0.003 A 
ATOM     15  C   UNL d   1     -50.442  14.456  22.378  0.00  0.00     0.003 A 
ATOM     16  C   UNL d   1     -47.696  11.366  23.509  0.00  0.00     0.019 A 
ATOM     17  C   UNL d   1     -46.313  11.672  23.698  0.00  0.00     0.000 A 
ATOM     18  C   UNL d   1     -50.923  13.134  22.561  0.00  0.00     0.000 A 
ATOM     19  C   UNL d   1     -51.059  13.908  22.378  0.00  0.00     0.000 A 
ATOM     20  C   UNL d   1     -46.930  11.124  23.698  0.00  0.00     0.002 A 
ENDROOT
TORSDOF 0
ENDMDL
MODEL 6
REMARK VINA RESULT:      -9.7      1.537      2.281
REMARK  0 active torsions:
REMARK  status: ('A' for Active; 'I' for Inactive)
ROOT
ATOM      1  N   UNL d   1     -48.155  12.225  23.331  0.00  0.00    -0.176 N 
ATOM      2  C   UNL d   1     -48.180  13.022  23.118  0.00  0.00     0.167 A 
ATOM      3  N   UNL d   1     -47.455  11.847  23.409  0.00  0.00    -0.150 NA
ATOM      4  C   UNL d   1     -48.880  11.816  23.465  0.00  0.00     0.283 A 
ATOM      5  N   UNL d   1     -48.932  13.403  23.041  0.00  0.00    -0.227 NA
ATOM      6  C   UNL d   1     -46.735  12.256  23.274  0.00  0.00     0.159 A 
ATOM      7  C   UNL d   1     -49.614  12.193  23.389  0.00  0.00     0.076 A 
ATOM      8  C   UNL d   1     -47.506  13.434  22.984  0.00  0.00     0.038 A 
ATOM      9  C   UNL d   1     -49.640  12.990  23.176  0.00  0.00     0.088 A 
ATOM     10  C   UNL d   1     -46.761  13.053  23.061  0.00  0.00     0.033 A 
ATOM     11  O   UNL d   1     -48.854  11.014  23.680  0.00  0.00    -0.265 OA
ATOM     12 CL   UNL d   1     -46.030  11.878  23.352  0.00  0.00    -0.060 Cl
ATOM     13  C   UNL d   1     -50.311  11.785  23.522  0.00  0.00     0.006 A 
ATOM     14  C   UNL d   1     -47.532  14.231  22.771  0.00  0.00     0.003 A 
ATOM     15  C   UNL d   1     -46.082  13.465  22.927  0.00  0.00     0.003 A 
ATOM     16  C   UNL d   1     -50.362  13.372  23.098  0.00  0.00     0.019 A 
ATOM     17  C   UNL d   1     -51.039  12.162  23.446  0.00  0.00     0.000 A 
ATOM     18  C   UNL d   1     -46.813  14.646  22.635  0.00  0.00     0.000 A 
ATOM     19  C   UNL d   1     -46.107  14.262  22.714  0.00  0.00     0.000 A 
ATOM     20  C   UNL d   1     -51.064  12.959  23.232  0.00  0.00     0.002 A 
ENDROOT
TORSDOF 0
ENDMDL
MODEL 7
REMARK VINA RESULT:      -9.4      1.544      3.731
REMARK  0 active torsions:
REMARK  status: ('A' for Active; 'I' for Inactive)
ROOT
ATOM      1  N   UNL d   1     -48.618  12.825  23.260  0.00  0.00    -0.176 N 
ATOM      2  C   UNL d   1     -48.612  13.583  22.935  0.00  0.00     0.167 A 
ATOM      3  N   UNL d   1     -49.306  12.481  23.479  0.00  0.00    -0.150 NA
ATOM      4  C   UNL d   1     -47.885  12.419  23.358  0.00  0.00     0.283 A 
ATOM      5  N   UNL d   1     -47.874  13.929  22.709  0.00  0.00    -0.227 NA
ATOM      6  C   UNL d   1     -50.033  12.887  23.381  0.00  0.00     0.159 A 
ATOM      7  C   UNL d   1     -47.164  12.761  23.136  0.00  0.00     0.076 A 
ATOM      8  C   UNL d   1     -49.295  13.992  22.831  0.00  0.00     0.038 A 
ATOM      9  C   UNL d   1     -47.158  13.519  22.811  0.00  0.00     0.088 A 
ATOM     10  C   UNL d   1     -50.027  13.645  23.055  0.00  0.00     0.033 A 
ATOM     11  O   UNL d   1     -47.891  11.655  23.686  0.00  0.00    -0.265 OA
ATOM     12 CL   UNL d   1     -50.725  12.544  23.600  0.00  0.00    -0.060 Cl
ATOM     13  C   UNL d   1     -46.460  12.356  23.236  0.00  0.00     0.006 A 
ATOM     14  C   UNL d   1     -49.289  14.750  22.505  0.00  0.00     0.003 A 
ATOM     15  C   UNL d   1     -50.714  14.054  22.952  0.00  0.00     0.003 A 
ATOM     16  C   UNL d   1     -46.449  13.866  22.588  0.00  0.00     0.019 A 
ATOM     17  C   UNL d   1     -45.744  12.698  23.015  0.00  0.00     0.000 A 
ATOM     18  C   UNL d   1     -50.016  15.161  22.404  0.00  0.00     0.000 A 
ATOM     19  C   UNL d   1     -50.708  14.812  22.626  0.00  0.00     0.000 A 
ATOM     20  C   UNL d   1     -45.739  13.456  22.690  0.00  0.00     0.002 A 
ENDROOT
TORSDOF 0
ENDMDL
MODEL 8
REMARK VINA RESULT:      -8.9      1.774      3.746
REMARK  0 active torsions:
REMARK  status: ('A' for Active; 'I' for Inactive)
ROOT
ATOM      1  N   UNL d   1     -48.619  13.177  21.984  0.00  0.00    -0.176 N 
ATOM      2  C   UNL d   1     -48.658  13.891  22.394  0.00  0.00     0.167 A 
ATOM      3  N   UNL d   1     -49.272  12.869  21.639  0.00  0.00    -0.150 NA
ATOM      4  C   UNL d   1     -47.878  12.776  21.934  0.00  0.00     0.283 A 
ATOM      5  N   UNL d   1     -47.956  14.200  22.752  0.00  0.00    -0.227 NA
ATOM      6  C   UNL d   1     -50.006  13.270  21.691  0.00  0.00     0.159 A 
ATOM      7  C   UNL d   1     -47.193  13.081  22.285  0.00  0.00     0.076 A 
ATOM      8  C   UNL d   1     -49.349  14.293  22.457  0.00  0.00     0.038 A 
ATOM      9  C   UNL d   1     -47.231  13.796  22.696  0.00  0.00     0.088 A 
ATOM     10  C   UNL d   1     -50.045  13.984  22.101  0.00  0.00     0.033 A 
ATOM     11  O   UNL d   1     -47.839  12.056  21.520  0.00  0.00    -0.265 OA
ATOM     12 CL   UNL d   1     -50.664  12.963  21.345  0.00  0.00    -0.060 Cl
ATOM     13  C   UNL d   1     -46.480  12.682  22.229  0.00  0.00     0.006 A 
ATOM     14  C   UNL d   1     -49.388  15.008  22.868  0.00  0.00     0.003 A 
ATOM     15  C   UNL d   1     -50.741  14.387  22.163  0.00  0.00     0.003 A 
ATOM     16  C   UNL d   1     -46.558  14.106  23.047  0.00  0.00     0.019 A 
ATOM     17  C   UNL d   1     -45.800  12.988  22.579  0.00  0.00     0.000 A 
ATOM     18  C   UNL d   1     -50.123  15.414  22.922  0.00  0.00     0.000 A 
ATOM     19  C   UNL d   1     -50.780  15.101  22.574  0.00  0.00     0.000 A 
ATOM     20  C   UNL d   1     -45.839  13.703  22.990  0.00  0.00     0.002 A 
ENDROOT
TORSDOF 0
ENDMDL
MODEL 9
REMARK VINA RESULT:      -7.8      1.688      3.881
REMARK  0 active torsions:
REMARK  status: ('A' for Active; 'I' for Inactive)
ROOT
ATOM      1  N   UNL d   1     -46.603  12.598  23.035  0.00  0.00    -0.176 N 
ATOM      2  C   UNL d   1     -47.111  12.010  23.310  0.00  0.00     0.167 A 
ATOM      3  N   UNL d   1     -46.887  13.314  22.819  0.00  0.00    -0.150 NA
ATOM      4  C   UNL d   1     -45.777  12.432  22.984  0.00  0.00     0.283 A 
ATOM      5  N   UNL d   1     -46.791  11.259  23.533  0.00  0.00    -0.227 NA
ATOM      6  C   UNL d   1     -47.708  13.477  22.871  0.00  0.00     0.159 A 
ATOM      7  C   UNL d   1     -45.467  11.695  23.203  0.00  0.00     0.076 A 
ATOM      8  C   UNL d   1     -47.900  12.141  23.368  0.00  0.00     0.038 A 
ATOM      9  C   UNL d   1     -45.975  11.107  23.479  0.00  0.00     0.088 A 
ATOM     10  C   UNL d   1     -48.216  12.888  23.146  0.00  0.00     0.033 A 
ATOM     11  O   UNL d   1     -45.265  13.024  22.706  0.00  0.00    -0.265 OA
ATOM     12 CL   UNL d   1     -47.996  14.195  22.655  0.00  0.00    -0.060 Cl
ATOM     13  C   UNL d   1     -44.664  11.546  23.149  0.00  0.00     0.006 A 
ATOM     14  C   UNL d   1     -48.409  11.553  23.644  0.00  0.00     0.003 A 
ATOM     15  C   UNL d   1     -49.009  13.023  23.204  0.00  0.00     0.003 A 
ATOM     16  C   UNL d   1     -45.677  10.374  23.698  0.00  0.00     0.019 A 
ATOM     17  C   UNL d   1     -44.358  10.813  23.367  0.00  0.00     0.000 A 
ATOM     18  C   UNL d   1     -49.233  11.712  23.697  0.00  0.00     0.000 A 
ATOM     19  C   UNL d   1     -49.518  12.435  23.479  0.00  0.00     0.000 A 
ATOM     20  C   UNL d   1     -44.867  10.225  23.643  0.00  0.00     0.002 A 
ENDROOT
TORSDOF 0
ENDMDL
