MODEL 1
REMARK VINA RESULT:      -7.4      0.000      0.000
REMARK  2 active torsions:
REMARK  status: ('A' for Active; 'I' for Inactive)
REMARK    1  A    between atoms: C_4  and  C_3 
REMARK    2  A    between atoms: S_11  and  C_6 
ROOT
ATOM      1  N   UNL d   1      52.507  32.117  52.652  0.00  0.00    -0.146 NA
ATOM      2  N   UNL d   1      52.692  31.311  52.668  0.00  0.00    -0.142 NA
ATOM      3  C   UNL d   1      52.869  32.630  53.184  0.00  0.00     0.126 A 
ATOM      4  C   UNL d   1      53.237  31.023  53.216  0.00  0.00     0.128 A 
ATOM      5  C   UNL d   1      53.415  32.342  53.731  0.00  0.00     0.025 A 
ATOM      6  C   UNL d   1      53.598  31.540  53.747  0.00  0.00     0.029 A 
ENDROOT
BRANCH   3   7
ATOM      7  C   UNL d   1      52.692  33.429  53.174  0.00  0.00     0.119 A 
ATOM      8  O   UNL d   1      53.191  34.037  53.418  0.00  0.00    -0.304 OA
ATOM      9  C   UNL d   1      52.800  34.759  53.318  0.00  0.00     0.123 A 
ATOM     10  C   UNL d   1      52.047  34.596  53.007  0.00  0.00     0.029 A 
ATOM     11  C   UNL d   1      51.983  33.775  52.920  0.00  0.00     0.028 A 
ENDBRANCH   3   7
BRANCH   4  12
ATOM     12  S   UNL d   1      53.422  30.217  53.232  0.00  0.00    -0.092 SA
ATOM     13  C   UNL d   1      52.896  29.679  53.571  0.00  0.00     0.076 C 
ENDBRANCH   4  12
TORSDOF 2
ENDMDL
MODEL 2
REMARK VINA RESULT:      -7.2      1.848      3.248
REMARK  2 active torsions:
REMARK  status: ('A' for Active; 'I' for Inactive)
REMARK    1  A    between atoms: C_4  and  C_3 
REMARK    2  A    between atoms: S_11  and  C_6 
ROOT
ATOM      1  N   UNL d   1      52.583  32.801  53.603  0.00  0.00    -0.146 NA
ATOM      2  N   UNL d   1      52.633  33.572  53.899  0.00  0.00    -0.142 NA
ATOM      3  C   UNL d   1      53.217  32.285  53.696  0.00  0.00     0.126 A 
ATOM      4  C   UNL d   1      53.318  33.822  54.286  0.00  0.00     0.128 A 
ATOM      5  C   UNL d   1      53.902  32.535  54.082  0.00  0.00     0.025 A 
ATOM      6  C   UNL d   1      53.952  33.302  54.377  0.00  0.00     0.029 A 
ENDROOT
BRANCH   3   7
ATOM      7  C   UNL d   1      53.174  31.521  53.406  0.00  0.00     0.119 A 
ATOM      8  O   UNL d   1      52.808  31.291  52.705  0.00  0.00    -0.304 OA
ATOM      9  C   UNL d   1      52.890  30.473  52.617  0.00  0.00     0.123 A 
ATOM     10  C   UNL d   1      53.315  30.191  53.273  0.00  0.00     0.029 A 
ATOM     11  C   UNL d   1      53.488  30.840  53.757  0.00  0.00     0.028 A 
ENDBRANCH   3   7
BRANCH   4  12
ATOM     12  S   UNL d   1      53.369  34.593  54.582  0.00  0.00    -0.092 SA
ATOM     13  C   UNL d   1      52.985  35.210  54.192  0.00  0.00     0.076 C 
ENDBRANCH   4  12
TORSDOF 2
ENDMDL
MODEL 3
REMARK VINA RESULT:      -7.1      2.091      2.532
REMARK  2 active torsions:
REMARK  status: ('A' for Active; 'I' for Inactive)
REMARK    1  A    between atoms: C_4  and  C_3 
REMARK    2  A    between atoms: S_11  and  C_6 
ROOT
ATOM      1  N   UNL d   1      52.743  34.189  54.372  0.00  0.00    -0.146 NA
ATOM      2  N   UNL d   1      53.420  34.038  54.821  0.00  0.00    -0.142 NA
ATOM      3  C   UNL d   1      52.517  33.660  53.783  0.00  0.00     0.126 A 
ATOM      4  C   UNL d   1      53.868  33.360  54.680  0.00  0.00     0.128 A 
ATOM      5  C   UNL d   1      52.965  32.982  53.641  0.00  0.00     0.025 A 
ATOM      6  C   UNL d   1      53.639  32.833  54.088  0.00  0.00     0.029 A 
ENDROOT
BRANCH   3   7
ATOM      7  C   UNL d   1      51.848  33.802  53.333  0.00  0.00     0.119 A 
ATOM      8  O   UNL d   1      51.095  33.506  53.484  0.00  0.00    -0.304 OA
ATOM      9  C   UNL d   1      50.578  33.781  52.899  0.00  0.00     0.123 A 
ATOM     10  C   UNL d   1      51.019  34.256  52.378  0.00  0.00     0.029 A 
ATOM     11  C   UNL d   1      51.801  34.266  52.649  0.00  0.00     0.028 A 
ENDBRANCH   3   7
BRANCH   4  12
ATOM     12  S   UNL d   1      54.546  33.210  55.129  0.00  0.00    -0.092 SA
ATOM     13  C   UNL d   1      55.175  33.744  55.120  0.00  0.00     0.076 C 
ENDBRANCH   4  12
TORSDOF 2
ENDMDL
MODEL 4
REMARK VINA RESULT:      -7.1      2.130      3.061
REMARK  2 active torsions:
REMARK  status: ('A' for Active; 'I' for Inactive)
REMARK    1  A    between atoms: C_4  and  C_3 
REMARK    2  A    between atoms: S_11  and  C_6 
ROOT
ATOM      1  N   UNL d   1      52.316  33.086  53.681  0.00  0.00    -0.146 NA
ATOM      2  N   UNL d   1      51.639  33.242  53.233  0.00  0.00    -0.142 NA
ATOM      3  C   UNL d   1      52.889  33.670  53.773  0.00  0.00     0.126 A 
ATOM      4  C   UNL d   1      51.538  33.981  52.880  0.00  0.00     0.128 A 
ATOM      5  C   UNL d   1      52.789  34.409  53.420  0.00  0.00     0.025 A 
ATOM      6  C   UNL d   1      52.114  34.564  52.974  0.00  0.00     0.029 A 
ENDROOT
BRANCH   3   7
ATOM      7  C   UNL d   1      53.562  33.523  54.216  0.00  0.00     0.119 A 
ATOM      8  O   UNL d   1      53.665  33.707  55.011  0.00  0.00    -0.304 OA
ATOM      9  C   UNL d   1      54.422  33.466  55.244  0.00  0.00     0.123 A 
ATOM     10  C   UNL d   1      54.794  33.129  54.582  0.00  0.00     0.029 A 
ATOM     11  C   UNL d   1      54.260  33.165  53.950  0.00  0.00     0.028 A 
ENDBRANCH   3   7
BRANCH   4  12
ATOM     12  S   UNL d   1      50.861  34.137  52.432  0.00  0.00    -0.092 SA
ATOM     13  C   UNL d   1      50.188  34.446  52.794  0.00  0.00     0.076 C 
ENDBRANCH   4  12
TORSDOF 2
ENDMDL
MODEL 5
REMARK VINA RESULT:      -4.7     10.011     10.603
REMARK  2 active torsions:
REMARK  status: ('A' for Active; 'I' for Inactive)
REMARK    1  A    between atoms: C_4  and  C_3 
REMARK    2  A    between atoms: S_11  and  C_6 
ROOT
ATOM      1  N   UNL d   1      45.464  29.664  58.548  0.00  0.00    -0.146 NA
ATOM      2  N   UNL d   1      45.323  30.254  59.110  0.00  0.00    -0.142 NA
ATOM      3  C   UNL d   1      45.077  28.940  58.610  0.00  0.00     0.126 A 
ATOM      4  C   UNL d   1      44.796  30.117  59.730  0.00  0.00     0.128 A 
ATOM      5  C   UNL d   1      44.551  28.803  59.230  0.00  0.00     0.025 A 
ATOM      6  C   UNL d   1      44.410  29.391  59.789  0.00  0.00     0.029 A 
ENDROOT
BRANCH   3   7
ATOM      7  C   UNL d   1      45.212  28.350  58.058  0.00  0.00     0.119 A 
ATOM      8  O   UNL d   1      45.580  27.628  58.204  0.00  0.00    -0.304 OA
ATOM      9  C   UNL d   1      45.605  27.195  57.499  0.00  0.00     0.123 A 
ATOM     10  C   UNL d   1      45.247  27.656  56.908  0.00  0.00     0.029 A 
ATOM     11  C   UNL d   1      45.006  28.368  57.256  0.00  0.00     0.028 A 
ENDBRANCH   3   7
BRANCH   4  12
ATOM     12  S   UNL d   1      44.655  30.708  60.292  0.00  0.00    -0.092 SA
ATOM     13  C   UNL d   1      44.861  30.585  61.081  0.00  0.00     0.076 C 
ENDBRANCH   4  12
TORSDOF 2
ENDMDL
