MODEL 1
REMARK VINA RESULT:       6.9      0.000      0.000
REMARK  1 active torsions:
REMARK  status: ('A' for Active; 'I' for Inactive)
REMARK    1  A    between atoms: C_4  and  C_1 
ROOT
ATOM      1  C   UNL d   1     -51.808  25.358  33.310  0.00  0.00     0.024 A 
ATOM      2  C   UNL d   1     -52.162  26.104  33.306  0.00  0.00     0.002 A 
ATOM      3  C   UNL d   1     -50.989  25.286  33.314  0.00  0.00     0.002 A 
ATOM      4  C   UNL d   1     -51.697  26.776  33.307  0.00  0.00     0.000 A 
ATOM      5  C   UNL d   1     -50.517  25.963  33.316  0.00  0.00     0.000 A 
ATOM      6  C   UNL d   1     -50.876  26.706  33.312  0.00  0.00     0.000 A 
ATOM      7  C   UNL d   1     -50.406  27.391  33.313  0.00  0.00     0.000 C 
ENDROOT
BRANCH   1   8
ATOM      8  C   UNL d   1     -52.281  24.681  33.308  0.00  0.00     0.111 A 
ATOM      9  N   UNL d   1     -53.103  24.751  33.308  0.00  0.00    -0.237 NA
ATOM     10  C   UNL d   1     -53.224  23.326  33.306  0.00  0.00     0.106 A 
ATOM     11  C   UNL d   1     -52.402  23.256  33.306  0.00  0.00     0.058 A 
ATOM     12  S   UNL d   1     -51.930  23.934  33.308  0.00  0.00    -0.066 SA
ENDBRANCH   1   8
TORSDOF 1
ENDMDL
MODEL 2
REMARK VINA RESULT:       7.1      1.235      3.043
REMARK  1 active torsions:
REMARK  status: ('A' for Active; 'I' for Inactive)
REMARK    1  A    between atoms: C_4  and  C_1 
ROOT
ATOM      1  C   UNL d   1     -51.736  25.074  33.329  0.00  0.00     0.024 A 
ATOM      2  C   UNL d   1     -52.547  25.221  33.353  0.00  0.00     0.002 A 
ATOM      3  C   UNL d   1     -51.454  24.302  33.308  0.00  0.00     0.002 A 
ATOM      4  C   UNL d   1     -53.076  24.598  33.355  0.00  0.00     0.000 A 
ATOM      5  C   UNL d   1     -51.985  23.670  33.311  0.00  0.00     0.000 A 
ATOM      6  C   UNL d   1     -52.796  23.823  33.334  0.00  0.00     0.000 A 
ATOM      7  C   UNL d   1     -53.335  23.192  33.337  0.00  0.00     0.000 C 
ENDROOT
BRANCH   1   8
ATOM      8  C   UNL d   1     -51.205  25.706  33.327  0.00  0.00     0.111 A 
ATOM      9  N   UNL d   1     -50.392  25.562  33.342  0.00  0.00    -0.237 NA
ATOM     10  C   UNL d   1     -50.143  26.970  33.322  0.00  0.00     0.106 A 
ATOM     11  C   UNL d   1     -50.955  27.114  33.307  0.00  0.00     0.058 A 
ATOM     12  S   UNL d   1     -51.487  26.482  33.309  0.00  0.00    -0.066 SA
ENDBRANCH   1   8
TORSDOF 1
ENDMDL
