MODEL 1
REMARK VINA RESULT:      -5.8      0.000      0.000
REMARK  5 active torsions:
REMARK  status: ('A' for Active; 'I' for Inactive)
REMARK    1  A    between atoms: N_7  and  C_1 
REMARK    2  A    between atoms: S_6  and  C_2 
REMARK    3  A    between atoms: C_3  and  S_6 
REMARK    4  A    between atoms: C_13  and  N_5 
REMARK    5  A    between atoms: C_18  and  C_13 
ROOT
ATOM      1  C   UNL d   1     -48.389  11.940  22.548  0.00  0.00     0.232 A 
ATOM      2  C   UNL d   1     -47.961  12.633  22.470  0.00  0.00     0.139 A 
ATOM      3  N   UNL d   1     -47.955  11.410  23.013  0.00  0.00    -0.204 NA
ATOM      4  N   UNL d   1     -47.255  12.543  22.886  0.00  0.00    -0.282 N 
ATOM      5  C   UNL d   1     -47.246  11.790  23.223  0.00  0.00     0.150 A 
ATOM      6  C   UNL d   1     -46.648  11.467  23.683  0.00  0.00     0.041 C 
ENDROOT
BRANCH   2   7
ATOM      7  S   UNL d   1     -48.192  13.303  22.052  0.00  0.00    -0.029 SA
BRANCH   7   8
ATOM      8  C   UNL d   1     -48.838  13.748  22.306  0.00  0.00     0.181 A 
ATOM      9  N   UNL d   1     -49.099  13.823  23.090  0.00  0.00    -0.221 NA
ATOM     10  C   UNL d   1     -49.755  14.313  23.094  0.00  0.00     0.100 A 
ATOM     11  C   UNL d   1     -50.247  14.589  23.698  0.00  0.00     0.021 A 
ATOM     12  C   UNL d   1     -49.910  14.548  22.318  0.00  0.00     0.084 A 
ATOM     13  C   UNL d   1     -50.871  15.081  23.534  0.00  0.00     0.002 A 
ATOM     14  C   UNL d   1     -51.020  15.312  22.755  0.00  0.00     0.002 A 
ATOM     15  C   UNL d   1     -50.543  15.049  22.142  0.00  0.00     0.019 A 
ATOM     16  N   UNL d   1     -49.339  14.196  21.831  0.00  0.00    -0.282 N 
ATOM     17  C   UNL d   1     -49.284  14.281  21.012  0.00  0.00     0.101 C 
ENDBRANCH   7   8
ENDBRANCH   2   7
BRANCH   1  18
ATOM     18  N   UNL d   1     -48.911  11.295  22.554  0.00  0.00    -0.093 N 
ATOM     19  O   UNL d   1     -49.185  10.979  21.841  0.00  0.00    -0.530 OA
ATOM     20  O   UNL d   1     -49.161  10.966  23.267  0.00  0.00    -0.530 OA
ENDBRANCH   1  18
BRANCH   4  21
ATOM     21  C   UNL d   1     -46.656  13.112  22.954  0.00  0.00     0.082 C 
BRANCH  21  22
ATOM     22  C   UNL d   1     -45.952  13.008  22.539  0.00  0.00     0.018 A 
ATOM     23  C   UNL d   1     -45.478  12.340  22.669  0.00  0.00     0.002 A 
ATOM     24  C   UNL d   1     -44.780  12.239  22.255  0.00  0.00     0.000 A 
ATOM     25  C   UNL d   1     -44.547  12.812  21.702  0.00  0.00     0.000 A 
ATOM     26  C   UNL d   1     -45.012  13.474  21.570  0.00  0.00     0.000 A 
ATOM     27  C   UNL d   1     -45.717  13.574  21.989  0.00  0.00     0.002 A 
ENDBRANCH  21  22
ENDBRANCH   4  21
TORSDOF 5
ENDMDL
MODEL 2
REMARK VINA RESULT:      -5.0      0.863      4.166
REMARK  5 active torsions:
REMARK  status: ('A' for Active; 'I' for Inactive)
REMARK    1  A    between atoms: N_7  and  C_1 
REMARK    2  A    between atoms: S_6  and  C_2 
REMARK    3  A    between atoms: C_3  and  S_6 
REMARK    4  A    between atoms: C_13  and  N_5 
REMARK    5  A    between atoms: C_18  and  C_13 
ROOT
ATOM      1  C   UNL d   1     -48.481  12.061  22.741  0.00  0.00     0.232 A 
ATOM      2  C   UNL d   1     -48.445  12.871  22.624  0.00  0.00     0.139 A 
ATOM      3  N   UNL d   1     -49.193  11.779  22.423  0.00  0.00    -0.204 NA
ATOM      4  N   UNL d   1     -49.133  13.102  22.234  0.00  0.00    -0.282 N 
ATOM      5  C   UNL d   1     -49.598  12.432  22.107  0.00  0.00     0.150 A 
ATOM      6  C   UNL d   1     -50.330  12.408  21.737  0.00  0.00     0.041 C 
ENDROOT
BRANCH   2   7
ATOM      7  S   UNL d   1     -47.832  13.368  22.856  0.00  0.00    -0.029 SA
BRANCH   7   8
ATOM      8  C   UNL d   1     -47.072  13.257  22.554  0.00  0.00     0.181 A 
ATOM      9  N   UNL d   1     -46.885  12.919  21.821  0.00  0.00    -0.221 NA
ATOM     10  C   UNL d   1     -46.070  12.915  21.742  0.00  0.00     0.100 A 
ATOM     11  C   UNL d   1     -45.563  12.654  21.144  0.00  0.00     0.021 A 
ATOM     12  C   UNL d   1     -45.741  13.250  22.421  0.00  0.00     0.084 A 
ATOM     13  C   UNL d   1     -44.758  12.723  21.220  0.00  0.00     0.002 A 
ATOM     14  C   UNL d   1     -44.437  13.059  21.903  0.00  0.00     0.002 A 
ATOM     15  C   UNL d   1     -44.922  13.325  22.508  0.00  0.00     0.019 A 
ATOM     16  N   UNL d   1     -46.366  13.461  22.923  0.00  0.00    -0.282 N 
ATOM     17  C   UNL d   1     -46.291  13.815  23.666  0.00  0.00     0.101 C 
ENDBRANCH   7   8
ENDBRANCH   2   7
BRANCH   1  18
ATOM     18  N   UNL d   1     -48.404  11.253  22.915  0.00  0.00    -0.093 N 
ATOM     19  O   UNL d   1     -48.265  10.712  22.306  0.00  0.00    -0.530 OA
ATOM     20  O   UNL d   1     -48.465  10.986  23.692  0.00  0.00    -0.530 OA
ENDBRANCH   1  18
BRANCH   4  21
ATOM     21  C   UNL d   1     -49.326  13.875  22.007  0.00  0.00     0.082 C 
BRANCH  21  22
ATOM     22  C   UNL d   1     -49.814  14.328  22.491  0.00  0.00     0.018 A 
ATOM     23  C   UNL d   1     -50.087  14.029  23.215  0.00  0.00     0.002 A 
ATOM     24  C   UNL d   1     -50.572  14.481  23.694  0.00  0.00     0.000 A 
ATOM     25  C   UNL d   1     -50.790  15.243  23.451  0.00  0.00     0.000 A 
ATOM     26  C   UNL d   1     -50.523  15.543  22.737  0.00  0.00     0.000 A 
ATOM     27  C   UNL d   1     -50.034  15.086  22.254  0.00  0.00     0.002 A 
ENDBRANCH  21  22
ENDBRANCH   4  21
TORSDOF 5
ENDMDL
MODEL 3
REMARK VINA RESULT:      -4.2      1.947      2.422
REMARK  5 active torsions:
REMARK  status: ('A' for Active; 'I' for Inactive)
REMARK    1  A    between atoms: N_7  and  C_1 
REMARK    2  A    between atoms: S_6  and  C_2 
REMARK    3  A    between atoms: C_3  and  S_6 
REMARK    4  A    between atoms: C_13  and  N_5 
REMARK    5  A    between atoms: C_18  and  C_13 
ROOT
ATOM      1  C   UNL d   1     -47.591  14.291  22.492  0.00  0.00     0.232 A 
ATOM      2  C   UNL d   1     -47.366  13.513  22.370  0.00  0.00     0.139 A 
ATOM      3  N   UNL d   1     -46.998  14.673  22.926  0.00  0.00    -0.204 NA
ATOM      4  N   UNL d   1     -46.632  13.402  22.727  0.00  0.00    -0.282 N 
ATOM      5  C   UNL d   1     -46.400  14.115  23.071  0.00  0.00     0.150 A 
ATOM      6  C   UNL d   1     -45.705  14.254  23.485  0.00  0.00     0.041 C 
ENDROOT
BRANCH   2   7
ATOM      7  S   UNL d   1     -47.796  12.941  21.963  0.00  0.00    -0.029 SA
BRANCH   7   8
ATOM      8  C   UNL d   1     -48.523  12.683  22.257  0.00  0.00     0.181 A 
ATOM      9  N   UNL d   1     -48.667  12.407  23.025  0.00  0.00    -0.221 NA
ATOM     10  C   UNL d   1     -49.459  12.209  23.081  0.00  0.00     0.100 A 
ATOM     11  C   UNL d   1     -49.923  11.909  23.696  0.00  0.00     0.021 A 
ATOM     12  C   UNL d   1     -49.817  12.358  22.351  0.00  0.00     0.084 A 
ATOM     13  C   UNL d   1     -50.714  11.763  23.588  0.00  0.00     0.002 A 
ATOM     14  C   UNL d   1     -51.064  11.915  22.855  0.00  0.00     0.002 A 
ATOM     15  C   UNL d   1     -50.622  12.213  22.232  0.00  0.00     0.019 A 
ATOM     16  N   UNL d   1     -49.233  12.652  21.842  0.00  0.00    -0.282 N 
ATOM     17  C   UNL d   1     -49.346  12.875  21.055  0.00  0.00     0.101 C 
ENDBRANCH   7   8
ENDBRANCH   2   7
BRANCH   1  18
ATOM     18  N   UNL d   1     -47.923  15.049  22.550  0.00  0.00    -0.093 N 
ATOM     19  O   UNL d   1     -47.765  15.614  21.969  0.00  0.00    -0.530 OA
ATOM     20  O   UNL d   1     -48.412  15.243  23.185  0.00  0.00    -0.530 OA
ENDBRANCH   1  18
BRANCH   4  21
ATOM     21  C   UNL d   1     -46.200  12.695  22.737  0.00  0.00     0.082 C 
BRANCH  21  22
ATOM     22  C   UNL d   1     -45.459  12.669  22.377  0.00  0.00     0.018 A 
ATOM     23  C   UNL d   1     -45.279  13.172  21.743  0.00  0.00     0.002 A 
ATOM     24  C   UNL d   1     -44.543  13.145  21.387  0.00  0.00     0.000 A 
ATOM     25  C   UNL d   1     -43.974  12.609  21.667  0.00  0.00     0.000 A 
ATOM     26  C   UNL d   1     -44.147  12.110  22.294  0.00  0.00     0.000 A 
ATOM     27  C   UNL d   1     -44.891  12.139  22.651  0.00  0.00     0.002 A 
ENDBRANCH  21  22
ENDBRANCH   4  21
TORSDOF 5
ENDMDL
