MODEL 1
REMARK VINA RESULT:      -8.4      0.000      0.000
REMARK  3 active torsions:
REMARK  status: ('A' for Active; 'I' for Inactive)
REMARK    1  A    between atoms: C_17  and  N_4 
REMARK    2  A    between atoms: C_11  and  C_5 
REMARK       I    between atoms: N_13  and  C_11 
REMARK    3  A    between atoms: C_21  and  N_13 
ROOT
ATOM      1  C   UNL d   1     -48.435  13.159  22.988  0.00  0.00     0.155 A 
ATOM      2  C   UNL d   1     -48.027  12.453  23.101  0.00  0.00     0.091 A 
ATOM      3  N   UNL d   1     -49.256  13.170  23.083  0.00  0.00    -0.210 NA
ATOM      4  N   UNL d   1     -48.032  13.830  22.787  0.00  0.00    -0.275 N 
ATOM      5  C   UNL d   1     -46.809  13.118  22.805  0.00  0.00     0.094 A 
ATOM      6  C   UNL d   1     -47.214  13.820  22.693  0.00  0.00     0.175 A 
ATOM      7  N   UNL d   1     -49.257  11.777  23.401  0.00  0.00    -0.258 N 
ATOM      8  C   UNL d   1     -49.670  12.493  23.287  0.00  0.00     0.152 A 
ATOM      9  C   UNL d   1     -48.438  11.753  23.310  0.00  0.00     0.269 A 
ATOM     10  C   UNL d   1     -47.208  12.431  23.009  0.00  0.00     0.016 A 
ATOM     11  C   UNL d   1     -50.478  12.511  23.378  0.00  0.00     0.035 A 
ATOM     12  N   UNL d   1     -46.805  14.506  22.487  0.00  0.00    -0.128 N 
ATOM     13  C   UNL d   1     -49.660  11.095  23.605  0.00  0.00     0.084 A 
ATOM     14  O   UNL d   1     -48.023  11.057  23.420  0.00  0.00    -0.266 OA
ATOM     15  C   UNL d   1     -50.480  11.118  23.697  0.00  0.00     0.019 A 
ATOM     16  C   UNL d   1     -50.893  11.834  23.582  0.00  0.00     0.005 A 
ATOM     17  C   UNL d   1     -50.887  13.219  23.265  0.00  0.00     0.003 C 
ENDROOT
BRANCH   5  18
ATOM     18  C   UNL d   1     -45.992  13.099  22.712  0.00  0.00     0.282 C 
ATOM     19  N   UNL d   1     -45.650  12.717  22.060  0.00  0.00    -0.208 NA
ATOM     20  O   UNL d   1     -45.499  13.466  23.280  0.00  0.00    -0.265 OA
BRANCH  19  21
ATOM     21  C   UNL d   1     -44.830  12.703  21.976  0.00  0.00     0.085 A 
ATOM     22  C   UNL d   1     -44.329  12.151  22.317  0.00  0.00     0.019 A 
ATOM     23  C   UNL d   1     -43.556  12.350  22.085  0.00  0.00     0.002 A 
ATOM     24  C   UNL d   1     -43.594  13.021  21.606  0.00  0.00     0.002 A 
ATOM     25  C   UNL d   1     -44.375  13.239  21.538  0.00  0.00     0.019 A 
ENDBRANCH  19  21
ENDBRANCH   5  18
BRANCH   4  26
ATOM     26  C   UNL d   1     -48.441  14.538  22.674  0.00  0.00     0.067 A 
ATOM     27  C   UNL d   1     -48.737  14.810  21.952  0.00  0.00     0.018 A 
ATOM     28  C   UNL d   1     -49.101  15.531  22.093  0.00  0.00     0.002 A 
ATOM     29  C   UNL d   1     -49.037  15.717  22.904  0.00  0.00     0.002 A 
ATOM     30  C   UNL d   1     -48.626  15.095  23.256  0.00  0.00     0.018 A 
ENDBRANCH   4  26
TORSDOF 3
ENDMDL
MODEL 2
REMARK VINA RESULT:      -7.8      1.022      2.587
REMARK  3 active torsions:
REMARK  status: ('A' for Active; 'I' for Inactive)
REMARK    1  A    between atoms: C_17  and  N_4 
REMARK    2  A    between atoms: C_11  and  C_5 
REMARK       I    between atoms: N_13  and  C_11 
REMARK    3  A    between atoms: C_21  and  N_13 
ROOT
ATOM      1  C   UNL d   1     -48.299  13.450  22.888  0.00  0.00     0.155 A 
ATOM      2  C   UNL d   1     -47.776  14.080  22.799  0.00  0.00     0.091 A 
ATOM      3  N   UNL d   1     -49.108  13.604  22.966  0.00  0.00    -0.210 NA
ATOM      4  N   UNL d   1     -48.019  12.692  22.899  0.00  0.00    -0.275 N 
ATOM      5  C   UNL d   1     -46.695  13.164  22.733  0.00  0.00     0.094 A 
ATOM      6  C   UNL d   1     -47.214  12.538  22.821  0.00  0.00     0.175 A 
ATOM      7  N   UNL d   1     -48.868  15.009  22.866  0.00  0.00    -0.258 N 
ATOM      8  C   UNL d   1     -49.397  14.371  22.957  0.00  0.00     0.152 A 
ATOM      9  C   UNL d   1     -48.060  14.869  22.788  0.00  0.00     0.269 A 
ATOM     10  C   UNL d   1     -46.968  13.937  22.721  0.00  0.00     0.016 A 
ATOM     11  C   UNL d   1     -50.194  14.515  23.034  0.00  0.00     0.035 A 
ATOM     12  N   UNL d   1     -46.930  11.763  22.832  0.00  0.00    -0.128 N 
ATOM     13  C   UNL d   1     -49.146  15.779  22.855  0.00  0.00     0.084 A 
ATOM     14  O   UNL d   1     -47.532  15.488  22.699  0.00  0.00    -0.266 OA
ATOM     15  C   UNL d   1     -49.955  15.920  22.934  0.00  0.00     0.019 A 
ATOM     16  C   UNL d   1     -50.485  15.282  23.024  0.00  0.00     0.005 A 
ATOM     17  C   UNL d   1     -50.718  13.883  23.123  0.00  0.00     0.003 C 
ENDROOT
BRANCH   5  18
ATOM     18  C   UNL d   1     -45.889  13.019  22.655  0.00  0.00     0.282 C 
ATOM     19  N   UNL d   1     -45.528  13.036  21.909  0.00  0.00    -0.208 NA
ATOM     20  O   UNL d   1     -45.428  12.853  23.332  0.00  0.00    -0.265 OA
BRANCH  19  21
ATOM     21  C   UNL d   1     -44.719  12.889  21.840  0.00  0.00     0.085 A 
ATOM     22  C   UNL d   1     -44.181  13.374  21.456  0.00  0.00     0.019 A 
ATOM     23  C   UNL d   1     -43.437  13.012  21.526  0.00  0.00     0.002 A 
ATOM     24  C   UNL d   1     -43.529  12.310  21.952  0.00  0.00     0.002 A 
ATOM     25  C   UNL d   1     -44.315  12.234  22.146  0.00  0.00     0.019 A 
ENDBRANCH  19  21
ENDBRANCH   5  18
BRANCH   4  26
ATOM     26  C   UNL d   1     -48.543  12.061  22.988  0.00  0.00     0.067 A 
ATOM     27  C   UNL d   1     -48.959  11.694  22.376  0.00  0.00     0.018 A 
ATOM     28  C   UNL d   1     -49.411  11.097  22.711  0.00  0.00     0.002 A 
ATOM     29  C   UNL d   1     -49.282  11.085  23.535  0.00  0.00     0.002 A 
ATOM     30  C   UNL d   1     -48.742  11.686  23.698  0.00  0.00     0.018 A 
ENDBRANCH   4  26
TORSDOF 3
ENDMDL
MODEL 3
REMARK VINA RESULT:      -7.8      1.131      1.503
REMARK  3 active torsions:
REMARK  status: ('A' for Active; 'I' for Inactive)
REMARK    1  A    between atoms: C_17  and  N_4 
REMARK    2  A    between atoms: C_11  and  C_5 
REMARK       I    between atoms: N_13  and  C_11 
REMARK    3  A    between atoms: C_21  and  N_13 
ROOT
ATOM      1  C   UNL d   1     -48.220  12.941  22.937  0.00  0.00     0.155 A 
ATOM      2  C   UNL d   1     -48.150  12.176  23.231  0.00  0.00     0.091 A 
ATOM      3  N   UNL d   1     -48.973  13.260  22.815  0.00  0.00    -0.210 NA
ATOM      4  N   UNL d   1     -47.556  13.372  22.770  0.00  0.00    -0.275 N 
ATOM      5  C   UNL d   1     -46.737  12.294  23.183  0.00  0.00     0.094 A 
ATOM      6  C   UNL d   1     -46.806  13.055  22.891  0.00  0.00     0.175 A 
ATOM      7  N   UNL d   1     -49.579  12.053  23.280  0.00  0.00    -0.258 N 
ATOM      8  C   UNL d   1     -49.650  12.829  22.982  0.00  0.00     0.152 A 
ATOM      9  C   UNL d   1     -48.834  11.724  23.406  0.00  0.00     0.269 A 
ATOM     10  C   UNL d   1     -47.404  11.848  23.356  0.00  0.00     0.016 A 
ATOM     11  C   UNL d   1     -50.387  13.149  22.860  0.00  0.00     0.035 A 
ATOM     12  N   UNL d   1     -46.130  13.496  22.720  0.00  0.00    -0.128 N 
ATOM     13  C   UNL d   1     -50.248  11.613  23.451  0.00  0.00     0.084 A 
ATOM     14  O   UNL d   1     -48.754  10.964  23.698  0.00  0.00    -0.266 OA
ATOM     15  C   UNL d   1     -50.994  11.942  23.325  0.00  0.00     0.019 A 
ATOM     16  C   UNL d   1     -51.064  12.718  23.027  0.00  0.00     0.005 A 
ATOM     17  C   UNL d   1     -50.457  13.917  22.565  0.00  0.00     0.003 C 
ENDROOT
BRANCH   5  18
ATOM     18  C   UNL d   1     -45.991  11.970  23.307  0.00  0.00     0.282 C 
ATOM     19  N   UNL d   1     -45.847  11.170  23.144  0.00  0.00    -0.208 NA
ATOM     20  O   UNL d   1     -45.371  12.449  23.598  0.00  0.00    -0.265 OA
BRANCH  19  21
ATOM     21  C   UNL d   1     -45.096  10.853  23.272  0.00  0.00     0.085 A 
ATOM     22  C   UNL d   1     -44.393  11.187  23.014  0.00  0.00     0.019 A 
ATOM     23  C   UNL d   1     -43.781  10.684  23.264  0.00  0.00     0.002 A 
ATOM     24  C   UNL d   1     -44.117  10.049  23.672  0.00  0.00     0.002 A 
ATOM     25  C   UNL d   1     -44.924  10.153  23.677  0.00  0.00     0.019 A 
ENDBRANCH  19  21
ENDBRANCH   5  18
BRANCH   4  26
ATOM     26  C   UNL d   1     -47.626  14.139  22.475  0.00  0.00     0.067 A 
ATOM     27  C   UNL d   1     -47.662  14.826  22.932  0.00  0.00     0.018 A 
ATOM     28  C   UNL d   1     -47.730  15.461  22.416  0.00  0.00     0.002 A 
ATOM     29  C   UNL d   1     -47.736  15.176  21.632  0.00  0.00     0.002 A 
ATOM     30  C   UNL d   1     -47.672  14.356  21.679  0.00  0.00     0.018 A 
ENDBRANCH   4  26
TORSDOF 3
ENDMDL
MODEL 4
REMARK VINA RESULT:      -7.3      1.318      3.055
REMARK  3 active torsions:
REMARK  status: ('A' for Active; 'I' for Inactive)
REMARK    1  A    between atoms: C_17  and  N_4 
REMARK    2  A    between atoms: C_11  and  C_5 
REMARK       I    between atoms: N_13  and  C_11 
REMARK    3  A    between atoms: C_21  and  N_13 
ROOT
ATOM      1  C   UNL d   1     -47.792  12.971  22.985  0.00  0.00     0.155 A 
ATOM      2  C   UNL d   1     -47.004  13.208  22.997  0.00  0.00     0.091 A 
ATOM      3  N   UNL d   1     -48.381  13.536  22.851  0.00  0.00    -0.210 NA
ATOM      4  N   UNL d   1     -47.982  12.195  23.104  0.00  0.00    -0.275 N 
ATOM      5  C   UNL d   1     -46.613  11.868  23.248  0.00  0.00     0.094 A 
ATOM      6  C   UNL d   1     -47.396  11.632  23.237  0.00  0.00     0.175 A 
ATOM      7  N   UNL d   1     -47.396  14.565  22.742  0.00  0.00    -0.258 N 
ATOM      8  C   UNL d   1     -48.195  14.325  22.730  0.00  0.00     0.152 A 
ATOM      9  C   UNL d   1     -46.800  14.012  22.874  0.00  0.00     0.269 A 
ATOM     10  C   UNL d   1     -46.409  12.653  23.129  0.00  0.00     0.016 A 
ATOM     11  C   UNL d   1     -48.780  14.874  22.599  0.00  0.00     0.035 A 
ATOM     12  N   UNL d   1     -47.592  10.839  23.358  0.00  0.00    -0.128 N 
ATOM     13  C   UNL d   1     -47.198  15.350  22.622  0.00  0.00     0.084 A 
ATOM     14  O   UNL d   1     -46.013  14.237  22.888  0.00  0.00    -0.266 OA
ATOM     15  C   UNL d   1     -47.795  15.904  22.490  0.00  0.00     0.019 A 
ATOM     16  C   UNL d   1     -48.594  15.664  22.478  0.00  0.00     0.005 A 
ATOM     17  C   UNL d   1     -49.570  14.637  22.587  0.00  0.00     0.003 C 
ENDROOT
BRANCH   5  18
ATOM     18  C   UNL d   1     -46.020  11.312  23.381  0.00  0.00     0.282 C 
ATOM     19  N   UNL d   1     -45.230  11.488  23.203  0.00  0.00    -0.208 NA
ATOM     20  O   UNL d   1     -46.215  10.563  23.698  0.00  0.00    -0.265 OA
BRANCH  19  21
ATOM     21  C   UNL d   1     -44.643  10.924  23.339  0.00  0.00     0.085 A 
ATOM     22  C   UNL d   1     -43.846  11.022  23.177  0.00  0.00     0.019 A 
ATOM     23  C   UNL d   1     -43.465  10.319  23.402  0.00  0.00     0.002 A 
ATOM     24  C   UNL d   1     -44.034   9.799  23.698  0.00  0.00     0.002 A 
ATOM     25  C   UNL d   1     -44.758  10.170  23.660  0.00  0.00     0.019 A 
ENDBRANCH  19  21
ENDBRANCH   5  18
BRANCH   4  26
ATOM     26  C   UNL d   1     -48.772  11.957  23.092  0.00  0.00     0.067 A 
ATOM     27  C   UNL d   1     -49.143  11.557  22.472  0.00  0.00     0.018 A 
ATOM     28  C   UNL d   1     -49.923  11.431  22.693  0.00  0.00     0.002 A 
ATOM     29  C   UNL d   1     -50.047  11.752  23.452  0.00  0.00     0.002 A 
ATOM     30  C   UNL d   1     -49.328  12.076  23.692  0.00  0.00     0.018 A 
ENDBRANCH   4  26
TORSDOF 3
ENDMDL
