MODEL 1
REMARK VINA RESULT:      56.2      0.000      0.000
REMARK  9 active torsions:
REMARK  status: ('A' for Active; 'I' for Inactive)
REMARK    1  A    between atoms: C_8  and  N_1 
REMARK    2  A    between atoms: C_6  and  C_2 
REMARK    3  A    between atoms: O_12  and  C_11 
REMARK    4  A    between atoms: C_18  and  O_12 
REMARK    5  A    between atoms: C_14  and  C_18 
REMARK    6  A    between atoms: C_16  and  C_14 
REMARK    7  A    between atoms: N_15  and  C_16 
REMARK    8  A    between atoms: C_23  and  N_15 
REMARK    9  A    between atoms: C_24  and  N_15 
ROOT
ATOM      1  N   UNL d   1      14.738  14.209  -1.413  0.00  0.00    -0.306 N 
ATOM      2  C   UNL d   1      15.092  15.530  -1.124  0.00  0.00     0.057 A 
ATOM      3  C   UNL d   1      15.039  14.725  -0.779  0.00  0.00     0.067 A 
ATOM      4  C   UNL d   1      14.615  14.695  -2.117  0.00  0.00     0.064 A 
ATOM      5  C   UNL d   1      14.824  15.475  -1.947  0.00  0.00     0.023 A 
ATOM      6  C   UNL d   1      14.347  14.505  -2.854  0.00  0.00     0.020 A 
ATOM      7  C   UNL d   1      14.761  16.045  -2.517  0.00  0.00     0.026 A 
ATOM      8  C   UNL d   1      14.491  15.850  -3.256  0.00  0.00     0.100 A 
ATOM      9  C   UNL d   1      15.233  14.506  -0.016  0.00  0.00     0.019 C 
ATOM     10  C   UNL d   1      14.282  15.071  -3.427  0.00  0.00     0.026 A 
ENDROOT
BRANCH   8  11
ATOM     11  O   UNL d   1      14.413  16.437  -3.882  0.00  0.00    -0.302 OA
BRANCH  11  12
ATOM     12  C   UNL d   1      14.964  17.015  -3.994  0.00  0.00     0.166 C 
BRANCH  12  13
ATOM     13  C   UNL d   1      14.999  17.477  -4.723  0.00  0.00     0.238 C 
ATOM     14  O   UNL d   1      15.752  17.479  -5.172  0.00  0.00    -0.283 OA
BRANCH  13  15
ATOM     15  C   UNL d   1      14.364  17.898  -4.994  0.00  0.00     0.125 C 
BRANCH  15  16
ATOM     16  N   UNL d   1      14.460  18.629  -5.435  0.00  0.00    -0.300 N 
BRANCH  16  17
ATOM     17  C   UNL d   1      14.937  19.327  -5.334  0.00  0.00     0.080 C 
ATOM     18  C   UNL d   1      14.570  19.918  -5.763  0.00  0.00     0.021 C 
ENDBRANCH  16  17
BRANCH  16  19
ATOM     19  C   UNL d   1      14.045  18.777  -6.118  0.00  0.00     0.080 C 
ATOM     20  C   UNL d   1      13.280  19.169  -6.109  0.00  0.00     0.021 C 
ENDBRANCH  16  19
ENDBRANCH  15  16
ENDBRANCH  13  15
ENDBRANCH  12  13
ENDBRANCH  11  12
ENDBRANCH   8  11
BRANCH   2  21
ATOM     21  C   UNL d   1      15.354  16.170  -0.694  0.00  0.00     0.197 C 
ATOM     22  O   UNL d   1      16.027  16.716  -0.897  0.00  0.00    -0.286 OA
ATOM     23  C   UNL d   1      14.912  16.268  -0.014  0.00  0.00     0.045 C 
ENDBRANCH   2  21
BRANCH   1  24
ATOM     24  C   UNL d   1      14.615  13.415  -1.296  0.00  0.00     0.064 A 
ATOM     25  C   UNL d   1      14.638  12.798  -1.881  0.00  0.00     0.018 A 
ATOM     26  C   UNL d   1      14.499  11.982  -1.682  0.00  0.00     0.002 A 
ATOM     27  C   UNL d   1      14.337  11.779  -0.901  0.00  0.00     0.000 A 
ATOM     28  C   UNL d   1      14.303  12.345  -0.287  0.00  0.00     0.002 A 
ATOM     29  C   UNL d   1      14.442  13.163  -0.481  0.00  0.00     0.018 A 
ENDBRANCH   1  24
TORSDOF 9
ENDMDL
