MODEL 1
REMARK VINA RESULT:      10.7      0.000      0.000
REMARK  1 active torsions:
REMARK  status: ('A' for Active; 'I' for Inactive)
REMARK    1  A    between atoms: C_4  and  C_1 
ROOT
ATOM      1  C   UNL d   1      13.922  12.373  -2.254  0.00  0.00     0.163 A 
ATOM      2  N   UNL d   1      13.642  11.779  -2.753  0.00  0.00    -0.225 NA
ATOM      3  N   UNL d   1      13.808  13.104  -2.634  0.00  0.00    -0.225 NA
ATOM      4  C   UNL d   1      13.353  12.134  -3.442  0.00  0.00     0.101 A 
ATOM      5  C   UNL d   1      13.456  12.957  -3.368  0.00  0.00     0.101 A 
ATOM      6  C   UNL d   1      13.009  11.821  -4.131  0.00  0.00     0.021 A 
ATOM      7  C   UNL d   1      13.214  13.459  -3.983  0.00  0.00     0.021 A 
ATOM      8  C   UNL d   1      12.874  13.147  -4.662  0.00  0.00     0.002 A 
ATOM      9  C   UNL d   1      12.772  12.331  -4.736  0.00  0.00     0.002 A 
ENDROOT
BRANCH   1  10
ATOM     10  C   UNL d   1      14.257  12.264  -1.509  0.00  0.00     0.046 A 
ATOM     11  C   UNL d   1      13.799  11.971  -0.898  0.00  0.00     0.061 A 
ATOM     12 CL   UNL d   1      13.001  11.786  -1.036  0.00  0.00    -0.082 Cl
ATOM     13  C   UNL d   1      14.130  11.864  -0.164  0.00  0.00     0.011 A 
ATOM     14  C   UNL d   1      14.924  12.048  -0.028  0.00  0.00     0.001 A 
ATOM     15  C   UNL d   1      15.381  12.342  -0.644  0.00  0.00     0.000 A 
ATOM     16  C   UNL d   1      15.046  12.451  -1.388  0.00  0.00     0.004 A 
ENDBRANCH   1  10
TORSDOF 1
ENDMDL
