MODEL 1
REMARK VINA RESULT:       7.6      0.000      0.000
REMARK  7 active torsions:
REMARK  status: ('A' for Active; 'I' for Inactive)
REMARK    1  A    between atoms: C_7  and  N_1 
REMARK    2  A    between atoms: S_15  and  C_3 
REMARK    3  A    between atoms: O_8  and  C_7 
REMARK    4  A    between atoms: C_10  and  O_8 
REMARK    5  A    between atoms: C_19  and  C_10 
REMARK    6  A    between atoms: C_13  and  O_14 
REMARK    7  A    between atoms: O_14  and  C_19 
ROOT
ATOM      1  O   UNL d   1      46.505 -17.525  44.042  0.00  0.00    -0.251 OA
ENDROOT
BRANCH   1   2
ATOM      2  C   UNL d   1      46.626 -18.318  44.232  0.00  0.00     0.215 C 
BRANCH   2   3
ATOM      3  N   UNL d   1      46.631 -18.893  43.637  0.00  0.00    -0.229 N 
ATOM      4  C   UNL d   1      46.625 -18.662  42.844  0.00  0.00     0.287 A 
ATOM      5  C   UNL d   1      46.630 -19.233  42.248  0.00  0.00     0.159 A 
ATOM      6  O   UNL d   1      46.614 -17.861  42.648  0.00  0.00    -0.265 OA
ATOM      7  C   UNL d   1      46.624 -18.989  41.452  0.00  0.00     0.028 C 
ATOM      8  N   UNL d   1      46.640 -20.034  42.443  0.00  0.00    -0.141 NA
ATOM      9  N   UNL d   1      46.646 -20.265  43.236  0.00  0.00    -0.123 NA
ATOM     10  C   UNL d   1      46.641 -19.695  43.833  0.00  0.00     0.200 A 
BRANCH  10  11
ATOM     11  S   UNL d   1      46.647 -19.925  44.625  0.00  0.00    -0.074 SA
ATOM     12  C   UNL d   1      45.982 -20.287  44.953  0.00  0.00     0.077 C 
ENDBRANCH  10  11
ENDBRANCH   2   3
ENDBRANCH   1   2
BRANCH   1  13
ATOM     13  C   UNL d   1      46.028 -17.053  44.524  0.00  0.00     0.327 C 
ATOM     14  O   UNL d   1      45.355 -17.374  44.880  0.00  0.00    -0.256 OA
BRANCH  13  15
ATOM     15  C   UNL d   1      46.223 -16.261  44.649  0.00  0.00     0.191 C 
BRANCH  15  16
ATOM     16  O   UNL d   1      45.658 -15.738  44.933  0.00  0.00    -0.299 OA
BRANCH  16  17
ATOM     17  C   UNL d   1      45.723 -14.931  44.773  0.00  0.00     0.111 A 
ATOM     18  C   UNL d   1      45.061 -14.494  44.575  0.00  0.00     0.081 A 
ATOM     19  C   UNL d   1      45.127 -13.687  44.414  0.00  0.00     0.025 A 
ATOM     20 CL   UNL d   1      44.313 -14.872  44.535  0.00  0.00    -0.080 Cl
ATOM     21  C   UNL d   1      45.855 -13.318  44.452  0.00  0.00     0.059 A 
ATOM     22  C   UNL d   1      46.526 -13.754  44.652  0.00  0.00     0.013 A 
ATOM     23 CL   UNL d   1      45.915 -12.511  44.291  0.00  0.00    -0.082 Cl
ATOM     24  C   UNL d   1      46.460 -14.561  44.812  0.00  0.00     0.026 A 
ENDBRANCH  16  17
ENDBRANCH  15  16
ENDBRANCH  13  15
ENDBRANCH   1  13
TORSDOF 7
ENDMDL
MODEL 2
REMARK VINA RESULT:       8.3      0.835      1.533
REMARK  7 active torsions:
REMARK  status: ('A' for Active; 'I' for Inactive)
REMARK    1  A    between atoms: C_7  and  N_1 
REMARK    2  A    between atoms: S_15  and  C_3 
REMARK    3  A    between atoms: O_8  and  C_7 
REMARK    4  A    between atoms: C_10  and  O_8 
REMARK    5  A    between atoms: C_19  and  C_10 
REMARK    6  A    between atoms: C_13  and  O_14 
REMARK    7  A    between atoms: O_14  and  C_19 
ROOT
ATOM      1  O   UNL d   1      45.937 -17.272  43.601  0.00  0.00    -0.251 OA
ENDROOT
BRANCH   1   2
ATOM      2  C   UNL d   1      46.636 -17.710  43.576  0.00  0.00     0.215 C 
BRANCH   2   3
ATOM      3  N   UNL d   1      46.610 -18.531  43.476  0.00  0.00    -0.229 N 
ATOM      4  C   UNL d   1      46.584 -19.023  44.139  0.00  0.00     0.287 A 
ATOM      5  C   UNL d   1      46.558 -19.843  44.043  0.00  0.00     0.159 A 
ATOM      6  O   UNL d   1      46.584 -18.696  44.896  0.00  0.00    -0.265 OA
ATOM      7  C   UNL d   1      46.532 -20.330  44.717  0.00  0.00     0.028 C 
ATOM      8  N   UNL d   1      46.558 -20.170  43.286  0.00  0.00    -0.141 NA
ATOM      9  N   UNL d   1      46.584 -19.678  42.624  0.00  0.00    -0.123 NA
ATOM     10  C   UNL d   1      46.610 -18.858  42.719  0.00  0.00     0.200 A 
BRANCH  10  11
ATOM     11  S   UNL d   1      46.636 -18.366  42.057  0.00  0.00    -0.074 SA
ATOM     12  C   UNL d   1      46.421 -18.659  41.317  0.00  0.00     0.077 C 
ENDBRANCH  10  11
ENDBRANCH   2   3
ENDBRANCH   1   2
BRANCH   1  13
ATOM     13  C   UNL d   1      45.784 -16.776  44.243  0.00  0.00     0.327 C 
ATOM     14  O   UNL d   1      45.510 -17.094  44.954  0.00  0.00    -0.256 OA
BRANCH  13  15
ATOM     15  C   UNL d   1      45.904 -15.962  44.174  0.00  0.00     0.191 C 
BRANCH  15  16
ATOM     16  O   UNL d   1      45.317 -15.438  44.406  0.00  0.00    -0.299 OA
BRANCH  16  17
ATOM     17  C   UNL d   1      45.480 -14.631  44.459  0.00  0.00     0.111 A 
ATOM     18  C   UNL d   1      44.879 -14.082  44.383  0.00  0.00     0.081 A 
ATOM     19  C   UNL d   1      45.042 -13.275  44.436  0.00  0.00     0.025 A 
ATOM     20 CL   UNL d   1      44.094 -14.346  44.250  0.00  0.00    -0.080 Cl
ATOM     21  C   UNL d   1      45.807 -13.017  44.565  0.00  0.00     0.059 A 
ATOM     22  C   UNL d   1      46.417 -13.567  44.643  0.00  0.00     0.013 A 
ATOM     23 CL   UNL d   1      45.965 -12.209  44.618  0.00  0.00    -0.082 Cl
ATOM     24  C   UNL d   1      46.254 -14.374  44.590  0.00  0.00     0.026 A 
ENDBRANCH  16  17
ENDBRANCH  15  16
ENDBRANCH  13  15
ENDBRANCH   1  13
TORSDOF 7
ENDMDL
