MODEL 1
REMARK VINA RESULT:      15.7      0.000      0.000
REMARK  2 active torsions:
REMARK  status: ('A' for Active; 'I' for Inactive)
REMARK    1  A    between atoms: N_5  and  C_1 
REMARK       I    between atoms: C_4  and  N_5 
REMARK    2  A    between atoms: C_7  and  C_4 
ROOT
ATOM      1  C   UNL d   1      45.672 -13.228  44.566  0.00  0.00     0.060 A 
ATOM      2  C   UNL d   1      45.722 -14.674  44.554  0.00  0.00     0.123 A 
ATOM      3  C   UNL d   1      46.078 -13.941  44.434  0.00  0.00     0.032 A 
ATOM      4  C   UNL d   1      44.932 -14.709  44.816  0.00  0.00     0.123 A 
ATOM      5  O   UNL d   1      46.126 -15.369  44.423  0.00  0.00    -0.301 OA
ATOM      6  O   UNL d   1      44.567 -15.424  44.940  0.00  0.00    -0.301 OA
ATOM      7  C   UNL d   1      44.891 -13.263  44.825  0.00  0.00     0.007 A 
ATOM      8  C   UNL d   1      44.519 -14.010  44.951  0.00  0.00     0.027 A 
ATOM      9  C   UNL d   1      45.782 -16.109  44.539  0.00  0.00     0.149 A 
ATOM     10  C   UNL d   1      44.990 -16.148  44.802  0.00  0.00     0.149 A 
ENDROOT
BRANCH   1  11
ATOM     11  C   UNL d   1      46.037 -12.509  44.443  0.00  0.00     0.281 C 
ATOM     12  N   UNL d   1      45.815 -12.081  43.768  0.00  0.00    -0.187 NA
ATOM     13  O   UNL d   1      46.644 -12.138  44.953  0.00  0.00    -0.265 OA
BRANCH  12  14
ATOM     14  C   UNL d   1      45.229 -12.401  43.243  0.00  0.00     0.194 A 
ATOM     15  N   UNL d   1      45.306 -13.072  42.767  0.00  0.00    -0.107 NA
ATOM     16  O   UNL d   1      44.602 -13.180  42.348  0.00  0.00    -0.210 OA
ATOM     17  C   UNL d   1      44.075 -12.569  42.564  0.00  0.00     0.128 A 
ATOM     18  C   UNL d   1      44.477 -12.090  43.121  0.00  0.00     0.068 A 
ATOM     19  C   UNL d   1      43.312 -12.467  42.276  0.00  0.00     0.029 C 
ENDBRANCH  12  14
ENDBRANCH   1  11
TORSDOF 2
ENDMDL
