MODEL 1
REMARK VINA RESULT:      46.0      0.000      0.000
REMARK  5 active torsions:
REMARK  status: ('A' for Active; 'I' for Inactive)
REMARK    1  A    between atoms: N_12  and  C_5 
REMARK    2  A    between atoms: C_17  and  N_12 
REMARK    3  A    between atoms: C_19  and  C_17 
REMARK    4  A    between atoms: C_18  and  C_20 
REMARK    5  A    between atoms: C_20  and  C_19 
ROOT
ATOM      1  C   UNL d   1      58.406  49.700  51.462  0.00  0.00     0.159 A 
ATOM      2  N   UNL d   1      58.955  49.701  50.847  0.00  0.00    -0.275 N 
ATOM      3  C   UNL d   1      58.670  49.702  52.252  0.00  0.00     0.103 A 
ATOM      4  N   UNL d   1      57.597  49.698  51.294  0.00  0.00    -0.226 NA
ATOM      5  C   UNL d   1      59.773  49.703  51.018  0.00  0.00     0.149 A 
ATOM      6  C   UNL d   1      59.479  49.705  52.421  0.00  0.00     0.016 A 
ATOM      7  C   UNL d   1      60.028  49.705  51.806  0.00  0.00     0.038 A 
ATOM      8  C   UNL d   1      57.885  49.696  49.891  0.00  0.00     0.084 A 
ATOM      9  C   UNL d   1      57.336  49.696  50.506  0.00  0.00     0.099 A 
ATOM     10  C   UNL d   1      58.121  49.702  52.868  0.00  0.00     0.104 C 
ATOM     11  N   UNL d   1      57.571  49.702  53.483  0.00  0.00    -0.191 NA
ATOM     12  C   UNL d   1      59.737  49.707  53.205  0.00  0.00     0.001 C 
ATOM     13  C   UNL d   1      57.623  49.694  49.097  0.00  0.00     0.019 A 
ATOM     14  C   UNL d   1      56.520  49.694  50.332  0.00  0.00     0.021 A 
ATOM     15  C   UNL d   1      56.819  49.692  48.938  0.00  0.00     0.002 A 
ATOM     16  C   UNL d   1      56.269  49.692  49.553  0.00  0.00     0.002 A 
ENDROOT
BRANCH   5  17
ATOM     17  N   UNL d   1      60.323  49.703  50.403  0.00  0.00    -0.227 NA
BRANCH  17  18
ATOM     18  C   UNL d   1      61.068  49.369  50.517  0.00  0.00     0.101 C 
BRANCH  18  19
ATOM     19  C   UNL d   1      61.352  48.805  49.985  0.00  0.00     0.024 C 
BRANCH  19  20
ATOM     20  C   UNL d   1      61.686  48.104  50.266  0.00  0.00     0.047 C 
BRANCH  20  21
ATOM     21  C   UNL d   1      61.378  47.376  50.027  0.00  0.00     0.234 C 
ATOM     22  O   UNL d   1      61.849  46.851  49.600  0.00  0.00    -0.283 OA
ENDBRANCH  20  21
ENDBRANCH  19  20
ENDBRANCH  18  19
ENDBRANCH  17  18
ENDBRANCH   5  17
TORSDOF 5
ENDMDL
