MODEL 1
REMARK VINA RESULT:      -4.5      0.000      0.000
REMARK  2 active torsions:
REMARK  status: ('A' for Active; 'I' for Inactive)
REMARK       I    between atoms: N_2  and  C_1 
REMARK    1  A    between atoms: C_4  and  N_2 
REMARK    2  A    between atoms: O_8  and  C_7 
ROOT
ATOM      1  C   UNL d   1     -41.175-122.651 -53.741  0.00  0.00     0.102 A 
ATOM      2  C   UNL d   1     -41.169-122.175 -53.066  0.00  0.00     0.044 A 
ATOM      3  C   UNL d   1     -41.187-122.520 -52.316  0.00  0.00     0.096 A 
ATOM      4  C   UNL d   1     -41.218-123.817 -52.919  0.00  0.00     0.004 A 
ATOM      5  C   UNL d   1     -41.200-123.473 -53.668  0.00  0.00     0.020 A 
ATOM      6  C   UNL d   1     -41.212-123.342 -52.244  0.00  0.00     0.024 A 
ENDROOT
BRANCH   1   7
ATOM      7  N   UNL d   1     -41.157-122.308 -54.494  0.00  0.00    -0.056 NA
ATOM      8  C   UNL d   1     -41.861-122.169 -54.909  0.00  0.00     0.787 C 
ATOM      9  N   UNL d   1     -41.847-121.828 -55.660  0.00  0.00     0.064 N 
ATOM     10  N   UNL d   1     -42.582-122.377 -54.561  0.00  0.00     0.064 N 
ENDBRANCH   1   7
BRANCH   3  11
ATOM     11  O   UNL d   1     -41.180-122.044 -51.641  0.00  0.00    -0.328 OA
ATOM     12  C   UNL d   1     -41.602-122.273 -50.969  0.00  0.00     0.181 C 
ENDBRANCH   3  11
TORSDOF 2
ENDMDL
MODEL 2
REMARK VINA RESULT:      -4.3      1.878      2.811
REMARK  2 active torsions:
REMARK  status: ('A' for Active; 'I' for Inactive)
REMARK       I    between atoms: N_2  and  C_1 
REMARK    1  A    between atoms: C_4  and  N_2 
REMARK    2  A    between atoms: O_8  and  C_7 
ROOT
ATOM      1  C   UNL d   1     -41.400-122.301 -53.188  0.00  0.00     0.102 A 
ATOM      2  C   UNL d   1     -41.941-121.931 -53.690  0.00  0.00     0.044 A 
ATOM      3  C   UNL d   1     -42.213-122.320 -54.366  0.00  0.00     0.096 A 
ATOM      4  C   UNL d   1     -41.400-123.451 -54.035  0.00  0.00     0.004 A 
ATOM      5  C   UNL d   1     -41.129-123.061 -53.360  0.00  0.00     0.020 A 
ATOM      6  C   UNL d   1     -41.941-123.081 -54.537  0.00  0.00     0.024 A 
ENDROOT
BRANCH   1   7
ATOM      7  N   UNL d   1     -41.126-121.913 -52.510  0.00  0.00    -0.056 NA
ATOM      8  C   UNL d   1     -41.425-122.113 -51.764  0.00  0.00     0.787 C 
ATOM      9  N   UNL d   1     -41.154-121.729 -51.086  0.00  0.00     0.064 N 
ATOM     10  N   UNL d   1     -42.000-122.704 -51.703  0.00  0.00     0.064 N 
ENDBRANCH   1   7
BRANCH   3  11
ATOM     11  O   UNL d   1     -42.754-121.951 -54.868  0.00  0.00    -0.328 OA
ATOM     12  C   UNL d   1     -42.625-121.945 -55.683  0.00  0.00     0.181 C 
ENDBRANCH   3  11
TORSDOF 2
ENDMDL
MODEL 3
REMARK VINA RESULT:      -3.8      2.643      3.617
REMARK  2 active torsions:
REMARK  status: ('A' for Active; 'I' for Inactive)
REMARK       I    between atoms: N_2  and  C_1 
REMARK    1  A    between atoms: C_4  and  N_2 
REMARK    2  A    between atoms: O_8  and  C_7 
ROOT
ATOM      1  C   UNL d   1     -41.184-122.937 -50.930  0.00  0.00     0.102 A 
ATOM      2  C   UNL d   1     -41.193-123.498 -51.536  0.00  0.00     0.044 A 
ATOM      3  C   UNL d   1     -41.167-123.256 -52.324  0.00  0.00     0.096 A 
ATOM      4  C   UNL d   1     -41.123-121.891 -51.899  0.00  0.00     0.004 A 
ATOM      5  C   UNL d   1     -41.148-122.132 -51.111  0.00  0.00     0.020 A 
ATOM      6  C   UNL d   1     -41.132-122.452 -52.505  0.00  0.00     0.024 A 
ENDROOT
BRANCH   1   7
ATOM      7  N   UNL d   1     -41.210-123.176 -50.138  0.00  0.00    -0.056 NA
ATOM      8  C   UNL d   1     -41.897-123.066 -49.689  0.00  0.00     0.787 C 
ATOM      9  N   UNL d   1     -41.927-123.303 -48.899  0.00  0.00     0.064 N 
ATOM     10  N   UNL d   1     -42.558-122.714 -50.041  0.00  0.00     0.064 N 
ENDBRANCH   1   7
BRANCH   3  11
ATOM     11  O   UNL d   1     -41.177-123.817 -52.930  0.00  0.00    -0.328 OA
ATOM     12  C   UNL d   1     -41.276-123.579 -53.714  0.00  0.00     0.181 C 
ENDBRANCH   3  11
TORSDOF 2
ENDMDL
MODEL 4
REMARK VINA RESULT:      -3.5      2.592      3.462
REMARK  2 active torsions:
REMARK  status: ('A' for Active; 'I' for Inactive)
REMARK       I    between atoms: N_2  and  C_1 
REMARK    1  A    between atoms: C_4  and  N_2 
REMARK    2  A    between atoms: O_8  and  C_7 
ROOT
ATOM      1  C   UNL d   1     -41.438-122.863 -50.806  0.00  0.00     0.102 A 
ATOM      2  C   UNL d   1     -41.462-122.266 -51.375  0.00  0.00     0.044 A 
ATOM      3  C   UNL d   1     -41.317-122.443 -52.168  0.00  0.00     0.096 A 
ATOM      4  C   UNL d   1     -41.123-123.817 -51.820  0.00  0.00     0.004 A 
ATOM      5  C   UNL d   1     -41.268-123.640 -51.027  0.00  0.00     0.020 A 
ATOM      6  C   UNL d   1     -41.147-123.220 -52.390  0.00  0.00     0.024 A 
ENDROOT
BRANCH   1   7
ATOM      7  N   UNL d   1     -41.584-122.688 -50.010  0.00  0.00    -0.056 NA
ATOM      8  C   UNL d   1     -42.319-122.863 -49.670  0.00  0.00     0.787 C 
ATOM      9  N   UNL d   1     -42.468-122.691 -48.877  0.00  0.00     0.064 N 
ATOM     10  N   UNL d   1     -42.905-123.215 -50.134  0.00  0.00     0.064 N 
ENDBRANCH   1   7
BRANCH   3  11
ATOM     11  O   UNL d   1     -41.341-121.846 -52.738  0.00  0.00    -0.328 OA
ATOM     12  C   UNL d   1     -41.637-122.004 -53.492  0.00  0.00     0.181 C 
ENDBRANCH   3  11
TORSDOF 2
ENDMDL
MODEL 5
REMARK VINA RESULT:      -3.0      3.452      4.512
REMARK  2 active torsions:
REMARK  status: ('A' for Active; 'I' for Inactive)
REMARK       I    between atoms: N_2  and  C_1 
REMARK    1  A    between atoms: C_4  and  N_2 
REMARK    2  A    between atoms: O_8  and  C_7 
ROOT
ATOM      1  C   UNL d   1     -42.211-123.133 -49.663  0.00  0.00     0.102 A 
ATOM      2  C   UNL d   1     -42.161-122.477 -50.163  0.00  0.00     0.044 A 
ATOM      3  C   UNL d   1     -41.654-122.491 -50.814  0.00  0.00     0.096 A 
ATOM      4  C   UNL d   1     -41.247-123.818 -50.464  0.00  0.00     0.004 A 
ATOM      5  C   UNL d   1     -41.754-123.804 -49.813  0.00  0.00     0.020 A 
ATOM      6  C   UNL d   1     -41.198-123.162 -50.964  0.00  0.00     0.024 A 
ENDROOT
BRANCH   1   7
ATOM      7  N   UNL d   1     -42.718-123.122 -49.009  0.00  0.00    -0.056 NA
ATOM      8  C   UNL d   1     -42.410-123.104 -48.240  0.00  0.00     0.787 C 
ATOM      9  N   UNL d   1     -42.912-123.093 -47.585  0.00  0.00     0.064 N 
ATOM     10  N   UNL d   1     -41.590-123.097 -48.133  0.00  0.00     0.064 N 
ENDBRANCH   1   7
BRANCH   3  11
ATOM     11  O   UNL d   1     -41.605-121.836 -51.315  0.00  0.00    -0.328 OA
ATOM     12  C   UNL d   1     -41.123-121.862 -51.985  0.00  0.00     0.181 C 
ENDBRANCH   3  11
TORSDOF 2
ENDMDL
MODEL 6
REMARK VINA RESULT:      -2.2      2.755      3.855
REMARK  2 active torsions:
REMARK  status: ('A' for Active; 'I' for Inactive)
REMARK       I    between atoms: N_2  and  C_1 
REMARK    1  A    between atoms: C_4  and  N_2 
REMARK    2  A    between atoms: O_8  and  C_7 
ROOT
ATOM      1  C   UNL d   1     -42.524-122.504 -50.097  0.00  0.00     0.102 A 
ATOM      2  C   UNL d   1     -42.250-122.195 -49.381  0.00  0.00     0.044 A 
ATOM      3  C   UNL d   1     -42.440-122.568 -48.670  0.00  0.00     0.096 A 
ATOM      4  C   UNL d   1     -43.179-123.559 -49.392  0.00  0.00     0.004 A 
ATOM      5  C   UNL d   1     -42.989-123.186 -50.103  0.00  0.00     0.020 A 
ATOM      6  C   UNL d   1     -42.905-123.250 -48.676  0.00  0.00     0.024 A 
ENDROOT
BRANCH   1   7
ATOM      7  N   UNL d   1     -42.335-122.132 -50.812  0.00  0.00    -0.056 NA
ATOM      8  C   UNL d   1     -41.703-122.405 -51.272  0.00  0.00     0.787 C 
ATOM      9  N   UNL d   1     -41.511-122.037 -51.985  0.00  0.00     0.064 N 
ATOM     10  N   UNL d   1     -41.261-123.053 -51.009  0.00  0.00     0.064 N 
ENDBRANCH   1   7
BRANCH   3  11
ATOM     11  O   UNL d   1     -42.166-122.260 -47.954  0.00  0.00    -0.328 OA
ATOM     12  C   UNL d   1     -42.197-122.717 -47.268  0.00  0.00     0.181 C 
ENDBRANCH   3  11
TORSDOF 2
ENDMDL
