MODEL 1
REMARK VINA RESULT:      18.3      0.000      0.000
REMARK  8 active torsions:
REMARK  status: ('A' for Active; 'I' for Inactive)
REMARK    1  A    between atoms: C_9  and  N_1 
REMARK    2  A    between atoms: C_7  and  C_2 
REMARK    3  A    between atoms: C_6  and  C_4 
REMARK    4  A    between atoms: C_8  and  C_11 
REMARK       I    between atoms: N_23  and  C_8 
REMARK    5  A    between atoms: C_26  and  N_23 
REMARK    6  A    between atoms: C_24  and  C_26 
REMARK    7  A    between atoms: C_27  and  C_24 
REMARK    8  A    between atoms: O_25  and  C_27 
ROOT
ATOM      1  N   UNL d   1      46.368 -18.132  42.644  0.00  0.00    -0.229 N 
ATOM      2  C   UNL d   1      46.492 -18.909  42.939  0.00  0.00     0.090 A 
ATOM      3  N   UNL d   1      46.390 -18.168  41.834  0.00  0.00    -0.161 NA
ATOM      4  C   UNL d   1      46.525 -18.952  41.599  0.00  0.00     0.174 A 
ATOM      5  C   UNL d   1      46.587 -19.410  42.291  0.00  0.00     0.044 A 
ENDROOT
BRANCH   1   6
ATOM      6  C   UNL d   1      46.247 -17.456  43.096  0.00  0.00     0.083 A 
ATOM      7  C   UNL d   1      46.450 -16.714  42.793  0.00  0.00     0.019 A 
ATOM      8  C   UNL d   1      46.331 -16.032  43.241  0.00  0.00     0.006 A 
ATOM      9  C   UNL d   1      46.005 -16.097  44.002  0.00  0.00     0.058 A 
ATOM     10  C   UNL d   1      45.802 -16.844  44.305  0.00  0.00     0.006 A 
ATOM     11  C   UNL d   1      45.924 -17.515  43.854  0.00  0.00     0.019 A 
BRANCH   9  12
ATOM     12  C   UNL d   1      45.884 -15.412  44.458  0.00  0.00     0.279 C 
ATOM     13  O   UNL d   1      46.479 -15.133  44.952  0.00  0.00    -0.265 OA
ATOM     14  N   UNL d   1      45.167 -15.013  44.414  0.00  0.00    -0.206 NA
BRANCH  14  15
ATOM     15  C   UNL d   1      45.040 -14.335  44.861  0.00  0.00     0.104 C 
BRANCH  15  16
ATOM     16  C   UNL d   1      44.726 -13.656  44.515  0.00  0.00     0.047 C 
BRANCH  16  17
ATOM     17  C   UNL d   1      45.230 -13.078  44.200  0.00  0.00     0.118 C 
BRANCH  17  18
ATOM     18  O   UNL d   1      45.211 -12.926  43.388  0.00  0.00    -0.326 OA
ATOM     19  C   UNL d   1      45.021 -12.164  43.115  0.00  0.00     0.181 C 
ENDBRANCH  17  18
ENDBRANCH  16  17
ENDBRANCH  15  16
ENDBRANCH  14  15
ENDBRANCH   9  12
ENDBRANCH   1   6
BRANCH   2  20
ATOM     20  C   UNL d   1      46.527 -19.212  43.706  0.00  0.00     0.047 A 
ATOM     21  S   UNL d   1      46.512 -19.008  44.516  0.00  0.00    -0.085 SA
ATOM     22  C   UNL d   1      46.584 -19.709  44.955  0.00  0.00     0.035 A 
ATOM     23  C   UNL d   1      46.642 -20.329  44.419  0.00  0.00     0.007 A 
ATOM     24  C   UNL d   1      46.607 -20.027  43.655  0.00  0.00     0.009 A 
ENDBRANCH   2  20
BRANCH   4  25
ATOM     25  C   UNL d   1      46.587 -19.231  40.825  0.00  0.00     0.437 C 
ATOM     26  F   UNL d   1      46.643 -19.489  40.120  0.00  0.00    -0.164 F 
ATOM     27  F   UNL d   1      46.645 -20.044  40.546  0.00  0.00    -0.164 F 
ATOM     28  F   UNL d   1      46.609 -18.788  40.082  0.00  0.00    -0.164 F 
ENDBRANCH   4  25
TORSDOF 8
ENDMDL
