MODEL 1
REMARK VINA RESULT:       8.1      0.000      0.000
REMARK  3 active torsions:
REMARK  status: ('A' for Active; 'I' for Inactive)
REMARK    1  A    between atoms: O_10  and  C_9 
REMARK    2  A    between atoms: C_13  and  O_10 
REMARK    3  A    between atoms: C_12  and  C_13 
ROOT
ATOM      1  C   UNL d   1      46.306 -18.824  43.363  0.00  0.00     0.066 A 
ATOM      2  O   UNL d   1      46.320 -20.106  43.747  0.00  0.00    -0.302 OA
ATOM      3  C   UNL d   1      46.325 -19.295  42.684  0.00  0.00     0.222 A 
ATOM      4  C   UNL d   1      46.303 -19.329  44.016  0.00  0.00     0.103 A 
ATOM      5  C   UNL d   1      46.291 -18.014  43.479  0.00  0.00     0.030 A 
ATOM      6  C   UNL d   1      46.334 -20.084  42.922  0.00  0.00     0.165 A 
ATOM      7  O   UNL d   1      46.334 -19.014  41.905  0.00  0.00    -0.284 OA
ATOM      8  C   UNL d   1      46.284 -19.020  44.775  0.00  0.00     0.027 A 
ATOM      9  C   UNL d   1      46.272 -17.705  44.243  0.00  0.00     0.100 A 
ATOM     10  C   UNL d   1      46.269 -18.213  44.893  0.00  0.00     0.027 A 
ENDROOT
BRANCH   9  11
ATOM     11  O   UNL d   1      46.257 -16.883  44.358  0.00  0.00    -0.305 OA
BRANCH  11  12
ATOM     12  C   UNL d   1      45.626 -16.531  44.752  0.00  0.00     0.122 C 
BRANCH  12  13
ATOM     13  C   UNL d   1      45.564 -15.704  44.758  0.00  0.00     0.025 A 
ATOM     14  C   UNL d   1      44.838 -15.354  44.946  0.00  0.00     0.004 A 
ATOM     15  C   UNL d   1      44.772 -14.535  44.953  0.00  0.00     0.030 A 
ATOM     16  C   UNL d   1      45.434 -14.063  44.773  0.00  0.00     0.140 A 
ATOM     17  C   UNL d   1      46.154 -14.417  44.587  0.00  0.00     0.030 A 
ATOM     18  F   UNL d   1      45.362 -13.242  44.782  0.00  0.00    -0.204 F 
ATOM     19  C   UNL d   1      46.220 -15.236  44.579  0.00  0.00     0.004 A 
ENDBRANCH  12  13
ENDBRANCH  11  12
ENDBRANCH   9  11
TORSDOF 3
ENDMDL
MODEL 2
REMARK VINA RESULT:      11.0      2.073      4.599
REMARK  3 active torsions:
REMARK  status: ('A' for Active; 'I' for Inactive)
REMARK    1  A    between atoms: O_10  and  C_9 
REMARK    2  A    between atoms: C_13  and  O_10 
REMARK    3  A    between atoms: C_12  and  C_13 
ROOT
ATOM      1  C   UNL d   1      45.717 -14.760  44.306  0.00  0.00     0.066 A 
ATOM      2  O   UNL d   1      44.734 -14.099  44.927  0.00  0.00    -0.302 OA
ATOM      3  C   UNL d   1      45.845 -13.950  44.198  0.00  0.00     0.222 A 
ATOM      4  C   UNL d   1      45.031 -14.846  44.756  0.00  0.00     0.103 A 
ATOM      5  C   UNL d   1      46.126 -15.425  44.060  0.00  0.00     0.030 A 
ATOM      6  C   UNL d   1      45.238 -13.544  44.581  0.00  0.00     0.165 A 
ATOM      7  O   UNL d   1      46.475 -13.615  43.778  0.00  0.00    -0.284 OA
ATOM      8  C   UNL d   1      44.760 -15.594  44.955  0.00  0.00     0.027 A 
ATOM      9  C   UNL d   1      45.852 -16.177  44.261  0.00  0.00     0.100 A 
ATOM     10  C   UNL d   1      45.165 -16.259  44.711  0.00  0.00     0.027 A 
ENDROOT
BRANCH   9  11
ATOM     11  O   UNL d   1      46.268 -16.850  44.011  0.00  0.00    -0.305 OA
BRANCH  11  12
ATOM     12  C   UNL d   1      46.063 -17.595  44.297  0.00  0.00     0.122 C 
BRANCH  12  13
ATOM     13  C   UNL d   1      46.210 -18.262  43.827  0.00  0.00     0.025 A 
ATOM     14  C   UNL d   1      46.274 -19.004  44.189  0.00  0.00     0.004 A 
ATOM     15  C   UNL d   1      46.420 -19.668  43.727  0.00  0.00     0.030 A 
ATOM     16  C   UNL d   1      46.501 -19.592  42.902  0.00  0.00     0.140 A 
ATOM     17  C   UNL d   1      46.436 -18.851  42.548  0.00  0.00     0.030 A 
ATOM     18  F   UNL d   1      46.647 -20.261  42.444  0.00  0.00    -0.204 F 
ATOM     19  C   UNL d   1      46.290 -18.186  43.010  0.00  0.00     0.004 A 
ENDBRANCH  12  13
ENDBRANCH  11  12
ENDBRANCH   9  11
TORSDOF 3
ENDMDL
