MODEL 1
REMARK VINA RESULT:     105.7      0.000      0.000
REMARK  6 active torsions:
REMARK  status: ('A' for Active; 'I' for Inactive)
REMARK    1  A    between atoms: N_6  and  S_1 
REMARK    2  A    between atoms: C_7  and  S_1 
REMARK       I    between atoms: C_2  and  N_4 
REMARK    3  A    between atoms: C_8  and  C_2 
REMARK    4  A    between atoms: C_3  and  C_12 
REMARK       I    between atoms: N_5  and  C_3 
REMARK    5  A    between atoms: C_23  and  N_6 
REMARK    6  A    between atoms: O_29  and  C_26 
ROOT
ATOM      1  C   UNL d   1      60.992  48.441  50.853  0.00  0.00     0.057 A 
ATOM      2  C   UNL d   1      61.914  47.485  49.877  0.00  0.00     0.094 A 
ATOM      3  C   UNL d   1      60.835  47.630  50.790  0.00  0.00     0.006 A 
ATOM      4  C   UNL d   1      61.611  48.772  50.426  0.00  0.00     0.006 A 
ATOM      5  C   UNL d   1      61.303  47.154  50.297  0.00  0.00     0.020 A 
ATOM      6  C   UNL d   1      62.074  48.293  49.936  0.00  0.00     0.020 A 
ENDROOT
BRANCH   1   7
ATOM      7  C   UNL d   1      60.524  48.921  51.347  0.00  0.00     0.265 C 
ATOM      8  N   UNL d   1      59.708  48.998  51.212  0.00  0.00    -0.269 N 
ATOM      9  C   UNL d   1      59.246  49.474  51.703  0.00  0.00     0.102 A 
ATOM     10  C   UNL d   1      59.357  48.594  50.583  0.00  0.00     0.102 A 
ATOM     11  C   UNL d   1      58.437  49.546  51.564  0.00  0.00     0.102 A 
ATOM     12  N   UNL d   1      58.098  49.138  50.932  0.00  0.00    -0.267 N 
ATOM     13  C   UNL d   1      57.291  49.208  50.790  0.00  0.00     0.288 C 
ATOM     14  C   UNL d   1      58.554  48.666  50.444  0.00  0.00     0.102 A 
ATOM     15  O   UNL d   1      56.827  49.687  51.283  0.00  0.00    -0.264 OA
ATOM     16  O   UNL d   1      60.878  49.326  51.979  0.00  0.00    -0.267 OA
BRANCH  13  17
ATOM     17  C   UNL d   1      56.945  48.808  50.167  0.00  0.00     0.156 A 
ATOM     18  O   UNL d   1      56.803  47.991  50.123  0.00  0.00    -0.300 OA
ATOM     19  C   UNL d   1      56.448  47.836  49.400  0.00  0.00     0.123 A 
ATOM     20  C   UNL d   1      56.365  48.546  48.987  0.00  0.00     0.029 A 
ATOM     21  C   UNL d   1      56.672  49.146  49.461  0.00  0.00     0.032 A 
ENDBRANCH  13  17
ENDBRANCH   1   7
BRANCH   2  22
ATOM     22  N   UNL d   1      62.378  47.010  49.386  0.00  0.00    -0.158 NA
BRANCH  22  23
ATOM     23  S   UNL d   1      62.223  46.210  49.332  0.00  0.00     0.285 S 
ATOM     24  O   UNL d   1      62.945  46.094  48.949  0.00  0.00    -0.198 OA
ATOM     25  O   UNL d   1      61.501  46.318  49.714  0.00  0.00    -0.198 OA
BRANCH  23  26
ATOM     26  C   UNL d   1      62.067  45.401  49.277  0.00  0.00     0.107 A 
ATOM     27  C   UNL d   1      61.291  45.135  49.189  0.00  0.00     0.037 A 
ATOM     28  C   UNL d   1      61.136  44.326  49.133  0.00  0.00     0.095 A 
ATOM     29  C   UNL d   1      61.758  43.786  49.166  0.00  0.00     0.024 A 
ATOM     30  C   UNL d   1      62.528  44.049  49.253  0.00  0.00     0.003 A 
ATOM     31  C   UNL d   1      62.687  44.856  49.309  0.00  0.00     0.013 A 
BRANCH  28  32
ATOM     32  O   UNL d   1      60.354  44.050  49.044  0.00  0.00    -0.328 OA
ATOM     33  C   UNL d   1      60.210  43.265  48.829  0.00  0.00     0.181 C 
ENDBRANCH  28  32
ENDBRANCH  23  26
ENDBRANCH  22  23
ENDBRANCH   2  22
TORSDOF 6
ENDMDL
