MODEL 1
REMARK VINA RESULT:      -3.0      0.000      0.000
REMARK  5 active torsions:
REMARK  status: ('A' for Active; 'I' for Inactive)
REMARK    1  A    between atoms: S_10  and  C_6 
REMARK    2  A    between atoms: C_14  and  S_10 
REMARK    3  A    between atoms: C_12  and  C_14 
REMARK    4  A    between atoms: O_16  and  C_12 
REMARK    5  A    between atoms: C_18  and  O_16 
ROOT
ATOM      1  C   UNL d   1      32.701  20.934 -21.386  0.00  0.00     0.117 A 
ATOM      2  C   UNL d   1      32.835  21.532 -21.922  0.00  0.00     0.082 A 
ATOM      3  N   UNL d   1      32.838  20.134 -21.612  0.00  0.00    -0.214 NA
ATOM      4  C   UNL d   1      33.104  21.369 -22.683  0.00  0.00     0.283 A 
ATOM      5  N   UNL d   1      33.241  20.569 -22.909  0.00  0.00    -0.183 NA
ATOM      6  C   UNL d   1      33.104  19.967 -22.364  0.00  0.00     0.198 A 
ATOM      7  S   UNL d   1      32.428  21.265 -20.653  0.00  0.00    -0.068 SA
ATOM      8  C   UNL d   1      32.657  22.237 -21.553  0.00  0.00     0.013 A 
ATOM      9  C   UNL d   1      32.399  22.084 -20.753  0.00  0.00     0.031 A 
ATOM     10  O   UNL d   1      33.240  21.991 -23.231  0.00  0.00    -0.265 OA
ATOM     11  C   UNL d   1      32.685  23.017 -21.817  0.00  0.00     0.001 A 
ATOM     12  C   UNL d   1      32.181  22.703 -20.247  0.00  0.00     0.006 A 
ATOM     13  C   UNL d   1      32.468  23.637 -21.311  0.00  0.00     0.000 A 
ATOM     14  C   UNL d   1      32.214  23.462 -20.517  0.00  0.00     0.001 A 
ENDROOT
BRANCH   6  15
ATOM     15  S   UNL d   1      33.241  19.172 -22.588  0.00  0.00    -0.042 SA
BRANCH  15  16
ATOM     16  C   UNL d   1      32.681  18.777 -23.029  0.00  0.00     0.107 C 
BRANCH  16  17
ATOM     17  C   UNL d   1      32.808  17.964 -23.234  0.00  0.00     0.307 C 
ATOM     18  O   UNL d   1      33.133  17.443 -22.689  0.00  0.00    -0.258 OA
BRANCH  17  19
ATOM     19  O   UNL d   1      32.596  17.691 -24.006  0.00  0.00    -0.271 OA
BRANCH  19  20
ATOM     20  C   UNL d   1      32.234  16.951 -24.092  0.00  0.00     0.126 C 
ATOM     21  C   UNL d   1      32.099  16.632 -24.840  0.00  0.00     0.029 C 
ENDBRANCH  19  20
ENDBRANCH  17  19
ENDBRANCH  16  17
ENDBRANCH  15  16
ENDBRANCH   6  15
TORSDOF 5
ENDMDL
MODEL 2
REMARK VINA RESULT:      -2.8      1.120      1.440
REMARK  5 active torsions:
REMARK  status: ('A' for Active; 'I' for Inactive)
REMARK    1  A    between atoms: S_10  and  C_6 
REMARK    2  A    between atoms: C_14  and  S_10 
REMARK    3  A    between atoms: C_12  and  C_14 
REMARK    4  A    between atoms: O_16  and  C_12 
REMARK    5  A    between atoms: C_18  and  O_16 
ROOT
ATOM      1  C   UNL d   1      33.232  21.101 -22.282  0.00  0.00     0.117 A 
ATOM      2  C   UNL d   1      33.228  21.067 -21.468  0.00  0.00     0.082 A 
ATOM      3  N   UNL d   1      33.236  20.387 -22.729  0.00  0.00    -0.214 NA
ATOM      4  C   UNL d   1      33.229  20.345 -21.073  0.00  0.00     0.283 A 
ATOM      5  N   UNL d   1      33.233  19.631 -21.520  0.00  0.00    -0.183 NA
ATOM      6  C   UNL d   1      33.237  19.670 -22.342  0.00  0.00     0.198 A 
ATOM      7  S   UNL d   1      33.231  21.913 -22.533  0.00  0.00    -0.068 SA
ATOM      8  C   UNL d   1      33.225  21.834 -21.191  0.00  0.00     0.013 A 
ATOM      9  C   UNL d   1      33.226  22.377 -21.850  0.00  0.00     0.031 A 
ATOM     10  O   UNL d   1      33.225  20.317 -20.233  0.00  0.00    -0.265 OA
ATOM     11  C   UNL d   1      33.220  22.141 -20.426  0.00  0.00     0.001 A 
ATOM     12  C   UNL d   1      33.223  23.197 -21.730  0.00  0.00     0.006 A 
ATOM     13  C   UNL d   1      33.217  22.961 -20.306  0.00  0.00     0.000 A 
ATOM     14  C   UNL d   1      33.219  23.485 -20.977  0.00  0.00     0.001 A 
ENDROOT
BRANCH   6  15
ATOM     15  S   UNL d   1      33.241  18.959 -22.786  0.00  0.00    -0.042 SA
BRANCH  15  16
ATOM     16  C   UNL d   1      32.535  18.623 -23.014  0.00  0.00     0.107 C 
BRANCH  16  17
ATOM     17  C   UNL d   1      32.533  17.852 -23.363  0.00  0.00     0.307 C 
ATOM     18  O   UNL d   1      33.201  17.564 -23.744  0.00  0.00    -0.258 OA
BRANCH  17  19
ATOM     19  O   UNL d   1      31.835  17.375 -23.317  0.00  0.00    -0.271 OA
BRANCH  19  20
ATOM     20  C   UNL d   1      31.763  16.708 -23.803  0.00  0.00     0.126 C 
ATOM     21  C   UNL d   1      31.052  16.295 -23.848  0.00  0.00     0.029 C 
ENDBRANCH  19  20
ENDBRANCH  17  19
ENDBRANCH  16  17
ENDBRANCH  15  16
ENDBRANCH   6  15
TORSDOF 5
ENDMDL
MODEL 3
REMARK VINA RESULT:      -2.6      1.285      5.120
REMARK  5 active torsions:
REMARK  status: ('A' for Active; 'I' for Inactive)
REMARK    1  A    between atoms: S_10  and  C_6 
REMARK    2  A    between atoms: C_14  and  S_10 
REMARK    3  A    between atoms: C_12  and  C_14 
REMARK    4  A    between atoms: O_16  and  C_12 
REMARK    5  A    between atoms: C_18  and  O_16 
ROOT
ATOM      1  C   UNL d   1      33.115  17.796 -22.960  0.00  0.00     0.117 A 
ATOM      2  C   UNL d   1      32.831  17.941 -23.710  0.00  0.00     0.082 A 
ATOM      3  N   UNL d   1      33.238  18.439 -22.430  0.00  0.00    -0.214 NA
ATOM      4  C   UNL d   1      32.661  18.708 -23.959  0.00  0.00     0.283 A 
ATOM      5  N   UNL d   1      32.785  19.350 -23.429  0.00  0.00    -0.183 NA
ATOM      6  C   UNL d   1      33.072  19.199 -22.672  0.00  0.00     0.198 A 
ATOM      7  S   UNL d   1      33.238  16.961 -22.860  0.00  0.00    -0.068 SA
ATOM      8  C   UNL d   1      32.768  17.224 -24.092  0.00  0.00     0.013 A 
ATOM      9  C   UNL d   1      33.021  16.598 -23.569  0.00  0.00     0.031 A 
ATOM     10  O   UNL d   1      32.368  18.850 -24.734  0.00  0.00    -0.265 OA
ATOM     11  C   UNL d   1      32.516  17.027 -24.852  0.00  0.00     0.001 A 
ATOM     12  C   UNL d   1      33.016  15.806 -23.813  0.00  0.00     0.006 A 
ATOM     13  C   UNL d   1      32.511  16.235 -25.096  0.00  0.00     0.000 A 
ATOM     14  C   UNL d   1      32.767  15.626 -24.558  0.00  0.00     0.001 A 
ENDROOT
BRANCH   6  15
ATOM     15  S   UNL d   1      33.195  19.838 -22.145  0.00  0.00    -0.042 SA
BRANCH  15  16
ATOM     16  C   UNL d   1      32.554  20.236 -21.839  0.00  0.00     0.107 C 
BRANCH  16  17
ATOM     17  C   UNL d   1      32.676  20.853 -21.271  0.00  0.00     0.307 C 
ATOM     18  O   UNL d   1      33.051  20.693 -20.557  0.00  0.00    -0.258 OA
BRANCH  17  19
ATOM     19  O   UNL d   1      32.409  21.637 -21.443  0.00  0.00    -0.271 OA
BRANCH  19  20
ATOM     20  C   UNL d   1      32.286  22.171 -20.821  0.00  0.00     0.126 C 
ATOM     21  C   UNL d   1      32.036  22.942 -20.972  0.00  0.00     0.029 C 
ENDBRANCH  19  20
ENDBRANCH  17  19
ENDBRANCH  16  17
ENDBRANCH  15  16
ENDBRANCH   6  15
TORSDOF 5
ENDMDL
MODEL 4
REMARK VINA RESULT:      -2.2      1.531      5.390
REMARK  5 active torsions:
REMARK  status: ('A' for Active; 'I' for Inactive)
REMARK    1  A    between atoms: S_10  and  C_6 
REMARK    2  A    between atoms: C_14  and  S_10 
REMARK    3  A    between atoms: C_12  and  C_14 
REMARK    4  A    between atoms: O_16  and  C_12 
REMARK    5  A    between atoms: C_18  and  O_16 
ROOT
ATOM      1  C   UNL d   1      31.765  17.936 -23.857  0.00  0.00     0.117 A 
ATOM      2  C   UNL d   1      32.039  17.181 -23.723  0.00  0.00     0.082 A 
ATOM      3  N   UNL d   1      32.172  18.593 -23.521  0.00  0.00    -0.214 NA
ATOM      4  C   UNL d   1      32.710  17.048 -23.263  0.00  0.00     0.283 A 
ATOM      5  N   UNL d   1      33.117  17.704 -22.928  0.00  0.00    -0.183 NA
ATOM      6  C   UNL d   1      32.836  18.466 -23.066  0.00  0.00     0.198 A 
ATOM      7  S   UNL d   1      31.071  17.904 -24.346  0.00  0.00    -0.068 SA
ATOM      8  C   UNL d   1      31.541  16.666 -24.112  0.00  0.00     0.013 A 
ATOM      9  C   UNL d   1      30.927  17.108 -24.508  0.00  0.00     0.031 A 
ATOM     10  O   UNL d   1      32.987  16.266 -23.129  0.00  0.00    -0.265 OA
ATOM     11  C   UNL d   1      31.541  15.844 -24.175  0.00  0.00     0.001 A 
ATOM     12  C   UNL d   1      30.339  16.724 -24.949  0.00  0.00     0.006 A 
ATOM     13  C   UNL d   1      30.954  15.460 -24.616  0.00  0.00     0.000 A 
ATOM     14  C   UNL d   1      30.350  15.920 -25.003  0.00  0.00     0.001 A 
ENDROOT
BRANCH   6  15
ATOM     15  S   UNL d   1      33.241  19.119 -22.732  0.00  0.00    -0.042 SA
BRANCH  15  16
ATOM     16  C   UNL d   1      32.910  19.519 -22.105  0.00  0.00     0.107 C 
BRANCH  16  17
ATOM     17  C   UNL d   1      33.099  20.336 -21.983  0.00  0.00     0.307 C 
ATOM     18  O   UNL d   1      33.241  20.831 -22.623  0.00  0.00    -0.258 OA
BRANCH  17  19
ATOM     19  O   UNL d   1      33.143  20.641 -21.195  0.00  0.00    -0.271 OA
BRANCH  19  20
ATOM     20  C   UNL d   1      33.028  21.451 -21.064  0.00  0.00     0.126 C 
ATOM     21  C   UNL d   1      33.071  21.764 -20.303  0.00  0.00     0.029 C 
ENDBRANCH  19  20
ENDBRANCH  17  19
ENDBRANCH  16  17
ENDBRANCH  15  16
ENDBRANCH   6  15
TORSDOF 5
ENDMDL
MODEL 5
REMARK VINA RESULT:      -2.0      1.417      4.753
REMARK  5 active torsions:
REMARK  status: ('A' for Active; 'I' for Inactive)
REMARK    1  A    between atoms: S_10  and  C_6 
REMARK    2  A    between atoms: C_14  and  S_10 
REMARK    3  A    between atoms: C_12  and  C_14 
REMARK    4  A    between atoms: O_16  and  C_12 
REMARK    5  A    between atoms: C_18  and  O_16 
ROOT
ATOM      1  C   UNL d   1      33.232  19.659 -22.406  0.00  0.00     0.117 A 
ATOM      2  C   UNL d   1      33.234  19.899 -23.184  0.00  0.00     0.082 A 
ATOM      3  N   UNL d   1      33.230  20.236 -21.792  0.00  0.00    -0.214 NA
ATOM      4  C   UNL d   1      33.234  20.699 -23.382  0.00  0.00     0.283 A 
ATOM      5  N   UNL d   1      33.232  21.275 -22.769  0.00  0.00    -0.183 NA
ATOM      6  C   UNL d   1      33.230  21.028 -21.984  0.00  0.00     0.198 A 
ATOM      7  S   UNL d   1      33.233  18.810 -22.370  0.00  0.00    -0.068 SA
ATOM      8  C   UNL d   1      33.236  19.229 -23.648  0.00  0.00     0.013 A 
ATOM      9  C   UNL d   1      33.236  18.536 -23.149  0.00  0.00     0.031 A 
ATOM     10  O   UNL d   1      33.236  20.939 -24.188  0.00  0.00    -0.265 OA
ATOM     11  C   UNL d   1      33.239  19.127 -24.466  0.00  0.00     0.001 A 
ATOM     12  C   UNL d   1      33.237  17.773 -23.474  0.00  0.00     0.006 A 
ATOM     13  C   UNL d   1      33.241  18.364 -24.791  0.00  0.00     0.000 A 
ATOM     14  C   UNL d   1      33.240  17.687 -24.275  0.00  0.00     0.001 A 
ENDROOT
BRANCH   6  15
ATOM     15  S   UNL d   1      33.227  21.602 -21.373  0.00  0.00    -0.042 SA
BRANCH  15  16
ATOM     16  C   UNL d   1      32.526  21.802 -21.012  0.00  0.00     0.107 C 
BRANCH  16  17
ATOM     17  C   UNL d   1      32.486  22.498 -20.530  0.00  0.00     0.307 C 
ATOM     18  O   UNL d   1      32.114  23.176 -20.807  0.00  0.00    -0.258 OA
BRANCH  17  19
ATOM     19  O   UNL d   1      32.834  22.492 -19.759  0.00  0.00    -0.271 OA
BRANCH  19  20
ATOM     20  C   UNL d   1      32.765  23.160 -19.274  0.00  0.00     0.126 C 
ATOM     21  C   UNL d   1      32.859  23.101 -18.458  0.00  0.00     0.029 C 
ENDBRANCH  19  20
ENDBRANCH  17  19
ENDBRANCH  16  17
ENDBRANCH  15  16
ENDBRANCH   6  15
TORSDOF 5
ENDMDL
MODEL 6
REMARK VINA RESULT:      -1.7      3.007      5.766
REMARK  5 active torsions:
REMARK  status: ('A' for Active; 'I' for Inactive)
REMARK    1  A    between atoms: S_10  and  C_6 
REMARK    2  A    between atoms: C_14  and  S_10 
REMARK    3  A    between atoms: C_12  and  C_14 
REMARK    4  A    between atoms: O_16  and  C_12 
REMARK    5  A    between atoms: C_18  and  O_16 
ROOT
ATOM      1  C   UNL d   1      30.047  17.334 -24.246  0.00  0.00     0.117 A 
ATOM      2  C   UNL d   1      30.095  16.605 -23.886  0.00  0.00     0.082 A 
ATOM      3  N   UNL d   1      30.752  17.743 -24.455  0.00  0.00    -0.214 NA
ATOM      4  C   UNL d   1      30.824  16.259 -23.722  0.00  0.00     0.283 A 
ATOM      5  N   UNL d   1      31.530  16.668 -23.930  0.00  0.00    -0.183 NA
ATOM      6  C   UNL d   1      31.476  17.405 -24.294  0.00  0.00     0.198 A 
ATOM      7  S   UNL d   1      29.230  17.548 -24.345  0.00  0.00    -0.068 SA
ATOM      8  C   UNL d   1      29.333  16.346 -23.751  0.00  0.00     0.013 A 
ATOM      9  C   UNL d   1      28.779  16.931 -24.035  0.00  0.00     0.031 A 
ATOM     10  O   UNL d   1      30.867  15.507 -23.349  0.00  0.00    -0.265 OA
ATOM     11  C   UNL d   1      29.040  15.657 -23.407  0.00  0.00     0.001 A 
ATOM     12  C   UNL d   1      27.961  16.813 -23.970  0.00  0.00     0.006 A 
ATOM     13  C   UNL d   1      28.222  15.539 -23.342  0.00  0.00     0.000 A 
ATOM     14  C   UNL d   1      27.687  16.134 -23.631  0.00  0.00     0.001 A 
ENDROOT
BRANCH   6  15
ATOM     15  S   UNL d   1      32.179  17.812 -24.502  0.00  0.00    -0.042 SA
BRANCH  15  16
ATOM     16  C   UNL d   1      32.471  18.388 -24.006  0.00  0.00     0.107 C 
BRANCH  16  17
ATOM     17  C   UNL d   1      32.987  18.984 -24.316  0.00  0.00     0.307 C 
ATOM     18  O   UNL d   1      33.241  18.951 -25.097  0.00  0.00    -0.258 OA
BRANCH  17  19
ATOM     19  O   UNL d   1      33.241  19.617 -23.816  0.00  0.00    -0.271 OA
BRANCH  19  20
ATOM     20  C   UNL d   1      33.221  20.395 -24.100  0.00  0.00     0.126 C 
ATOM     21  C   UNL d   1      33.227  21.034 -23.579  0.00  0.00     0.029 C 
ENDBRANCH  19  20
ENDBRANCH  17  19
ENDBRANCH  16  17
ENDBRANCH  15  16
ENDBRANCH   6  15
TORSDOF 5
ENDMDL
