MODEL 1
REMARK VINA RESULT:      55.3      0.000      0.000
REMARK  6 active torsions:
REMARK  status: ('A' for Active; 'I' for Inactive)
REMARK    1  A    between atoms: N_9  and  C_1 
REMARK    2  A    between atoms: C_15  and  N_4 
REMARK    3  A    between atoms: C_7  and  N_9 
REMARK    4  A    between atoms: C_12  and  C_11 
REMARK    5  A    between atoms: C_13  and  C_12 
REMARK       I    between atoms: N_16  and  C_13 
REMARK    6  A    between atoms: C_20  and  N_16 
ROOT
ATOM      1  N   UNL d   1      14.720  11.779  -2.291  0.00  0.00    -0.182 NA
ATOM      2  C   UNL d   1      13.954  12.089  -2.342  0.00  0.00     0.197 A 
ATOM      3  C   UNL d   1      15.042  12.008  -1.569  0.00  0.00     0.287 A 
ATOM      4  S   UNL d   1      13.805  12.511  -1.645  0.00  0.00    -0.043 SA
ATOM      5  C   UNL d   1      14.475  12.458  -1.174  0.00  0.00     0.095 A 
ATOM      6  O   UNL d   1      15.799  11.817  -1.291  0.00  0.00    -0.265 OA
ENDROOT
BRANCH   2   7
ATOM      7  N   UNL d   1      13.435  11.992  -2.976  0.00  0.00    -0.215 NA
BRANCH   7   8
ATOM      8  C   UNL d   1      13.364  12.579  -3.539  0.00  0.00     0.159 A 
ATOM      9  C   UNL d   1      13.553  13.379  -3.426  0.00  0.00     0.298 A 
ATOM     10  N   UNL d   1      13.397  13.776  -4.138  0.00  0.00    -0.209 N 
ATOM     11  O   UNL d   1      13.841  13.716  -2.736  0.00  0.00    -0.263 OA
ATOM     12  N   UNL d   1      13.115  13.225  -4.682  0.00  0.00    -0.238 N 
ATOM     13  C   UNL d   1      13.095  12.484  -4.311  0.00  0.00     0.104 A 
ATOM     14  C   UNL d   1      12.893  13.379  -5.456  0.00  0.00     0.120 C 
ATOM     15  C   UNL d   1      12.851  11.779  -4.648  0.00  0.00     0.022 C 
BRANCH  10  16
ATOM     16  C   UNL d   1      13.504  14.573  -4.274  0.00  0.00     0.085 A 
ATOM     17  C   UNL d   1      14.239  14.852  -4.537  0.00  0.00     0.019 A 
ATOM     18  C   UNL d   1      14.346  15.650  -4.673  0.00  0.00     0.002 A 
ATOM     19  C   UNL d   1      13.723  16.189  -4.551  0.00  0.00     0.000 A 
ATOM     20  C   UNL d   1      12.993  15.909  -4.289  0.00  0.00     0.002 A 
ATOM     21  C   UNL d   1      12.884  15.103  -4.151  0.00  0.00     0.019 A 
ENDBRANCH  10  16
ENDBRANCH   7   8
ENDBRANCH   2   7
BRANCH   5  22
ATOM     22  C   UNL d   1      14.572  12.798  -0.428  0.00  0.00     0.074 C 
BRANCH  22  23
ATOM     23  C   UNL d   1      14.659  13.612  -0.356  0.00  0.00     0.280 C 
ATOM     24  N   UNL d   1      15.340  13.983  -0.620  0.00  0.00    -0.208 NA
ATOM     25  O   UNL d   1      14.056  14.064  -0.015  0.00  0.00    -0.265 OA
BRANCH  24  26
ATOM     26  C   UNL d   1      15.424  14.796  -0.547  0.00  0.00     0.085 A 
ATOM     27  C   UNL d   1      14.897  15.298  -0.935  0.00  0.00     0.020 A 
ATOM     28  C   UNL d   1      14.979  16.116  -0.863  0.00  0.00     0.013 A 
ATOM     29  C   UNL d   1      15.594  16.427  -0.398  0.00  0.00     0.058 A 
ATOM     30  C   UNL d   1      16.114  15.925  -0.015  0.00  0.00     0.013 A 
ATOM     31 CL   UNL d   1      15.676  17.246  -0.326  0.00  0.00    -0.082 Cl
ATOM     32  C   UNL d   1      16.032  15.106  -0.087  0.00  0.00     0.020 A 
ENDBRANCH  24  26
ENDBRANCH  22  23
ENDBRANCH   5  22
TORSDOF 6
ENDMDL
