MODEL 1
REMARK VINA RESULT:       4.0      0.000      0.000
REMARK  4 active torsions:
REMARK  status: ('A' for Active; 'I' for Inactive)
REMARK    1  A    between atoms: C_2  and  C_1 
REMARK       I    between atoms: N_5  and  C_1 
REMARK    2  A    between atoms: C_4  and  C_2 
REMARK    3  A    between atoms: C_3  and  C_4 
REMARK    4  A    between atoms: C_9  and  N_5 
ROOT
ATOM      1  C   UNL d   1     -54.756-102.459 -38.305  0.00  0.00     0.280 C 
ATOM      2  N   UNL d   1     -54.780-102.875 -37.581  0.00  0.00    -0.208 NA
ATOM      3  O   UNL d   1     -54.776-101.635 -38.324  0.00  0.00    -0.265 OA
ENDROOT
BRANCH   1   4
ATOM      4  C   UNL d   1     -54.713-102.880 -39.008  0.00  0.00     0.069 C 
BRANCH   4   5
ATOM      5  C   UNL d   1     -54.756-102.474 -39.739  0.00  0.00     0.075 C 
BRANCH   5   6
ATOM      6  C   UNL d   1     -55.442-102.549 -40.211  0.00  0.00     0.211 C 
ATOM      7  O   UNL d   1     -55.415-102.319 -41.016  0.00  0.00    -0.644 OA
ATOM      8  O   UNL d   1     -56.151-102.846 -39.901  0.00  0.00    -0.644 OA
ENDBRANCH   5   6
ENDBRANCH   4   5
ENDBRANCH   1   4
BRANCH   2   9
ATOM      9  C   UNL d   1     -54.825-102.442 -36.867  0.00  0.00     0.085 A 
ATOM     10  C   UNL d   1     -54.984-102.831 -36.155  0.00  0.00     0.019 A 
ATOM     11  C   UNL d   1     -55.028-102.412 -35.454  0.00  0.00     0.002 A 
ATOM     12  C   UNL d   1     -54.915-101.597 -35.447  0.00  0.00     0.000 A 
ATOM     13  C   UNL d   1     -54.752-101.193 -36.167  0.00  0.00     0.002 A 
ATOM     14  C   UNL d   1     -54.711-101.629 -36.863  0.00  0.00     0.019 A 
ENDBRANCH   2   9
TORSDOF 4
ENDMDL
