MODEL 1
REMARK VINA RESULT:      23.4      0.000      0.000
REMARK  7 active torsions:
REMARK  status: ('A' for Active; 'I' for Inactive)
REMARK    1  A    between atoms: C_19  and  N_1 
REMARK    2  A    between atoms: C_6  and  C_3 
REMARK    3  A    between atoms: C_9  and  C_6 
REMARK    4  A    between atoms: C_7  and  N_8 
REMARK       I    between atoms: N_8  and  C_11 
REMARK    5  A    between atoms: C_11  and  C_23 
REMARK    6  A    between atoms: C_22  and  C_19 
REMARK    7  A    between atoms: C_23  and  C_22 
ROOT
ATOM      1  C   UNL d   1      46.374 -16.512  43.880  0.00  0.00     0.024 C 
ENDROOT
BRANCH   1   2
ATOM      2  C   UNL d   1      46.114 -17.228  44.158  0.00  0.00     0.084 C 
BRANCH   2   3
ATOM      3  N   UNL d   1      46.258 -17.939  43.764  0.00  0.00    -0.259 N 
ATOM      4  C   UNL d   1      46.320 -18.681  44.137  0.00  0.00     0.153 A 
ATOM      5  S   UNL d   1      46.464 -19.231  43.543  0.00  0.00    -0.053 SA
ATOM      6  S   UNL d   1      46.247 -18.827  44.955  0.00  0.00    -0.052 SA
ATOM      7  C   UNL d   1      46.498 -18.876  42.810  0.00  0.00     0.090 A 
ATOM      8  C   UNL d   1      46.370 -18.079  42.950  0.00  0.00     0.272 A 
ATOM      9  O   UNL d   1      46.357 -17.489  42.341  0.00  0.00    -0.266 OA
BRANCH   7  10
ATOM     10  C   UNL d   1      46.634 -19.251  42.071  0.00  0.00     0.036 C 
BRANCH  10  11
ATOM     11  C   UNL d   1      46.293 -18.969  41.382  0.00  0.00     0.101 A 
ATOM     12  O   UNL d   1      45.610 -18.515  41.207  0.00  0.00    -0.305 OA
ATOM     13  C   UNL d   1      45.581 -18.421  40.378  0.00  0.00     0.123 A 
ATOM     14  C   UNL d   1      46.202 -18.790  40.049  0.00  0.00     0.029 A 
ATOM     15  C   UNL d   1      46.644 -19.128  40.653  0.00  0.00     0.027 A 
ENDBRANCH  10  11
ENDBRANCH   7  10
ENDBRANCH   2   3
ENDBRANCH   1   2
BRANCH   1  16
ATOM     16  C   UNL d   1      46.004 -15.785  44.090  0.00  0.00     0.064 C 
BRANCH  16  17
ATOM     17  C   UNL d   1      45.360 -15.751  44.578  0.00  0.00     0.279 C 
ATOM     18  N   UNL d   1      45.092 -15.031  44.880  0.00  0.00    -0.208 NA
ATOM     19  O   UNL d   1      44.959 -16.452  44.781  0.00  0.00    -0.265 OA
BRANCH  18  20
ATOM     20  C   UNL d   1      45.495 -14.319  44.677  0.00  0.00     0.085 A 
ATOM     21  C   UNL d   1      45.118 -13.776  44.193  0.00  0.00     0.018 A 
ATOM     22  C   UNL d   1      45.505 -13.070  43.986  0.00  0.00     0.002 A 
ATOM     23  C   UNL d   1      44.357 -13.931  43.915  0.00  0.00     0.002 A 
ATOM     24  C   UNL d   1      45.134 -12.525  43.504  0.00  0.00     0.000 A 
ATOM     25  C   UNL d   1      46.276 -12.919  44.271  0.00  0.00     0.000 A 
ATOM     26  C   UNL d   1      44.368 -12.666  43.216  0.00  0.00     0.000 A 
ATOM     27  C   UNL d   1      43.976 -13.378  43.425  0.00  0.00     0.000 A 
ATOM     28  C   UNL d   1      46.647 -13.459  44.749  0.00  0.00     0.002 A 
ATOM     29  C   UNL d   1      46.256 -14.163  44.955  0.00  0.00     0.019 A 
ENDBRANCH  18  20
ENDBRANCH  16  17
ENDBRANCH   1  16
TORSDOF 7
ENDMDL
