MODEL 1
REMARK VINA RESULT:      30.9      0.000      0.000
REMARK  3 active torsions:
REMARK  status: ('A' for Active; 'I' for Inactive)
REMARK    1  A    between atoms: C_9  and  C_3 
REMARK    2  A    between atoms: N_10  and  C_9 
REMARK    3  A    between atoms: C_11  and  C_9 
ROOT
ATOM      1  C   UNL d   1      46.127 -18.402  43.290  0.00  0.00     0.075 C 
ENDROOT
BRANCH   1   2
ATOM      2  C   UNL d   1      45.998 -17.645  43.591  0.00  0.00     0.106 A 
ATOM      3  C   UNL d   1      45.311 -17.187  43.486  0.00  0.00     0.289 A 
ATOM      4  N   UNL d   1      45.417 -16.473  43.878  0.00  0.00    -0.169 N 
ATOM      5  O   UNL d   1      44.640 -17.415  43.060  0.00  0.00    -0.265 OA
ATOM      6  C   UNL d   1      46.165 -16.484  44.226  0.00  0.00     0.200 A 
ATOM      7  N   UNL d   1      45.068 -15.754  44.057  0.00  0.00    -0.141 NA
ATOM      8  S   UNL d   1      46.523 -17.203  44.051  0.00  0.00    -0.042 SA
ATOM      9  N   UNL d   1      46.273 -15.769  44.619  0.00  0.00    -0.200 NA
ATOM     10  C   UNL d   1      45.594 -15.317  44.515  0.00  0.00     0.184 A 
ATOM     11  C   UNL d   1      45.457 -14.559  44.813  0.00  0.00     0.044 C 
ENDBRANCH   1   2
BRANCH   1  12
ATOM     12  N   UNL d   1      46.126 -19.045  43.802  0.00  0.00    -0.300 N 
ATOM     13  C   UNL d   1      45.617 -19.670  43.675  0.00  0.00     0.107 A 
ATOM     14  C   UNL d   1      45.622 -20.317  44.198  0.00  0.00     0.142 A 
ATOM     15  O   UNL d   1      46.137 -20.330  44.841  0.00  0.00    -0.300 OA
ATOM     16  C   UNL d   1      46.645 -19.689  44.955  0.00  0.00     0.142 A 
ATOM     17  C   UNL d   1      46.643 -19.046  44.439  0.00  0.00     0.107 A 
ENDBRANCH   1  12
BRANCH   1  18
ATOM     18  C   UNL d   1      46.255 -18.508  42.488  0.00  0.00     0.017 A 
ATOM     19  C   UNL d   1      46.178 -19.260  42.156  0.00  0.00     0.002 A 
ATOM     20  C   UNL d   1      46.308 -19.370  41.343  0.00  0.00     0.000 A 
ATOM     21  C   UNL d   1      46.510 -18.733  40.883  0.00  0.00     0.000 A 
ATOM     22  C   UNL d   1      46.585 -17.981  41.224  0.00  0.00     0.000 A 
ATOM     23  C   UNL d   1      46.644 -18.830  40.059  0.00  0.00     0.000 C 
ATOM     24  C   UNL d   1      46.459 -17.876  42.016  0.00  0.00     0.002 A 
ENDBRANCH   1  18
TORSDOF 3
ENDMDL
