MODEL 1
REMARK VINA RESULT:      10.7      0.000      0.000
REMARK  5 active torsions:
REMARK  status: ('A' for Active; 'I' for Inactive)
REMARK    1  A    between atoms: N_3  and  C_1 
REMARK       I    between atoms: C_9  and  N_3 
REMARK    2  A    between atoms: C_12  and  C_7 
REMARK    3  A    between atoms: C_17  and  C_9 
REMARK    4  A    between atoms: C_11  and  S_14 
REMARK    5  A    between atoms: S_14  and  C_17 
ROOT
ATOM      1  N   UNL d   1      45.728 -17.609  43.041  0.00  0.00    -0.146 NA
ATOM      2  N   UNL d   1      45.540 -16.957  43.510  0.00  0.00    -0.141 NA
ATOM      3  C   UNL d   1      46.083 -18.276  43.381  0.00  0.00     0.121 A 
ATOM      4  C   UNL d   1      45.700 -16.961  44.312  0.00  0.00     0.133 A 
ATOM      5  C   UNL d   1      46.247 -18.284  44.191  0.00  0.00     0.025 A 
ATOM      6  C   UNL d   1      46.057 -17.632  44.657  0.00  0.00     0.029 A 
ENDROOT
BRANCH   4   7
ATOM      7  S   UNL d   1      45.512 -16.310  44.782  0.00  0.00    -0.061 SA
BRANCH   7   8
ATOM      8  C   UNL d   1      46.015 -15.663  44.816  0.00  0.00     0.099 C 
BRANCH   8   9
ATOM      9  C   UNL d   1      45.711 -14.904  44.688  0.00  0.00     0.288 C 
ATOM     10  N   UNL d   1      46.190 -14.318  44.361  0.00  0.00    -0.182 NA
ATOM     11  O   UNL d   1      44.933 -14.731  44.885  0.00  0.00    -0.265 OA
BRANCH  10  12
ATOM     12  C   UNL d   1      45.900 -13.560  44.229  0.00  0.00     0.197 A 
ATOM     13  N   UNL d   1      45.440 -13.339  43.587  0.00  0.00    -0.221 NA
ATOM     14  C   UNL d   1      45.271 -12.542  43.666  0.00  0.00     0.090 A 
ATOM     15  C   UNL d   1      44.821 -12.081  43.145  0.00  0.00     0.021 C 
ATOM     16  C   UNL d   1      45.629 -12.276  44.357  0.00  0.00     0.058 A 
ATOM     17  S   UNL d   1      46.016 -12.905  44.703  0.00  0.00    -0.046 SA
ENDBRANCH  10  12
ENDBRANCH   8   9
ENDBRANCH   7   8
ENDBRANCH   4   7
BRANCH   3  18
ATOM     18  C   UNL d   1      46.271 -18.926  42.911  0.00  0.00     0.101 A 
ATOM     19  N   UNL d   1      46.439 -18.821  42.122  0.00  0.00    -0.242 NA
ATOM     20  C   UNL d   1      46.626 -19.465  41.653  0.00  0.00     0.099 A 
ATOM     21  C   UNL d   1      46.645 -20.227  41.985  0.00  0.00     0.021 A 
ATOM     22  C   UNL d   1      46.475 -20.330  42.779  0.00  0.00     0.003 A 
ATOM     23  C   UNL d   1      46.286 -19.683  43.256  0.00  0.00     0.021 A 
ENDBRANCH   3  18
TORSDOF 5
ENDMDL
MODEL 2
REMARK VINA RESULT:      13.4      1.380      5.557
REMARK  5 active torsions:
REMARK  status: ('A' for Active; 'I' for Inactive)
REMARK    1  A    between atoms: N_3  and  C_1 
REMARK       I    between atoms: C_9  and  N_3 
REMARK    2  A    between atoms: C_12  and  C_7 
REMARK    3  A    between atoms: C_17  and  C_9 
REMARK    4  A    between atoms: C_11  and  S_14 
REMARK    5  A    between atoms: S_14  and  C_17 
ROOT
ATOM      1  N   UNL d   1      45.021 -15.039  43.973  0.00  0.00    -0.146 NA
ATOM      2  N   UNL d   1      45.105 -15.850  44.098  0.00  0.00    -0.141 NA
ATOM      3  C   UNL d   1      45.538 -14.507  44.340  0.00  0.00     0.121 A 
ATOM      4  C   UNL d   1      45.697 -16.137  44.583  0.00  0.00     0.133 A 
ATOM      5  C   UNL d   1      46.138 -14.793  44.832  0.00  0.00     0.025 A 
ATOM      6  C   UNL d   1      46.220 -15.603  44.954  0.00  0.00     0.029 A 
ENDROOT
BRANCH   4   7
ATOM      7  S   UNL d   1      45.782 -16.948  44.708  0.00  0.00    -0.061 SA
BRANCH   7   8
ATOM      8  C   UNL d   1      46.437 -17.348  44.419  0.00  0.00     0.099 C 
BRANCH   8   9
ATOM      9  C   UNL d   1      46.341 -18.094  44.077  0.00  0.00     0.288 C 
ATOM     10  N   UNL d   1      46.647 -18.248  43.327  0.00  0.00    -0.182 NA
ATOM     11  O   UNL d   1      45.941 -18.686  44.482  0.00  0.00    -0.265 OA
BRANCH  10  12
ATOM     12  C   UNL d   1      46.558 -18.987  42.977  0.00  0.00     0.197 A 
ATOM     13  N   UNL d   1      46.583 -19.130  42.171  0.00  0.00    -0.221 NA
ATOM     14  C   UNL d   1      46.470 -19.932  42.057  0.00  0.00     0.090 A 
ATOM     15  C   UNL d   1      46.453 -20.328  41.329  0.00  0.00     0.021 C 
ATOM     16  C   UNL d   1      46.377 -20.280  42.796  0.00  0.00     0.058 A 
ATOM     17  S   UNL d   1      46.431 -19.696  43.362  0.00  0.00    -0.046 SA
ENDBRANCH  10  12
ENDBRANCH   8   9
ENDBRANCH   7   8
ENDBRANCH   4   7
BRANCH   3  18
ATOM     18  C   UNL d   1      45.453 -13.697  44.215  0.00  0.00     0.101 A 
ATOM     19  N   UNL d   1      45.947 -13.175  44.597  0.00  0.00    -0.242 NA
ATOM     20  C   UNL d   1      45.866 -12.370  44.475  0.00  0.00     0.099 A 
ATOM     21  C   UNL d   1      45.277 -12.086  43.960  0.00  0.00     0.021 A 
ATOM     22  C   UNL d   1      44.783 -12.614  43.578  0.00  0.00     0.003 A 
ATOM     23  C   UNL d   1      44.861 -13.428  43.697  0.00  0.00     0.021 A 
ENDBRANCH   3  18
TORSDOF 5
ENDMDL
