MODEL 1
REMARK VINA RESULT:      -7.5      0.000      0.000
REMARK  1 active torsions:
REMARK  status: ('A' for Active; 'I' for Inactive)
REMARK    1  A    between atoms: C_6  and  C_1 
ROOT
ATOM      1  C   UNL d   1     -48.608  14.369  22.875  0.00  0.00     0.163 A 
ATOM      2  N   UNL d   1     -48.487  13.583  23.092  0.00  0.00    -0.225 NA
ATOM      3  N   UNL d   1     -47.878  14.724  22.686  0.00  0.00    -0.225 NA
ATOM      4  C   UNL d   1     -47.671  13.423  23.044  0.00  0.00     0.101 A 
ATOM      5  C   UNL d   1     -47.289  14.138  22.790  0.00  0.00     0.101 A 
ATOM      6  C   UNL d   1     -47.219  12.770  23.183  0.00  0.00     0.021 A 
ATOM      7  C   UNL d   1     -46.482  14.149  22.693  0.00  0.00     0.021 A 
ATOM      8  C   UNL d   1     -46.400  12.800  23.079  0.00  0.00     0.002 A 
ATOM      9  C   UNL d   1     -46.045  13.465  22.843  0.00  0.00     0.002 A 
ENDROOT
BRANCH   1  10
ATOM     10  C   UNL d   1     -49.351  14.730  22.855  0.00  0.00     0.039 A 
ATOM     11  C   UNL d   1     -49.938  14.510  22.320  0.00  0.00     0.024 A 
ATOM     12  C   UNL d   1     -50.669  14.882  22.318  0.00  0.00     0.099 A 
ATOM     13  N   UNL d   1     -50.872  15.484  22.829  0.00  0.00    -0.242 NA
ATOM     14  C   UNL d   1     -50.276  15.722  23.387  0.00  0.00     0.099 A 
ATOM     15  C   UNL d   1     -49.519  15.336  23.389  0.00  0.00     0.024 A 
ENDBRANCH   1  10
TORSDOF 1
ENDMDL
MODEL 2
REMARK VINA RESULT:      -7.3      0.973      3.539
REMARK  1 active torsions:
REMARK  status: ('A' for Active; 'I' for Inactive)
REMARK    1  A    between atoms: C_6  and  C_1 
ROOT
ATOM      1  C   UNL d   1     -48.321  13.665  22.693  0.00  0.00     0.163 A 
ATOM      2  N   UNL d   1     -48.733  13.304  22.077  0.00  0.00    -0.225 NA
ATOM      3  N   UNL d   1     -48.796  14.255  23.041  0.00  0.00    -0.225 NA
ATOM      4  C   UNL d   1     -49.484  13.662  22.022  0.00  0.00     0.101 A 
ATOM      5  C   UNL d   1     -49.523  14.257  22.626  0.00  0.00     0.101 A 
ATOM      6  C   UNL d   1     -50.122  13.553  21.541  0.00  0.00     0.021 A 
ATOM      7  C   UNL d   1     -50.198  14.703  22.706  0.00  0.00     0.021 A 
ATOM      8  C   UNL d   1     -50.799  14.015  21.638  0.00  0.00     0.002 A 
ATOM      9  C   UNL d   1     -50.836  14.569  22.200  0.00  0.00     0.002 A 
ENDROOT
BRANCH   1  10
ATOM     10  C   UNL d   1     -47.553  13.456  22.915  0.00  0.00     0.039 A 
ATOM     11  C   UNL d   1     -46.908  13.958  22.809  0.00  0.00     0.024 A 
ATOM     12  C   UNL d   1     -46.154  13.731  23.037  0.00  0.00     0.099 A 
ATOM     13  N   UNL d   1     -45.982  13.010  23.378  0.00  0.00    -0.242 NA
ATOM     14  C   UNL d   1     -46.638  12.481  23.493  0.00  0.00     0.099 A 
ATOM     15  C   UNL d   1     -47.419  12.717  23.257  0.00  0.00     0.024 A 
ENDBRANCH   1  10
TORSDOF 1
ENDMDL
MODEL 3
REMARK VINA RESULT:      -7.1      1.678      2.100
REMARK  1 active torsions:
REMARK  status: ('A' for Active; 'I' for Inactive)
REMARK    1  A    between atoms: C_6  and  C_1 
ROOT
ATOM      1  C   UNL d   1     -48.631  12.886  22.994  0.00  0.00     0.163 A 
ATOM      2  N   UNL d   1     -48.373  13.668  22.968  0.00  0.00    -0.225 NA
ATOM      3  N   UNL d   1     -47.974  12.372  22.990  0.00  0.00    -0.225 NA
ATOM      4  C   UNL d   1     -47.540  13.666  22.947  0.00  0.00     0.101 A 
ATOM      5  C   UNL d   1     -47.290  12.854  22.961  0.00  0.00     0.101 A 
ATOM      6  C   UNL d   1     -46.979  14.245  22.919  0.00  0.00     0.021 A 
ATOM      7  C   UNL d   1     -46.496  12.679  22.946  0.00  0.00     0.021 A 
ATOM      8  C   UNL d   1     -46.178  14.047  22.904  0.00  0.00     0.002 A 
ATOM      9  C   UNL d   1     -45.945  13.292  22.917  0.00  0.00     0.002 A 
ENDROOT
BRANCH   1  10
ATOM     10  C   UNL d   1     -49.427  12.666  23.019  0.00  0.00     0.039 A 
ATOM     11  C   UNL d   1     -49.781  12.355  23.696  0.00  0.00     0.024 A 
ATOM     12  C   UNL d   1     -50.573  12.143  23.698  0.00  0.00     0.099 A 
ATOM     13  N   UNL d   1     -51.064  12.220  23.052  0.00  0.00    -0.242 NA
ATOM     14  C   UNL d   1     -50.713  12.540  22.346  0.00  0.00     0.099 A 
ATOM     15  C   UNL d   1     -49.893  12.758  22.344  0.00  0.00     0.024 A 
ENDBRANCH   1  10
TORSDOF 1
ENDMDL
