MODEL 1
REMARK VINA RESULT:      -2.1      0.000      0.000
REMARK  10 active torsions:
REMARK  status: ('A' for Active; 'I' for Inactive)
REMARK    1  A    between atoms: C_9  and  S_1 
REMARK    2  A    between atoms: N_20  and  S_1 
REMARK    3  A    between atoms: S_2  and  C_10 
REMARK    4  A    between atoms: N_19  and  S_2 
REMARK    5  A    between atoms: C_28  and  N_19 
REMARK    6  A    between atoms: C_29  and  N_20 
REMARK    7  A    between atoms: C_24  and  C_28 
REMARK    8  A    between atoms: C_30  and  C_24 
REMARK    9  A    between atoms: C_25  and  C_29 
REMARK   10  A    between atoms: C_31  and  C_25 
ROOT
ATOM      1  C   UNL d   1      56.254  -1.605  32.151  0.00  0.00     0.300 A 
ATOM      2  C   UNL d   1      56.169  -0.847  32.446  0.00  0.00     0.064 A 
ATOM      3  C   UNL d   1      57.248  -1.147  31.239  0.00  0.00     0.104 A 
ATOM      4  O   UNL d   1      56.791  -1.757  31.550  0.00  0.00    -0.273 OA
ATOM      5  C   UNL d   1      56.623  -0.236  32.139  0.00  0.00     0.007 A 
ATOM      6  C   UNL d   1      57.166  -0.381  31.533  0.00  0.00     0.023 A 
ATOM      7  C   UNL d   1      55.543   0.064  33.346  0.00  0.00     0.105 A 
ATOM      8  C   UNL d   1      58.244  -0.697  30.323  0.00  0.00     0.107 A 
ATOM      9  C   UNL d   1      55.634  -0.697  33.045  0.00  0.00     0.018 A 
ATOM     10  C   UNL d   1      57.788  -1.302  30.633  0.00  0.00     0.038 A 
ATOM     11  C   UNL d   1      56.540   0.530  32.433  0.00  0.00     0.001 A 
ATOM     12  C   UNL d   1      57.622   0.229  31.222  0.00  0.00     0.003 A 
ATOM     13  O   UNL d   1      55.800  -2.225  32.456  0.00  0.00    -0.259 OA
ATOM     14  C   UNL d   1      56.003   0.682  33.035  0.00  0.00     0.013 A 
ATOM     15  C   UNL d   1      58.162   0.074  30.617  0.00  0.00     0.013 A 
ENDROOT
BRANCH   7  16
ATOM     16  S   UNL d   1      55.003   0.216  33.951  0.00  0.00     0.285 S 
ATOM     17  O   UNL d   1      54.250   0.488  33.764  0.00  0.00    -0.198 OA
ATOM     18  O   UNL d   1      55.221   0.093  34.744  0.00  0.00    -0.198 OA
BRANCH  16  19
ATOM     19  N   UNL d   1      54.454   0.371  34.548  0.00  0.00    -0.157 NA
BRANCH  19  20
ATOM     20  C   UNL d   1      53.680   0.576  34.354  0.00  0.00     0.116 C 
BRANCH  20  21
ATOM     21  C   UNL d   1      53.081   0.498  34.918  0.00  0.00     0.067 C 
BRANCH  21  22
ATOM     22  C   UNL d   1      52.301   0.682  34.720  0.00  0.00     0.236 C 
ATOM     23  O   UNL d   1      51.682   0.384  35.179  0.00  0.00    -0.283 OA
ENDBRANCH  21  22
ENDBRANCH  20  21
ENDBRANCH  19  20
ENDBRANCH  16  19
ENDBRANCH   7  16
BRANCH   8  24
ATOM     24  S   UNL d   1      58.786  -0.845  29.717  0.00  0.00     0.285 S 
ATOM     25  O   UNL d   1      58.564  -1.305  29.070  0.00  0.00    -0.198 OA
ATOM     26  O   UNL d   1      59.545  -0.532  29.761  0.00  0.00    -0.198 OA
BRANCH  24  27
ATOM     27  N   UNL d   1      59.333  -0.988  29.115  0.00  0.00    -0.157 NA
BRANCH  27  28
ATOM     28  C   UNL d   1      60.118  -0.755  29.207  0.00  0.00     0.116 C 
BRANCH  28  29
ATOM     29  C   UNL d   1      60.717  -1.316  29.284  0.00  0.00     0.067 C 
BRANCH  29  30
ATOM     30  C   UNL d   1      60.999  -1.724  28.626  0.00  0.00     0.236 C 
ATOM     31  O   UNL d   1      61.116  -2.541  28.664  0.00  0.00    -0.283 OA
ENDBRANCH  29  30
ENDBRANCH  28  29
ENDBRANCH  27  28
ENDBRANCH  24  27
ENDBRANCH   8  24
TORSDOF 10
ENDMDL
MODEL 2
REMARK VINA RESULT:       0.1      0.987      6.468
REMARK  10 active torsions:
REMARK  status: ('A' for Active; 'I' for Inactive)
REMARK    1  A    between atoms: C_9  and  S_1 
REMARK    2  A    between atoms: N_20  and  S_1 
REMARK    3  A    between atoms: S_2  and  C_10 
REMARK    4  A    between atoms: N_19  and  S_2 
REMARK    5  A    between atoms: C_28  and  N_19 
REMARK    6  A    between atoms: C_29  and  N_20 
REMARK    7  A    between atoms: C_24  and  C_28 
REMARK    8  A    between atoms: C_30  and  C_24 
REMARK    9  A    between atoms: C_25  and  C_29 
REMARK   10  A    between atoms: C_31  and  C_25 
ROOT
ATOM      1  C   UNL d   1      57.260  -1.535  30.643  0.00  0.00     0.300 A 
ATOM      2  C   UNL d   1      57.930  -1.094  30.484  0.00  0.00     0.064 A 
ATOM      3  C   UNL d   1      56.922  -0.650  31.708  0.00  0.00     0.104 A 
ATOM      4  O   UNL d   1      56.756  -1.316  31.253  0.00  0.00    -0.273 OA
ATOM      5  C   UNL d   1      58.098  -0.429  30.935  0.00  0.00     0.007 A 
ATOM      6  C   UNL d   1      57.596  -0.202  31.551  0.00  0.00     0.023 A 
ATOM      7  C   UNL d   1      59.106  -0.874  29.711  0.00  0.00     0.105 A 
ATOM      8  C   UNL d   1      56.576   0.230  32.775  0.00  0.00     0.107 A 
ATOM      9  C   UNL d   1      58.431  -1.313  29.876  0.00  0.00     0.018 A 
ATOM     10  C   UNL d   1      56.413  -0.431  32.321  0.00  0.00     0.038 A 
ATOM     11  C   UNL d   1      58.773   0.018  30.778  0.00  0.00     0.001 A 
ATOM     12  C   UNL d   1      57.762   0.463  32.006  0.00  0.00     0.003 A 
ATOM     13  O   UNL d   1      57.084  -2.205  30.193  0.00  0.00    -0.259 OA
ATOM     14  C   UNL d   1      59.277  -0.201  30.168  0.00  0.00     0.013 A 
ATOM     15  C   UNL d   1      57.254   0.682  32.619  0.00  0.00     0.013 A 
ENDROOT
BRANCH   7  16
ATOM     16  S   UNL d   1      59.612  -1.095  29.098  0.00  0.00     0.285 S 
ATOM     17  O   UNL d   1      59.839  -1.882  29.022  0.00  0.00    -0.198 OA
ATOM     18  O   UNL d   1      59.889  -0.524  28.561  0.00  0.00    -0.198 OA
BRANCH  16  19
ATOM     19  N   UNL d   1      60.118  -1.328  28.488  0.00  0.00    -0.157 NA
BRANCH  19  20
ATOM     20  C   UNL d   1      60.703  -1.891  28.628  0.00  0.00     0.116 C 
BRANCH  20  21
ATOM     21  C   UNL d   1      60.538  -2.692  28.512  0.00  0.00     0.067 C 
BRANCH  21  22
ATOM     22  C   UNL d   1      61.040  -3.266  28.828  0.00  0.00     0.236 C 
ATOM     23  O   UNL d   1      60.988  -4.046  28.560  0.00  0.00    -0.283 OA
ENDBRANCH  21  22
ENDBRANCH  20  21
ENDBRANCH  19  20
ENDBRANCH  16  19
ENDBRANCH   7  16
BRANCH   8  24
ATOM     24  S   UNL d   1      56.072   0.455  33.390  0.00  0.00     0.285 S 
ATOM     25  O   UNL d   1      56.368   0.536  34.155  0.00  0.00    -0.198 OA
ATOM     26  O   UNL d   1      55.277   0.598  33.237  0.00  0.00    -0.198 OA
BRANCH  24  27
ATOM     27  N   UNL d   1      55.562   0.680  33.999  0.00  0.00    -0.157 NA
BRANCH  27  28
ATOM     28  C   UNL d   1      54.780   0.422  33.999  0.00  0.00     0.116 C 
BRANCH  28  29
ATOM     29  C   UNL d   1      54.276   0.608  34.626  0.00  0.00     0.067 C 
BRANCH  29  30
ATOM     30  C   UNL d   1      53.485   0.376  34.612  0.00  0.00     0.236 C 
ATOM     31  O   UNL d   1      52.955   0.679  35.168  0.00  0.00    -0.283 OA
ENDBRANCH  29  30
ENDBRANCH  28  29
ENDBRANCH  27  28
ENDBRANCH  24  27
ENDBRANCH   8  24
TORSDOF 10
ENDMDL
