MODEL 1
REMARK VINA RESULT:      -2.8      0.000      0.000
REMARK  1 active torsions:
REMARK  status: ('A' for Active; 'I' for Inactive)
REMARK    1  A    between atoms: C_10  and  C_7 
ROOT
ATOM      1  N   UNL d   1      32.089  17.621 -24.007  0.00  0.00    -0.259 N 
ATOM      2  C   UNL d   1      32.147  17.268 -24.767  0.00  0.00     0.202 A 
ATOM      3  C   UNL d   1      32.762  18.052 -23.900  0.00  0.00     0.227 A 
ATOM      4  C   UNL d   1      31.407  17.396 -23.697  0.00  0.00     0.091 A 
ATOM      5  S   UNL d   1      31.491  16.833 -24.900  0.00  0.00    -0.047 SA
ATOM      6  N   UNL d   1      32.857  17.499 -25.096  0.00  0.00    -0.121 NA
ATOM      7  C   UNL d   1      31.030  16.915 -24.229  0.00  0.00     0.050 A 
ATOM      8  N   UNL d   1      33.241  17.996 -24.541  0.00  0.00    -0.116 NA
ATOM      9  S   UNL d   1      32.926  18.508 -23.182  0.00  0.00    -0.036 SA
ENDROOT
BRANCH   7  10
ATOM     10  C   UNL d   1      30.309  16.594 -24.065  0.00  0.00     0.007 A 
ATOM     11  C   UNL d   1      29.637  16.965 -24.376  0.00  0.00     0.001 A 
ATOM     12  C   UNL d   1      28.883  16.665 -24.229  0.00  0.00     0.000 A 
ATOM     13  C   UNL d   1      28.831  15.970 -23.751  0.00  0.00     0.000 A 
ATOM     14  C   UNL d   1      29.493  15.599 -23.440  0.00  0.00     0.000 A 
ATOM     15  C   UNL d   1      28.063  15.579 -23.542  0.00  0.00     0.000 C 
ATOM     16  C   UNL d   1      30.241  15.910 -23.595  0.00  0.00     0.001 A 
ENDBRANCH   7  10
TORSDOF 1
ENDMDL
MODEL 2
REMARK VINA RESULT:      -2.7      4.671      5.980
REMARK  1 active torsions:
REMARK  status: ('A' for Active; 'I' for Inactive)
REMARK    1  A    between atoms: C_10  and  C_7 
ROOT
ATOM      1  N   UNL d   1      32.524  22.429 -20.836  0.00  0.00    -0.259 N 
ATOM      2  C   UNL d   1      32.992  22.061 -20.244  0.00  0.00     0.202 A 
ATOM      3  C   UNL d   1      32.287  23.139 -20.535  0.00  0.00     0.227 A 
ATOM      4  C   UNL d   1      32.497  21.942 -21.447  0.00  0.00     0.091 A 
ATOM      5  S   UNL d   1      33.241  21.352 -20.515  0.00  0.00    -0.047 SA
ATOM      6  N   UNL d   1      33.024  22.564 -19.601  0.00  0.00    -0.121 NA
ATOM      7  C   UNL d   1      32.930  21.281 -21.268  0.00  0.00     0.050 A 
ATOM      8  N   UNL d   1      32.575  23.244 -19.795  0.00  0.00    -0.116 NA
ATOM      9  S   UNL d   1      31.790  23.698 -20.972  0.00  0.00    -0.036 SA
ENDROOT
BRANCH   7  10
ATOM     10  C   UNL d   1      33.006  20.676 -21.795  0.00  0.00     0.007 A 
ATOM     11  C   UNL d   1      33.150  20.864 -22.588  0.00  0.00     0.001 A 
ATOM     12  C   UNL d   1      33.234  20.271 -23.156  0.00  0.00     0.000 A 
ATOM     13  C   UNL d   1      33.165  19.472 -22.890  0.00  0.00     0.000 A 
ATOM     14  C   UNL d   1      33.022  19.279 -22.105  0.00  0.00     0.000 A 
ATOM     15  C   UNL d   1      33.241  18.772 -23.428  0.00  0.00     0.000 C 
ATOM     16  C   UNL d   1      32.941  19.882 -21.549  0.00  0.00     0.001 A 
ENDBRANCH   7  10
TORSDOF 1
ENDMDL
MODEL 3
REMARK VINA RESULT:      -2.6      1.957      3.607
REMARK  1 active torsions:
REMARK  status: ('A' for Active; 'I' for Inactive)
REMARK    1  A    between atoms: C_10  and  C_7 
ROOT
ATOM      1  N   UNL d   1      29.421  16.443 -24.219  0.00  0.00    -0.259 N 
ATOM      2  C   UNL d   1      29.747  16.017 -24.865  0.00  0.00     0.202 A 
ATOM      3  C   UNL d   1      28.692  16.128 -24.079  0.00  0.00     0.227 A 
ATOM      4  C   UNL d   1      29.948  16.978 -24.004  0.00  0.00     0.091 A 
ATOM      5  S   UNL d   1      30.472  16.308 -25.028  0.00  0.00    -0.047 SA
ATOM      6  N   UNL d   1      29.200  15.455 -25.096  0.00  0.00    -0.121 NA
ATOM      7  C   UNL d   1      30.595  16.909 -24.487  0.00  0.00     0.050 A 
ATOM      8  N   UNL d   1      28.535  15.533 -24.592  0.00  0.00    -0.116 NA
ATOM      9  S   UNL d   1      28.165  16.411 -23.452  0.00  0.00    -0.036 SA
ENDROOT
BRANCH   7  10
ATOM     10  C   UNL d   1      31.236  17.391 -24.399  0.00  0.00     0.007 A 
ATOM     11  C   UNL d   1      31.393  17.944 -24.995  0.00  0.00     0.001 A 
ATOM     12  C   UNL d   1      32.039  18.454 -24.939  0.00  0.00     0.000 A 
ATOM     13  C   UNL d   1      32.527  18.384 -24.253  0.00  0.00     0.000 A 
ATOM     14  C   UNL d   1      32.376  17.838 -23.659  0.00  0.00     0.000 A 
ATOM     15  C   UNL d   1      33.241  18.889 -24.109  0.00  0.00     0.000 C 
ATOM     16  C   UNL d   1      31.726  17.335 -23.728  0.00  0.00     0.001 A 
ENDBRANCH   7  10
TORSDOF 1
ENDMDL
MODEL 4
REMARK VINA RESULT:      -2.4      2.494      3.299
REMARK  1 active torsions:
REMARK  status: ('A' for Active; 'I' for Inactive)
REMARK    1  A    between atoms: C_10  and  C_7 
ROOT
ATOM      1  N   UNL d   1      32.992  19.828 -22.353  0.00  0.00    -0.259 N 
ATOM      2  C   UNL d   1      33.088  20.058 -23.155  0.00  0.00     0.202 A 
ATOM      3  C   UNL d   1      33.090  20.494 -21.908  0.00  0.00     0.227 A 
ATOM      4  C   UNL d   1      32.846  19.060 -22.347  0.00  0.00     0.091 A 
ATOM      5  S   UNL d   1      32.996  19.416 -23.620  0.00  0.00    -0.047 SA
ATOM      6  N   UNL d   1      33.241  20.860 -23.169  0.00  0.00    -0.121 NA
ATOM      7  C   UNL d   1      32.845  18.793 -23.111  0.00  0.00     0.050 A 
ATOM      8  N   UNL d   1      33.241  21.128 -22.375  0.00  0.00    -0.116 NA
ATOM      9  S   UNL d   1      33.036  20.500 -21.044  0.00  0.00    -0.036 SA
ENDROOT
BRANCH   7  10
ATOM     10  C   UNL d   1      32.709  18.017 -23.283  0.00  0.00     0.007 A 
ATOM     11  C   UNL d   1      32.033  17.828 -23.723  0.00  0.00     0.001 A 
ATOM     12  C   UNL d   1      31.861  17.045 -23.918  0.00  0.00     0.000 A 
ATOM     13  C   UNL d   1      32.402  16.454 -23.650  0.00  0.00     0.000 A 
ATOM     14  C   UNL d   1      33.073  16.635 -23.214  0.00  0.00     0.000 A 
ATOM     15  C   UNL d   1      32.298  15.588 -23.812  0.00  0.00     0.000 C 
ATOM     16  C   UNL d   1      33.232  17.422 -23.026  0.00  0.00     0.001 A 
ENDBRANCH   7  10
TORSDOF 1
ENDMDL
MODEL 5
REMARK VINA RESULT:      -2.0      4.894      6.518
REMARK  1 active torsions:
REMARK  status: ('A' for Active; 'I' for Inactive)
REMARK    1  A    between atoms: C_10  and  C_7 
ROOT
ATOM      1  N   UNL d   1      33.064  21.116 -22.362  0.00  0.00    -0.259 N 
ATOM      2  C   UNL d   1      32.998  20.442 -21.866  0.00  0.00     0.202 A 
ATOM      3  C   UNL d   1      33.153  20.840 -23.115  0.00  0.00     0.227 A 
ATOM      4  C   UNL d   1      33.016  21.748 -21.905  0.00  0.00     0.091 A 
ATOM      5  S   UNL d   1      32.909  20.685 -21.111  0.00  0.00    -0.047 SA
ATOM      6  N   UNL d   1      33.048  19.777 -22.337  0.00  0.00    -0.121 NA
ATOM      7  C   UNL d   1      32.921  21.503 -21.139  0.00  0.00     0.050 A 
ATOM      8  N   UNL d   1      33.146  20.039 -23.128  0.00  0.00    -0.116 NA
ATOM      9  S   UNL d   1      33.241  21.358 -23.803  0.00  0.00    -0.036 SA
ENDROOT
BRANCH   7  10
ATOM     10  C   UNL d   1      32.853  22.034 -20.535  0.00  0.00     0.007 A 
ATOM     11  C   UNL d   1      33.233  21.862 -19.820  0.00  0.00     0.001 A 
ATOM     12  C   UNL d   1      33.186  22.381 -19.181  0.00  0.00     0.000 A 
ATOM     13  C   UNL d   1      32.737  23.088 -19.291  0.00  0.00     0.000 A 
ATOM     14  C   UNL d   1      32.359  23.264 -19.998  0.00  0.00     0.000 A 
ATOM     15  C   UNL d   1      32.633  23.702 -18.661  0.00  0.00     0.000 C 
ATOM     16  C   UNL d   1      32.414  22.736 -20.628  0.00  0.00     0.001 A 
ENDBRANCH   7  10
TORSDOF 1
ENDMDL
MODEL 6
REMARK VINA RESULT:      -1.1      1.954      3.748
REMARK  1 active torsions:
REMARK  status: ('A' for Active; 'I' for Inactive)
REMARK    1  A    between atoms: C_10  and  C_7 
ROOT
ATOM      1  N   UNL d   1      32.037  16.602 -24.237  0.00  0.00    -0.259 N 
ATOM      2  C   UNL d   1      32.821  16.547 -24.532  0.00  0.00     0.202 A 
ATOM      3  C   UNL d   1      31.641  15.955 -24.510  0.00  0.00     0.227 A 
ATOM      4  C   UNL d   1      31.994  17.258 -23.813  0.00  0.00     0.091 A 
ATOM      5  S   UNL d   1      33.239  17.178 -24.276  0.00  0.00    -0.047 SA
ATOM      6  N   UNL d   1      32.874  15.864 -24.976  0.00  0.00    -0.121 NA
ATOM      7  C   UNL d   1      32.718  17.620 -23.827  0.00  0.00     0.050 A 
ATOM      8  N   UNL d   1      32.122  15.495 -24.956  0.00  0.00    -0.116 NA
ATOM      9  S   UNL d   1      30.808  15.797 -24.332  0.00  0.00    -0.036 SA
ENDROOT
BRANCH   7  10
ATOM     10  C   UNL d   1      32.846  18.314 -23.436  0.00  0.00     0.007 A 
ATOM     11  C   UNL d   1      33.091  18.278 -22.646  0.00  0.00     0.001 A 
ATOM     12  C   UNL d   1      33.231  18.967 -22.214  0.00  0.00     0.000 A 
ATOM     13  C   UNL d   1      33.114  19.702 -22.614  0.00  0.00     0.000 A 
ATOM     14  C   UNL d   1      32.872  19.745 -23.397  0.00  0.00     0.000 A 
ATOM     15  C   UNL d   1      33.241  20.490 -22.230  0.00  0.00     0.000 C 
ATOM     16  C   UNL d   1      32.735  19.047 -23.816  0.00  0.00     0.001 A 
ENDBRANCH   7  10
TORSDOF 1
ENDMDL
