MODEL 1
REMARK VINA RESULT:      -6.8      0.000      0.000
REMARK  6 active torsions:
REMARK  status: ('A' for Active; 'I' for Inactive)
REMARK    1  A    between atoms: C_2  and  S_1 
REMARK    2  A    between atoms: N_10  and  S_1 
REMARK    3  A    between atoms: O_16  and  C_7 
REMARK    4  A    between atoms: C_13  and  N_10 
REMARK    5  A    between atoms: N_11  and  C_17 
REMARK    6  A    between atoms: C_17  and  C_13 
ROOT
ATOM      1  S   UNL d   1     -47.227  13.584  22.699  0.00  0.00     0.286 S 
ATOM      2  O   UNL d   1     -47.072  13.914  23.445  0.00  0.00    -0.198 OA
ATOM      3  O   UNL d   1     -47.379  13.259  21.967  0.00  0.00    -0.198 OA
ENDROOT
BRANCH   1   4
ATOM      4  C   UNL d   1     -46.828  12.898  22.920  0.00  0.00     0.117 A 
ATOM      5  C   UNL d   1     -47.251  12.245  23.197  0.00  0.00     0.027 A 
ATOM      6  C   UNL d   1     -46.852  11.558  23.419  0.00  0.00     0.081 A 
ATOM      7 CL   UNL d   1     -47.277  10.900  23.697  0.00  0.00    -0.080 Cl
ATOM      8  C   UNL d   1     -46.029  11.523  23.364  0.00  0.00     0.105 A 
ATOM      9  C   UNL d   1     -45.614  12.171  23.089  0.00  0.00     0.037 A 
ATOM     10  C   UNL d   1     -46.013  12.858  22.868  0.00  0.00     0.072 A 
ATOM     11 CL   UNL d   1     -45.589  13.506  22.593  0.00  0.00    -0.082 Cl
BRANCH   8  12
ATOM     12  O   UNL d   1     -45.629  10.835  23.585  0.00  0.00    -0.327 OA
ATOM     13  C   UNL d   1     -44.861  10.700  23.316  0.00  0.00     0.181 C 
ENDBRANCH   8  12
ENDBRANCH   1   4
BRANCH   1  14
ATOM     14  N   UNL d   1     -47.626  14.271  22.478  0.00  0.00    -0.155 NA
BRANCH  14  15
ATOM     15  C   UNL d   1     -48.376  14.416  22.761  0.00  0.00     0.131 C 
BRANCH  15  16
ATOM     16  C   UNL d   1     -48.869  14.950  22.370  0.00  0.00     0.102 C 
BRANCH  16  17
ATOM     17  N   UNL d   1     -49.595  15.159  22.700  0.00  0.00    -0.298 N 
ATOM     18  C   UNL d   1     -50.296  14.879  22.367  0.00  0.00     0.107 A 
ATOM     19  C   UNL d   1     -51.022  15.088  22.697  0.00  0.00     0.142 A 
ATOM     20  O   UNL d   1     -51.051  15.579  23.364  0.00  0.00    -0.300 OA
ATOM     21  C   UNL d   1     -50.350  15.860  23.698  0.00  0.00     0.142 A 
ATOM     22  C   UNL d   1     -49.621  15.649  23.364  0.00  0.00     0.107 A 
ENDBRANCH  16  17
ENDBRANCH  15  16
ENDBRANCH  14  15
ENDBRANCH   1  14
TORSDOF 6
ENDMDL
MODEL 2
REMARK VINA RESULT:      -5.2      1.790      2.047
REMARK  6 active torsions:
REMARK  status: ('A' for Active; 'I' for Inactive)
REMARK    1  A    between atoms: C_2  and  S_1 
REMARK    2  A    between atoms: N_10  and  S_1 
REMARK    3  A    between atoms: O_16  and  C_7 
REMARK    4  A    between atoms: C_13  and  N_10 
REMARK    5  A    between atoms: N_11  and  C_17 
REMARK    6  A    between atoms: C_17  and  C_13 
ROOT
ATOM      1  S   UNL d   1     -46.858  13.396  22.899  0.00  0.00     0.286 S 
ATOM      2  O   UNL d   1     -46.558  13.675  23.621  0.00  0.00    -0.198 OA
ATOM      3  O   UNL d   1     -47.152  13.123  22.190  0.00  0.00    -0.198 OA
ENDROOT
BRANCH   1   4
ATOM      4  C   UNL d   1     -46.119  13.081  22.714  0.00  0.00     0.117 A 
ATOM      5  C   UNL d   1     -45.915  12.326  22.977  0.00  0.00     0.027 A 
ATOM      6  C   UNL d   1     -45.175  12.010  22.792  0.00  0.00     0.081 A 
ATOM      7 CL   UNL d   1     -44.968  11.250  23.057  0.00  0.00    -0.080 Cl
ATOM      8  C   UNL d   1     -44.640  12.450  22.343  0.00  0.00     0.105 A 
ATOM      9  C   UNL d   1     -44.846  13.197  22.085  0.00  0.00     0.037 A 
ATOM     10  C   UNL d   1     -45.586  13.512  22.270  0.00  0.00     0.072 A 
ATOM     11 CL   UNL d   1     -45.786  14.265  22.006  0.00  0.00    -0.082 Cl
BRANCH   8  12
ATOM     12  O   UNL d   1     -43.900  12.134  22.158  0.00  0.00    -0.327 OA
ATOM     13  C   UNL d   1     -43.368  12.571  21.704  0.00  0.00     0.181 C 
ENDBRANCH   8  12
ENDBRANCH   1   4
BRANCH   1  14
ATOM     14  N   UNL d   1     -47.597  13.712  23.084  0.00  0.00    -0.155 NA
BRANCH  14  15
ATOM     15  C   UNL d   1     -48.254  13.230  23.100  0.00  0.00     0.131 C 
BRANCH  15  16
ATOM     16  C   UNL d   1     -48.983  13.533  23.341  0.00  0.00     0.102 C 
BRANCH  16  17
ATOM     17  N   UNL d   1     -49.661  13.067  23.289  0.00  0.00    -0.298 N 
ATOM     18  C   UNL d   1     -50.299  13.316  22.830  0.00  0.00     0.107 A 
ATOM     19  C   UNL d   1     -50.978  12.848  22.779  0.00  0.00     0.142 A 
ATOM     20  O   UNL d   1     -51.020  12.129  23.188  0.00  0.00    -0.300 OA
ATOM     21  C   UNL d   1     -50.382  11.880  23.648  0.00  0.00     0.142 A 
ATOM     22  C   UNL d   1     -49.701  12.350  23.698  0.00  0.00     0.107 A 
ENDBRANCH  16  17
ENDBRANCH  15  16
ENDBRANCH  14  15
ENDBRANCH   1  14
TORSDOF 6
ENDMDL
MODEL 3
REMARK VINA RESULT:      -5.1      8.771     10.001
REMARK  6 active torsions:
REMARK  status: ('A' for Active; 'I' for Inactive)
REMARK    1  A    between atoms: C_2  and  S_1 
REMARK    2  A    between atoms: N_10  and  S_1 
REMARK    3  A    between atoms: O_16  and  C_7 
REMARK    4  A    between atoms: C_13  and  N_10 
REMARK    5  A    between atoms: N_11  and  C_17 
REMARK    6  A    between atoms: C_17  and  C_13 
ROOT
ATOM      1  S   UNL d   1     -39.771  14.412  18.324  0.00  0.00     0.286 S 
ATOM      2  O   UNL d   1     -39.221  15.026  18.421  0.00  0.00    -0.198 OA
ATOM      3  O   UNL d   1     -40.311  13.809  18.228  0.00  0.00    -0.198 OA
ENDROOT
BRANCH   1   4
ATOM      4  C   UNL d   1     -39.343  14.131  17.678  0.00  0.00     0.117 A 
ATOM      5  C   UNL d   1     -38.858  13.468  17.761  0.00  0.00     0.027 A 
ATOM      6  C   UNL d   1     -38.429  13.186  17.115  0.00  0.00     0.081 A 
ATOM      7 CL   UNL d   1     -37.940  12.519  17.197  0.00  0.00    -0.080 Cl
ATOM      8  C   UNL d   1     -38.486  13.568  16.386  0.00  0.00     0.105 A 
ATOM      9  C   UNL d   1     -38.967  14.223  16.307  0.00  0.00     0.037 A 
ATOM     10  C   UNL d   1     -39.396  14.504  16.954  0.00  0.00     0.072 A 
ATOM     11 CL   UNL d   1     -39.878  15.165  16.867  0.00  0.00    -0.082 Cl
BRANCH   8  12
ATOM     12  O   UNL d   1     -38.057  13.286  15.738  0.00  0.00    -0.327 OA
ATOM     13  C   UNL d   1     -37.941  13.769  15.079  0.00  0.00     0.181 C 
ENDBRANCH   8  12
ENDBRANCH   1   4
BRANCH   1  14
ATOM     14  N   UNL d   1     -40.200  14.693  18.970  0.00  0.00    -0.155 NA
BRANCH  14  15
ATOM     15  C   UNL d   1     -39.881  14.655  19.719  0.00  0.00     0.131 C 
BRANCH  15  16
ATOM     16  C   UNL d   1     -40.322  14.905  20.369  0.00  0.00     0.102 C 
BRANCH  16  17
ATOM     17  N   UNL d   1     -39.953  15.029  21.096  0.00  0.00    -0.298 N 
ATOM     18  C   UNL d   1     -39.885  15.793  21.400  0.00  0.00     0.107 A 
ATOM     19  C   UNL d   1     -39.515  15.916  22.127  0.00  0.00     0.142 A 
ATOM     20  O   UNL d   1     -39.211  15.274  22.555  0.00  0.00    -0.300 OA
ATOM     21  C   UNL d   1     -39.279  14.510  22.251  0.00  0.00     0.142 A 
ATOM     22  C   UNL d   1     -39.651  14.388  21.520  0.00  0.00     0.107 A 
ENDBRANCH  16  17
ENDBRANCH  15  16
ENDBRANCH  14  15
ENDBRANCH   1  14
TORSDOF 6
ENDMDL
MODEL 4
REMARK VINA RESULT:      -5.0      1.511      4.850
REMARK  6 active torsions:
REMARK  status: ('A' for Active; 'I' for Inactive)
REMARK    1  A    between atoms: C_2  and  S_1 
REMARK    2  A    between atoms: N_10  and  S_1 
REMARK    3  A    between atoms: O_16  and  C_7 
REMARK    4  A    between atoms: C_13  and  N_10 
REMARK    5  A    between atoms: N_11  and  C_17 
REMARK    6  A    between atoms: C_17  and  C_13 
ROOT
ATOM      1  S   UNL d   1     -47.089  13.307  22.729  0.00  0.00     0.286 S 
ATOM      2  O   UNL d   1     -47.350  12.958  22.023  0.00  0.00    -0.198 OA
ATOM      3  O   UNL d   1     -46.833  13.649  23.423  0.00  0.00    -0.198 OA
ENDROOT
BRANCH   1   4
ATOM      4  C   UNL d   1     -47.865  13.518  22.912  0.00  0.00     0.117 A 
ATOM      5  C   UNL d   1     -48.387  12.953  23.212  0.00  0.00     0.027 A 
ATOM      6  C   UNL d   1     -49.163  13.164  23.395  0.00  0.00     0.081 A 
ATOM      7 CL   UNL d   1     -49.689  12.596  23.697  0.00  0.00    -0.080 Cl
ATOM      8  C   UNL d   1     -49.418  13.940  23.277  0.00  0.00     0.105 A 
ATOM      9  C   UNL d   1     -48.899  14.496  22.979  0.00  0.00     0.037 A 
ATOM     10  C   UNL d   1     -48.122  14.284  22.797  0.00  0.00     0.072 A 
ATOM     11 CL   UNL d   1     -47.605  14.850  22.497  0.00  0.00    -0.082 Cl
BRANCH   8  12
ATOM     12  O   UNL d   1     -50.195  14.151  23.459  0.00  0.00    -0.327 OA
ATOM     13  C   UNL d   1     -50.580  14.730  23.015  0.00  0.00     0.181 C 
ENDBRANCH   8  12
ENDBRANCH   1   4
BRANCH   1  14
ATOM     14  N   UNL d   1     -46.313  13.096  22.547  0.00  0.00    -0.155 NA
BRANCH  14  15
ATOM     15  C   UNL d   1     -45.979  12.434  22.886  0.00  0.00     0.131 C 
BRANCH  15  16
ATOM     16  C   UNL d   1     -45.267  12.137  22.597  0.00  0.00     0.102 C 
BRANCH  16  17
ATOM     17  N   UNL d   1     -44.912  11.487  22.962  0.00  0.00    -0.298 N 
ATOM     18  C   UNL d   1     -45.378  10.917  23.333  0.00  0.00     0.107 A 
ATOM     19  C   UNL d   1     -45.022  10.268  23.698  0.00  0.00     0.142 A 
ATOM     20  O   UNL d   1     -44.197  10.186  23.692  0.00  0.00    -0.300 OA
ATOM     21  C   UNL d   1     -43.731  10.757  23.321  0.00  0.00     0.142 A 
ATOM     22  C   UNL d   1     -44.090  11.409  22.955  0.00  0.00     0.107 A 
ENDBRANCH  16  17
ENDBRANCH  15  16
ENDBRANCH  14  15
ENDBRANCH   1  14
TORSDOF 6
ENDMDL
MODEL 5
REMARK VINA RESULT:      -4.5      8.592     10.044
REMARK  6 active torsions:
REMARK  status: ('A' for Active; 'I' for Inactive)
REMARK    1  A    between atoms: C_2  and  S_1 
REMARK    2  A    between atoms: N_10  and  S_1 
REMARK    3  A    between atoms: O_16  and  C_7 
REMARK    4  A    between atoms: C_13  and  N_10 
REMARK    5  A    between atoms: N_11  and  C_17 
REMARK    6  A    between atoms: C_17  and  C_13 
ROOT
ATOM      1  S   UNL d   1     -39.762  14.870  19.458  0.00  0.00     0.286 S 
ATOM      2  O   UNL d   1     -40.236  14.198  19.343  0.00  0.00    -0.198 OA
ATOM      3  O   UNL d   1     -39.297  15.530  19.570  0.00  0.00    -0.198 OA
ENDROOT
BRANCH   1   4
ATOM      4  C   UNL d   1     -39.558  14.598  20.208  0.00  0.00     0.117 A 
ATOM      5  C   UNL d   1     -38.894  14.118  20.308  0.00  0.00     0.027 A 
ATOM      6  C   UNL d   1     -38.690  13.846  21.059  0.00  0.00     0.081 A 
ATOM      7 CL   UNL d   1     -38.021  13.363  21.161  0.00  0.00    -0.080 Cl
ATOM      8  C   UNL d   1     -39.150  14.054  21.712  0.00  0.00     0.105 A 
ATOM      9  C   UNL d   1     -39.807  14.529  21.610  0.00  0.00     0.037 A 
ATOM     10  C   UNL d   1     -40.010  14.801  20.858  0.00  0.00     0.072 A 
ATOM     11 CL   UNL d   1     -40.673  15.279  20.763  0.00  0.00    -0.082 Cl
BRANCH   8  12
ATOM     12  O   UNL d   1     -38.946  13.782  22.464  0.00  0.00    -0.327 OA
ATOM     13  C   UNL d   1     -38.943  14.303  23.104  0.00  0.00     0.181 C 
ENDBRANCH   8  12
ENDBRANCH   1   4
BRANCH   1  14
ATOM     14  N   UNL d   1     -39.966  15.142  18.706  0.00  0.00    -0.155 NA
BRANCH  14  15
ATOM     15  C   UNL d   1     -39.448  15.050  18.084  0.00  0.00     0.131 C 
BRANCH  15  16
ATOM     16  C   UNL d   1     -39.676  15.264  17.321  0.00  0.00     0.102 C 
BRANCH  16  17
ATOM     17  N   UNL d   1     -39.132  15.227  16.702  0.00  0.00    -0.298 N 
ATOM     18  C   UNL d   1     -38.822  15.922  16.383  0.00  0.00     0.107 A 
ATOM     19  C   UNL d   1     -38.278  15.884  15.764  0.00  0.00     0.142 A 
ATOM     20  O   UNL d   1     -38.042  15.150  15.460  0.00  0.00    -0.300 OA
ATOM     21  C   UNL d   1     -38.353  14.455  15.778  0.00  0.00     0.142 A 
ATOM     22  C   UNL d   1     -38.899  14.495  16.401  0.00  0.00     0.107 A 
ENDBRANCH  16  17
ENDBRANCH  15  16
ENDBRANCH  14  15
ENDBRANCH   1  14
TORSDOF 6
ENDMDL
MODEL 6
REMARK VINA RESULT:      -4.3      9.097     10.002
REMARK  6 active torsions:
REMARK  status: ('A' for Active; 'I' for Inactive)
REMARK    1  A    between atoms: C_2  and  S_1 
REMARK    2  A    between atoms: N_10  and  S_1 
REMARK    3  A    between atoms: O_16  and  C_7 
REMARK    4  A    between atoms: C_13  and  N_10 
REMARK    5  A    between atoms: N_11  and  C_17 
REMARK    6  A    between atoms: C_17  and  C_13 
ROOT
ATOM      1  S   UNL d   1     -39.065  14.220  19.151  0.00  0.00     0.286 S 
ATOM      2  O   UNL d   1     -39.610  13.659  19.430  0.00  0.00    -0.198 OA
ATOM      3  O   UNL d   1     -38.530  14.770  18.877  0.00  0.00    -0.198 OA
ENDROOT
BRANCH   1   4
ATOM      4  C   UNL d   1     -39.619  14.484  18.601  0.00  0.00     0.117 A 
ATOM      5  C   UNL d   1     -40.164  15.068  18.811  0.00  0.00     0.027 A 
ATOM      6  C   UNL d   1     -40.718  15.333  18.260  0.00  0.00     0.081 A 
ATOM      7 CL   UNL d   1     -41.266  15.921  18.470  0.00  0.00    -0.080 Cl
ATOM      8  C   UNL d   1     -40.728  15.014  17.499  0.00  0.00     0.105 A 
ATOM      9  C   UNL d   1     -40.188  14.436  17.295  0.00  0.00     0.037 A 
ATOM     10  C   UNL d   1     -39.633  14.171  17.846  0.00  0.00     0.072 A 
ATOM     11 CL   UNL d   1     -39.093  13.589  17.633  0.00  0.00    -0.082 Cl
BRANCH   8  12
ATOM     12  O   UNL d   1     -41.283  15.279  16.948  0.00  0.00    -0.327 OA
ATOM     13  C   UNL d   1     -41.067  15.841  16.384  0.00  0.00     0.181 C 
ENDBRANCH   8  12
ENDBRANCH   1   4
BRANCH   1  14
ATOM     14  N   UNL d   1     -38.511  13.955  19.701  0.00  0.00    -0.155 NA
BRANCH  14  15
ATOM     15  C   UNL d   1     -38.636  14.076  20.497  0.00  0.00     0.131 C 
BRANCH  15  16
ATOM     16  C   UNL d   1     -38.048  13.883  21.042  0.00  0.00     0.102 C 
BRANCH  16  17
ATOM     17  N   UNL d   1     -38.192  13.961  21.850  0.00  0.00    -0.298 N 
ATOM     18  C   UNL d   1     -38.120  14.697  22.215  0.00  0.00     0.107 A 
ATOM     19  C   UNL d   1     -38.265  14.773  23.024  0.00  0.00     0.142 A 
ATOM     20  O   UNL d   1     -38.483  14.111  23.472  0.00  0.00    -0.300 OA
ATOM     21  C   UNL d   1     -38.555  13.375  23.108  0.00  0.00     0.142 A 
ATOM     22  C   UNL d   1     -38.409  13.300  22.295  0.00  0.00     0.107 A 
ENDBRANCH  16  17
ENDBRANCH  15  16
ENDBRANCH  14  15
ENDBRANCH   1  14
TORSDOF 6
ENDMDL
