MODEL 1
REMARK VINA RESULT:      50.5      0.000      0.000
REMARK  3 active torsions:
REMARK  status: ('A' for Active; 'I' for Inactive)
REMARK    1  A    between atoms: C_8  and  C_6 
REMARK    2  A    between atoms: C_9  and  C_8 
REMARK       I    between atoms: N_10  and  C_9 
REMARK    3  A    between atoms: C_14  and  N_10 
ROOT
ATOM      1  N   UNL d   1      58.521  49.675  49.467  0.00  0.00    -0.207 NA
ATOM      2  N   UNL d   1      58.498  49.699  51.143  0.00  0.00    -0.240 NA
ATOM      3  C   UNL d   1      59.117  49.684  50.022  0.00  0.00     0.297 A 
ATOM      4  C   UNL d   1      57.699  49.675  49.578  0.00  0.00     0.086 A 
ATOM      5  C   UNL d   1      57.689  49.695  51.007  0.00  0.00     0.083 A 
ATOM      6  C   UNL d   1      59.105  49.692  50.589  0.00  0.00     0.144 A 
ATOM      7  C   UNL d   1      57.284  49.684  50.291  0.00  0.00     0.035 A 
ATOM      8  O   UNL d   1      59.881  49.682  49.713  0.00  0.00    -0.264 OA
ATOM      9  C   UNL d   1      56.457  49.682  50.285  0.00  0.00     0.003 A 
ATOM     10  C   UNL d   1      57.278  49.704  51.720  0.00  0.00     0.019 A 
ATOM     11  C   UNL d   1      57.284  49.663  48.857  0.00  0.00     0.019 A 
ATOM     12  C   UNL d   1      56.444  49.702  51.716  0.00  0.00     0.002 A 
ATOM     13  C   UNL d   1      56.459  49.661  48.856  0.00  0.00     0.002 A 
ATOM     14  C   UNL d   1      56.034  49.691  50.998  0.00  0.00     0.000 A 
ATOM     15  C   UNL d   1      56.048  49.671  49.564  0.00  0.00     0.000 A 
ENDROOT
BRANCH   6  16
ATOM     16  C   UNL d   1      59.858  49.699  50.924  0.00  0.00     0.086 C 
BRANCH  16  17
ATOM     17  C   UNL d   1      59.953  49.444  51.705  0.00  0.00     0.281 C 
ATOM     18  N   UNL d   1      60.566  48.923  51.889  0.00  0.00    -0.208 NA
ATOM     19  O   UNL d   1      59.442  49.705  52.302  0.00  0.00    -0.265 OA
BRANCH  18  20
ATOM     20  C   UNL d   1      61.084  48.654  51.303  0.00  0.00     0.085 A 
ATOM     21  C   UNL d   1      61.541  49.181  50.878  0.00  0.00     0.019 A 
ATOM     22  C   UNL d   1      62.053  48.911  50.298  0.00  0.00     0.002 A 
ATOM     23  C   UNL d   1      62.111  48.100  50.138  0.00  0.00     0.000 A 
ATOM     24  C   UNL d   1      61.642  47.567  50.576  0.00  0.00     0.002 A 
ATOM     25  C   UNL d   1      61.134  47.849  51.152  0.00  0.00     0.019 A 
ENDBRANCH  18  20
ENDBRANCH  16  17
ENDBRANCH   6  16
TORSDOF 3
ENDMDL
