MODEL 1
REMARK VINA RESULT:      -3.1      0.000      0.000
REMARK  4 active torsions:
REMARK  status: ('A' for Active; 'I' for Inactive)
REMARK    1  A    between atoms: C_2  and  N_1 
REMARK    2  A    between atoms: N_7  and  C_3 
REMARK    3  A    between atoms: C_12  and  N_7 
REMARK    4  A    between atoms: C_13  and  C_12 
ROOT
ATOM      1  C   UNL d   1      32.550  22.088 -21.379  0.00  0.00     0.200 A 
ATOM      2  C   UNL d   1      32.888  21.707 -22.040  0.00  0.00     0.189 A 
ATOM      3  C   UNL d   1      32.542  22.902 -21.353  0.00  0.00     0.210 A 
ATOM      4  N   UNL d   1      33.209  22.151 -22.656  0.00  0.00    -0.203 NA
ATOM      5  N   UNL d   1      32.855  23.352 -21.951  0.00  0.00    -0.202 NA
ATOM      6  C   UNL d   1      33.193  22.971 -22.612  0.00  0.00     0.202 A 
ATOM      7  N   UNL d   1      32.204  23.282 -20.692  0.00  0.00    -0.125 N 
ENDROOT
BRANCH   2   8
ATOM      8  N   UNL d   1      32.905  20.892 -22.086  0.00  0.00    -0.224 NA
BRANCH   8   9
ATOM      9  C   UNL d   1      33.241  20.519 -22.731  0.00  0.00     0.101 C 
BRANCH   9  10
ATOM     10  C   UNL d   1      33.139  19.705 -22.840  0.00  0.00     0.019 A 
ATOM     11  C   UNL d   1      32.929  19.411 -23.591  0.00  0.00     0.002 A 
ATOM     12  C   UNL d   1      32.828  18.599 -23.698  0.00  0.00     0.000 A 
ATOM     13  C   UNL d   1      32.930  18.090 -23.078  0.00  0.00     0.000 A 
ATOM     14  C   UNL d   1      33.138  18.377 -22.333  0.00  0.00     0.000 A 
ATOM     15  C   UNL d   1      32.830  17.282 -23.182  0.00  0.00     0.000 C 
ATOM     16  C   UNL d   1      33.241  19.196 -22.221  0.00  0.00     0.002 A 
ENDBRANCH   9  10
ENDBRANCH   8   9
ENDBRANCH   2   8
BRANCH   1  17
ATOM     17  N   UNL d   1      32.229  21.653 -20.766  0.00  0.00    -0.107 N 
ATOM     18  O   UNL d   1      31.482  21.345 -20.848  0.00  0.00    -0.531 OA
ATOM     19  O   UNL d   1      32.660  21.532 -20.078  0.00  0.00    -0.531 OA
ENDBRANCH   1  17
TORSDOF 4
ENDMDL
MODEL 2
REMARK VINA RESULT:      -2.8      4.499      5.893
REMARK  4 active torsions:
REMARK  status: ('A' for Active; 'I' for Inactive)
REMARK    1  A    between atoms: C_2  and  N_1 
REMARK    2  A    between atoms: N_7  and  C_3 
REMARK    3  A    between atoms: C_12  and  N_7 
REMARK    4  A    between atoms: C_13  and  C_12 
ROOT
ATOM      1  C   UNL d   1      28.931  16.587 -23.738  0.00  0.00     0.200 A 
ATOM      2  C   UNL d   1      29.746  16.441 -23.638  0.00  0.00     0.189 A 
ATOM      3  C   UNL d   1      28.396  16.160 -23.297  0.00  0.00     0.210 A 
ATOM      4  N   UNL d   1      30.004  15.873 -23.100  0.00  0.00    -0.203 NA
ATOM      5  N   UNL d   1      28.635  15.598 -22.763  0.00  0.00    -0.202 NA
ATOM      6  C   UNL d   1      29.450  15.453 -22.663  0.00  0.00     0.202 A 
ATOM      7  N   UNL d   1      27.581  16.305 -23.397  0.00  0.00    -0.125 N 
ENDROOT
BRANCH   2   8
ATOM      8  N   UNL d   1      30.299  16.859 -24.071  0.00  0.00    -0.224 NA
BRANCH   8   9
ATOM      9  C   UNL d   1      31.098  16.763 -23.928  0.00  0.00     0.101 C 
BRANCH   9  10
ATOM     10  C   UNL d   1      31.632  17.362 -24.132  0.00  0.00     0.019 A 
ATOM     11  C   UNL d   1      32.130  17.688 -23.551  0.00  0.00     0.002 A 
ATOM     12  C   UNL d   1      32.661  18.284 -23.756  0.00  0.00     0.000 A 
ATOM     13  C   UNL d   1      32.699  18.553 -24.517  0.00  0.00     0.000 A 
ATOM     14  C   UNL d   1      32.207  18.233 -25.097  0.00  0.00     0.000 A 
ATOM     15  C   UNL d   1      33.228  19.147 -24.724  0.00  0.00     0.000 C 
ATOM     16  C   UNL d   1      31.670  17.630 -24.893  0.00  0.00     0.002 A 
ENDBRANCH   9  10
ENDBRANCH   8   9
ENDBRANCH   2   8
BRANCH   1  17
ATOM     17  N   UNL d   1      28.670  17.149 -24.271  0.00  0.00    -0.107 N 
ATOM     18  O   UNL d   1      28.586  17.918 -24.024  0.00  0.00    -0.531 OA
ATOM     19  O   UNL d   1      28.496  16.935 -25.044  0.00  0.00    -0.531 OA
ENDBRANCH   1  17
TORSDOF 4
ENDMDL
MODEL 3
REMARK VINA RESULT:      -2.5      1.195      1.817
REMARK  4 active torsions:
REMARK  status: ('A' for Active; 'I' for Inactive)
REMARK    1  A    between atoms: C_2  and  N_1 
REMARK    2  A    between atoms: N_7  and  C_3 
REMARK    3  A    between atoms: C_12  and  N_7 
REMARK    4  A    between atoms: C_13  and  C_12 
ROOT
ATOM      1  C   UNL d   1      32.651  22.507 -20.693  0.00  0.00     0.200 A 
ATOM      2  C   UNL d   1      32.929  21.722 -20.719  0.00  0.00     0.189 A 
ATOM      3  C   UNL d   1      32.673  22.911 -19.986  0.00  0.00     0.210 A 
ATOM      4  N   UNL d   1      33.223  21.362 -20.037  0.00  0.00    -0.203 NA
ATOM      5  N   UNL d   1      32.958  22.571 -19.308  0.00  0.00    -0.202 NA
ATOM      6  C   UNL d   1      33.237  21.785 -19.334  0.00  0.00     0.202 A 
ATOM      7  N   UNL d   1      32.394  23.697 -19.961  0.00  0.00    -0.125 N 
ENDROOT
BRANCH   2   8
ATOM      8  N   UNL d   1      32.916  21.298 -21.417  0.00  0.00    -0.224 NA
BRANCH   8   9
ATOM      9  C   UNL d   1      33.152  20.516 -21.434  0.00  0.00     0.101 C 
BRANCH   9  10
ATOM     10  C   UNL d   1      33.107  20.083 -22.139  0.00  0.00     0.019 A 
ATOM     11  C   UNL d   1      32.925  19.271 -22.115  0.00  0.00     0.002 A 
ATOM     12  C   UNL d   1      32.881  18.842 -22.818  0.00  0.00     0.000 A 
ATOM     13  C   UNL d   1      33.013  19.206 -23.527  0.00  0.00     0.000 A 
ATOM     14  C   UNL d   1      33.194  20.011 -23.556  0.00  0.00     0.000 A 
ATOM     15  C   UNL d   1      32.970  18.780 -24.229  0.00  0.00     0.000 C 
ATOM     16  C   UNL d   1      33.240  20.447 -22.848  0.00  0.00     0.002 A 
ENDBRANCH   9  10
ENDBRANCH   8   9
ENDBRANCH   2   8
BRANCH   1  17
ATOM     17  N   UNL d   1      32.359  22.868 -21.366  0.00  0.00    -0.107 N 
ATOM     18  O   UNL d   1      32.864  23.296 -21.836  0.00  0.00    -0.531 OA
ATOM     19  O   UNL d   1      31.565  22.797 -21.560  0.00  0.00    -0.531 OA
ENDBRANCH   1  17
TORSDOF 4
ENDMDL
MODEL 4
REMARK VINA RESULT:      -2.2      3.549      5.326
REMARK  4 active torsions:
REMARK  status: ('A' for Active; 'I' for Inactive)
REMARK    1  A    between atoms: C_2  and  N_1 
REMARK    2  A    between atoms: N_7  and  C_3 
REMARK    3  A    between atoms: C_12  and  N_7 
REMARK    4  A    between atoms: C_13  and  C_12 
ROOT
ATOM      1  C   UNL d   1      30.608  16.840 -24.497  0.00  0.00     0.200 A 
ATOM      2  C   UNL d   1      31.378  16.961 -24.201  0.00  0.00     0.189 A 
ATOM      3  C   UNL d   1      30.385  16.091 -24.724  0.00  0.00     0.210 A 
ATOM      4  N   UNL d   1      31.904  16.329 -24.139  0.00  0.00    -0.203 NA
ATOM      5  N   UNL d   1      30.890  15.460 -24.670  0.00  0.00    -0.202 NA
ATOM      6  C   UNL d   1      31.660  15.580 -24.373  0.00  0.00     0.202 A 
ATOM      7  N   UNL d   1      29.615  15.970 -25.021  0.00  0.00    -0.125 N 
ENDROOT
BRANCH   2   8
ATOM      8  N   UNL d   1      31.622  17.705 -23.967  0.00  0.00    -0.224 NA
BRANCH   8   9
ATOM      9  C   UNL d   1      32.396  17.836 -23.740  0.00  0.00     0.101 C 
BRANCH   9  10
ATOM     10  C   UNL d   1      32.606  18.548 -23.372  0.00  0.00     0.019 A 
ATOM     11  C   UNL d   1      32.924  19.170 -23.824  0.00  0.00     0.002 A 
ATOM     12  C   UNL d   1      33.132  19.878 -23.456  0.00  0.00     0.000 A 
ATOM     13  C   UNL d   1      33.030  19.968 -22.660  0.00  0.00     0.000 A 
ATOM     14  C   UNL d   1      32.716  19.354 -22.207  0.00  0.00     0.000 A 
ATOM     15  C   UNL d   1      33.237  20.672 -22.290  0.00  0.00     0.000 C 
ATOM     16  C   UNL d   1      32.504  18.638 -22.576  0.00  0.00     0.002 A 
ENDBRANCH   9  10
ENDBRANCH   8   9
ENDBRANCH   2   8
BRANCH   1  17
ATOM     17  N   UNL d   1      30.083  17.464 -24.560  0.00  0.00    -0.107 N 
ATOM     18  O   UNL d   1      29.424  17.475 -24.085  0.00  0.00    -0.531 OA
ATOM     19  O   UNL d   1      30.224  18.068 -25.097  0.00  0.00    -0.531 OA
ENDBRANCH   1  17
TORSDOF 4
ENDMDL
MODEL 5
REMARK VINA RESULT:      -1.8      1.177      1.725
REMARK  4 active torsions:
REMARK  status: ('A' for Active; 'I' for Inactive)
REMARK    1  A    between atoms: C_2  and  N_1 
REMARK    2  A    between atoms: N_7  and  C_3 
REMARK    3  A    between atoms: C_12  and  N_7 
REMARK    4  A    between atoms: C_13  and  C_12 
ROOT
ATOM      1  C   UNL d   1      32.858  21.489 -21.435  0.00  0.00     0.200 A 
ATOM      2  C   UNL d   1      32.998  20.667 -21.465  0.00  0.00     0.189 A 
ATOM      3  C   UNL d   1      32.912  21.873 -20.720  0.00  0.00     0.210 A 
ATOM      4  N   UNL d   1      33.190  20.253 -20.778  0.00  0.00    -0.203 NA
ATOM      5  N   UNL d   1      33.100  21.479 -20.036  0.00  0.00    -0.202 NA
ATOM      6  C   UNL d   1      33.240  20.658 -20.066  0.00  0.00     0.202 A 
ATOM      7  N   UNL d   1      32.771  22.694 -20.690  0.00  0.00    -0.125 N 
ENDROOT
BRANCH   2   8
ATOM      8  N   UNL d   1      32.949  20.262 -22.173  0.00  0.00    -0.224 NA
BRANCH   8   9
ATOM      9  C   UNL d   1      33.194  19.485 -22.225  0.00  0.00     0.101 C 
BRANCH   9  10
ATOM     10  C   UNL d   1      33.026  19.040 -22.903  0.00  0.00     0.019 A 
ATOM     11  C   UNL d   1      33.233  19.335 -23.654  0.00  0.00     0.002 A 
ATOM     12  C   UNL d   1      33.064  18.891 -24.328  0.00  0.00     0.000 A 
ATOM     13  C   UNL d   1      32.701  18.172 -24.262  0.00  0.00     0.000 A 
ATOM     14  C   UNL d   1      32.494  17.876 -23.521  0.00  0.00     0.000 A 
ATOM     15  C   UNL d   1      32.532  17.728 -24.932  0.00  0.00     0.000 C 
ATOM     16  C   UNL d   1      32.662  18.321 -22.838  0.00  0.00     0.002 A 
ENDBRANCH   9  10
ENDBRANCH   8   9
ENDBRANCH   2   8
BRANCH   1  17
ATOM     17  N   UNL d   1      32.667  21.904 -22.113  0.00  0.00    -0.107 N 
ATOM     18  O   UNL d   1      33.240  22.351 -22.476  0.00  0.00    -0.531 OA
ATOM     19  O   UNL d   1      31.907  21.867 -22.419  0.00  0.00    -0.531 OA
ENDBRANCH   1  17
TORSDOF 4
ENDMDL
MODEL 6
REMARK VINA RESULT:      -0.3      5.400      6.500
REMARK  4 active torsions:
REMARK  status: ('A' for Active; 'I' for Inactive)
REMARK    1  A    between atoms: C_2  and  N_1 
REMARK    2  A    between atoms: N_7  and  C_3 
REMARK    3  A    between atoms: C_12  and  N_7 
REMARK    4  A    between atoms: C_13  and  C_12 
ROOT
ATOM      1  C   UNL d   1      28.530  15.894 -23.656  0.00  0.00     0.200 A 
ATOM      2  C   UNL d   1      29.309  15.802 -23.373  0.00  0.00     0.189 A 
ATOM      3  C   UNL d   1      27.907  15.767 -23.147  0.00  0.00     0.210 A 
ATOM      4  N   UNL d   1      29.444  15.586 -22.589  0.00  0.00    -0.203 NA
ATOM      5  N   UNL d   1      28.024  15.553 -22.373  0.00  0.00    -0.202 NA
ATOM      6  C   UNL d   1      28.803  15.462 -22.091  0.00  0.00     0.202 A 
ATOM      7  N   UNL d   1      27.128  15.858 -23.430  0.00  0.00    -0.125 N 
ENDROOT
BRANCH   2   8
ATOM      8  N   UNL d   1      29.948  15.925 -23.867  0.00  0.00    -0.224 NA
BRANCH   8   9
ATOM      9  C   UNL d   1      30.710  15.804 -23.599  0.00  0.00     0.101 C 
BRANCH   9  10
ATOM     10  C   UNL d   1      31.347  16.176 -23.975  0.00  0.00     0.019 A 
ATOM     11  C   UNL d   1      31.454  16.997 -23.897  0.00  0.00     0.002 A 
ATOM     12  C   UNL d   1      32.089  17.365 -24.273  0.00  0.00     0.000 A 
ATOM     13  C   UNL d   1      32.607  16.932 -24.716  0.00  0.00     0.000 A 
ATOM     14  C   UNL d   1      32.506  16.117 -24.797  0.00  0.00     0.000 A 
ATOM     15  C   UNL d   1      33.241  17.296 -25.091  0.00  0.00     0.000 C 
ATOM     16  C   UNL d   1      31.866  15.742 -24.418  0.00  0.00     0.002 A 
ENDBRANCH   9  10
ENDBRANCH   8   9
ENDBRANCH   2   8
BRANCH   1  17
ATOM     17  N   UNL d   1      28.391  16.109 -24.432  0.00  0.00    -0.107 N 
ATOM     18  O   UNL d   1      28.049  15.571 -24.936  0.00  0.00    -0.531 OA
ATOM     19  O   UNL d   1      28.595  16.858 -24.695  0.00  0.00    -0.531 OA
ENDBRANCH   1  17
TORSDOF 4
ENDMDL
