MODEL 1
REMARK VINA RESULT:     178.5      0.000      0.000
REMARK  7 active torsions:
REMARK  status: ('A' for Active; 'I' for Inactive)
REMARK       I    between atoms: N_2  and  C_13 
REMARK    1  A    between atoms: C_11  and  C_6 
REMARK    2  A    between atoms: C_14  and  C_7 
REMARK    3  A    between atoms: S_18  and  C_9 
REMARK    4  A    between atoms: C_13  and  C_19 
REMARK    5  A    between atoms: O_26  and  C_15 
REMARK    6  A    between atoms: C_19  and  S_18 
REMARK    7  A    between atoms: O_29  and  C_22 
ROOT
ATOM      1  N   UNL d   1     -55.521-101.702 -39.330  0.00  0.00    -0.194 N 
ATOM      2  N   UNL d   1     -55.614-102.281 -38.754  0.00  0.00    -0.162 NA
ATOM      3  C   UNL d   1     -55.562-100.968 -38.955  0.00  0.00     0.090 A 
ATOM      4  C   UNL d   1     -55.713-101.897 -38.024  0.00  0.00     0.109 A 
ATOM      5  C   UNL d   1     -55.678-101.098 -38.166  0.00  0.00     0.041 A 
ATOM      6  C   UNL d   1     -55.410-101.839 -40.118  0.00  0.00     0.287 C 
ATOM      7  O   UNL d   1     -55.382-102.607 -40.411  0.00  0.00    -0.265 OA
ENDROOT
BRANCH   6   8
ATOM      8  C   UNL d   1     -55.323-101.205 -40.642  0.00  0.00     0.100 C 
BRANCH   8   9
ATOM      9  S   UNL d   1     -54.717-101.219 -41.207  0.00  0.00    -0.054 SA
BRANCH   9  10
ATOM     10  C   UNL d   1     -54.890-101.106 -42.012  0.00  0.00     0.163 A 
ATOM     11  S   UNL d   1     -54.810-101.684 -42.621  0.00  0.00    -0.021 SA
ATOM     12  C   UNL d   1     -55.044-101.333 -43.341  0.00  0.00     0.200 A 
ATOM     13  N   UNL d   1     -54.993-101.838 -43.984  0.00  0.00    -0.182 NA
ATOM     14  N   UNL d   1     -55.272-100.538 -43.191  0.00  0.00    -0.204 N 
ATOM     15  C   UNL d   1     -55.214-101.513 -44.676  0.00  0.00     0.281 A 
ATOM     16  O   UNL d   1     -55.031-102.262 -45.001  0.00  0.00    -0.265 OA
ATOM     17  C   UNL d   1     -55.502-100.744 -44.926  0.00  0.00     0.064 A 
ATOM     18  C   UNL d   1     -55.640-100.046 -44.432  0.00  0.00     0.026 A 
ATOM     19  C   UNL d   1     -55.517 -99.991 -43.604  0.00  0.00     0.103 A 
ATOM     20  N   UNL d   1     -55.177-100.397 -42.366  0.00  0.00    -0.150 NA
ENDBRANCH   9  10
ENDBRANCH   8   9
ENDBRANCH   6   8
BRANCH   3  21
ATOM     21  C   UNL d   1     -55.494-100.251 -39.339  0.00  0.00     0.042 A 
ATOM     22  C   UNL d   1     -56.138 -99.977 -39.774  0.00  0.00     0.118 A 
ATOM     23  C   UNL d   1     -56.083 -99.248 -40.170  0.00  0.00     0.116 A 
ATOM     24  C   UNL d   1     -55.387 -98.806 -40.124  0.00  0.00     0.026 A 
ATOM     25  C   UNL d   1     -54.753 -99.084 -39.690  0.00  0.00     0.002 A 
ATOM     26  C   UNL d   1     -54.810 -99.813 -39.296  0.00  0.00     0.004 A 
BRANCH  22  27
ATOM     27  O   UNL d   1     -56.833-100.415 -39.822  0.00  0.00    -0.326 OA
ATOM     28  C   UNL d   1     -57.484-100.169 -39.387  0.00  0.00     0.181 C 
ENDBRANCH  22  27
BRANCH  23  29
ATOM     29  O   UNL d   1     -56.725 -98.976 -40.604  0.00  0.00    -0.326 OA
ATOM     30  C   UNL d   1     -56.776 -99.134 -41.411  0.00  0.00     0.181 C 
ENDBRANCH  23  29
ENDBRANCH   3  21
BRANCH   4  31
ATOM     31  C   UNL d   1     -55.823-102.267 -37.306  0.00  0.00     0.049 A 
ATOM     32  S   UNL d   1     -56.547-102.438 -36.956  0.00  0.00    -0.085 SA
ATOM     33  C   UNL d   1     -56.397-102.815 -36.231  0.00  0.00     0.035 A 
ATOM     34  C   UNL d   1     -55.579-102.871 -36.146  0.00  0.00     0.007 A 
ATOM     35  C   UNL d   1     -55.239-102.529 -36.816  0.00  0.00     0.009 A 
ENDBRANCH   4  31
TORSDOF 7
ENDMDL
