MODEL 1
REMARK VINA RESULT:      -3.3      0.000      0.000
REMARK  5 active torsions:
REMARK  status: ('A' for Active; 'I' for Inactive)
REMARK    1  A    between atoms: C_7  and  N_2 
REMARK    2  A    between atoms: C_8  and  C_7 
REMARK    3  A    between atoms: C_13  and  C_8 
REMARK    4  A    between atoms: C_9  and  O_11 
REMARK    5  A    between atoms: O_11  and  C_13 
ROOT
ATOM      1  C   UNL d   1      32.653  18.614 -24.599  0.00  0.00     0.296 A 
ATOM      2  N   UNL d   1      32.651  18.262 -23.846  0.00  0.00    -0.268 N 
ATOM      3  S   UNL d   1      32.191  18.144 -25.097  0.00  0.00    -0.025 SA
ATOM      4  C   UNL d   1      32.188  17.577 -23.885  0.00  0.00     0.073 A 
ATOM      5  C   UNL d   1      31.904  17.507 -24.661  0.00  0.00     0.050 A 
ATOM      6  O   UNL d   1      33.046  19.307 -24.810  0.00  0.00    -0.259 OA
ATOM      7  C   UNL d   1      31.991  17.016 -23.319  0.00  0.00     0.018 A 
ATOM      8  C   UNL d   1      31.417  16.860 -24.860  0.00  0.00     0.008 A 
ATOM      9  C   UNL d   1      31.509  16.378 -23.521  0.00  0.00     0.002 A 
ATOM     10  C   UNL d   1      31.224  16.301 -24.286  0.00  0.00     0.001 A 
ENDROOT
BRANCH   2  11
ATOM     11  C   UNL d   1      33.041  18.543 -23.178  0.00  0.00     0.086 C 
BRANCH  11  12
ATOM     12  C   UNL d   1      32.808  19.261 -22.840  0.00  0.00     0.046 C 
BRANCH  12  13
ATOM     13  C   UNL d   1      33.150  19.515 -22.134  0.00  0.00     0.124 C 
BRANCH  13  14
ATOM     14  O   UNL d   1      32.961  20.251 -21.828  0.00  0.00    -0.305 OA
BRANCH  14  15
ATOM     15  C   UNL d   1      32.771  20.994 -21.519  0.00  0.00     0.100 A 
ATOM     16  C   UNL d   1      32.250  21.042 -20.887  0.00  0.00     0.025 A 
ATOM     17  C   UNL d   1      32.060  21.786 -20.579  0.00  0.00     0.002 A 
ATOM     18  C   UNL d   1      32.389  22.469 -20.900  0.00  0.00     0.000 A 
ATOM     19  C   UNL d   1      32.914  22.409 -21.539  0.00  0.00     0.002 A 
ATOM     20  C   UNL d   1      33.104  21.673 -21.846  0.00  0.00     0.025 A 
ENDBRANCH  14  15
ENDBRANCH  13  14
ENDBRANCH  12  13
ENDBRANCH  11  12
ENDBRANCH   2  11
TORSDOF 5
ENDMDL
MODEL 2
REMARK VINA RESULT:      -3.1      1.762      5.106
REMARK  5 active torsions:
REMARK  status: ('A' for Active; 'I' for Inactive)
REMARK    1  A    between atoms: C_7  and  N_2 
REMARK    2  A    between atoms: C_8  and  C_7 
REMARK    3  A    between atoms: C_13  and  C_8 
REMARK    4  A    between atoms: C_9  and  O_11 
REMARK    5  A    between atoms: O_11  and  C_13 
ROOT
ATOM      1  C   UNL d   1      32.726  21.084 -20.924  0.00  0.00     0.296 A 
ATOM      2  N   UNL d   1      32.905  21.342 -21.694  0.00  0.00    -0.268 N 
ATOM      3  S   UNL d   1      32.397  21.722 -20.515  0.00  0.00    -0.025 SA
ATOM      4  C   UNL d   1      32.684  22.137 -21.754  0.00  0.00     0.073 A 
ATOM      5  C   UNL d   1      32.371  22.370 -21.023  0.00  0.00     0.050 A 
ATOM      6  O   UNL d   1      32.855  20.327 -20.623  0.00  0.00    -0.259 OA
ATOM      7  C   UNL d   1      32.730  22.673 -22.375  0.00  0.00     0.018 A 
ATOM      8  C   UNL d   1      32.102  23.153 -20.925  0.00  0.00     0.008 A 
ATOM      9  C   UNL d   1      32.462  23.446 -22.273  0.00  0.00     0.002 A 
ATOM     10  C   UNL d   1      32.150  23.684 -21.553  0.00  0.00     0.001 A 
ENDROOT
BRANCH   2  11
ATOM     11  C   UNL d   1      33.241  20.888 -22.292  0.00  0.00     0.086 C 
BRANCH  11  12
ATOM     12  C   UNL d   1      32.900  20.161 -22.495  0.00  0.00     0.046 C 
BRANCH  12  13
ATOM     13  C   UNL d   1      33.155  19.761 -23.170  0.00  0.00     0.124 C 
BRANCH  13  14
ATOM     14  O   UNL d   1      32.887  19.003 -23.322  0.00  0.00    -0.305 OA
BRANCH  14  15
ATOM     15  C   UNL d   1      32.616  18.236 -23.477  0.00  0.00     0.100 A 
ATOM     16  C   UNL d   1      32.007  18.129 -24.016  0.00  0.00     0.025 A 
ATOM     17  C   UNL d   1      31.738  17.362 -24.170  0.00  0.00     0.002 A 
ATOM     18  C   UNL d   1      32.075  16.715 -23.788  0.00  0.00     0.000 A 
ATOM     19  C   UNL d   1      32.690  16.835 -23.245  0.00  0.00     0.002 A 
ATOM     20  C   UNL d   1      32.959  17.593 -23.091  0.00  0.00     0.025 A 
ENDBRANCH  14  15
ENDBRANCH  13  14
ENDBRANCH  12  13
ENDBRANCH  11  12
ENDBRANCH   2  11
TORSDOF 5
ENDMDL
MODEL 3
REMARK VINA RESULT:      -1.6      1.573      4.879
REMARK  5 active torsions:
REMARK  status: ('A' for Active; 'I' for Inactive)
REMARK    1  A    between atoms: C_7  and  N_2 
REMARK    2  A    between atoms: C_8  and  C_7 
REMARK    3  A    between atoms: C_13  and  C_8 
REMARK    4  A    between atoms: C_9  and  O_11 
REMARK    5  A    between atoms: O_11  and  C_13 
ROOT
ATOM      1  C   UNL d   1      33.201  19.444 -22.345  0.00  0.00     0.296 A 
ATOM      2  N   UNL d   1      33.219  19.512 -23.174  0.00  0.00    -0.268 N 
ATOM      3  S   UNL d   1      33.190  20.208 -22.032  0.00  0.00    -0.025 SA
ATOM      4  C   UNL d   1      33.219  20.317 -23.365  0.00  0.00     0.073 A 
ATOM      5  C   UNL d   1      33.201  20.746 -22.655  0.00  0.00     0.050 A 
ATOM      6  O   UNL d   1      33.194  18.741 -21.916  0.00  0.00    -0.259 OA
ATOM      7  C   UNL d   1      33.234  20.709 -24.086  0.00  0.00     0.018 A 
ATOM      8  C   UNL d   1      33.198  21.579 -22.682  0.00  0.00     0.008 A 
ATOM      9  C   UNL d   1      33.230  21.533 -24.107  0.00  0.00     0.002 A 
ATOM     10  C   UNL d   1      33.212  21.965 -23.411  0.00  0.00     0.001 A 
ENDROOT
BRANCH   2  11
ATOM     11  C   UNL d   1      33.234  18.888 -23.711  0.00  0.00     0.086 C 
BRANCH  11  12
ATOM     12  C   UNL d   1      32.690  18.269 -23.635  0.00  0.00     0.046 C 
BRANCH  12  13
ATOM     13  C   UNL d   1      32.720  17.628 -24.153  0.00  0.00     0.124 C 
BRANCH  13  14
ATOM     14  O   UNL d   1      32.085  17.114 -24.207  0.00  0.00    -0.305 OA
BRANCH  14  15
ATOM     15  C   UNL d   1      31.444  16.594 -24.263  0.00  0.00     0.100 A 
ATOM     16  C   UNL d   1      30.930  16.661 -24.898  0.00  0.00     0.025 A 
ATOM     17  C   UNL d   1      30.289  16.141 -24.953  0.00  0.00     0.002 A 
ATOM     18  C   UNL d   1      30.168  15.564 -24.378  0.00  0.00     0.000 A 
ATOM     19  C   UNL d   1      30.694  15.506 -23.739  0.00  0.00     0.002 A 
ATOM     20  C   UNL d   1      31.330  16.019 -23.683  0.00  0.00     0.025 A 
ENDBRANCH  14  15
ENDBRANCH  13  14
ENDBRANCH  12  13
ENDBRANCH  11  12
ENDBRANCH   2  11
TORSDOF 5
ENDMDL
MODEL 4
REMARK VINA RESULT:      -1.0      2.115      3.187
REMARK  5 active torsions:
REMARK  status: ('A' for Active; 'I' for Inactive)
REMARK    1  A    between atoms: C_7  and  N_2 
REMARK    2  A    between atoms: C_8  and  C_7 
REMARK    3  A    between atoms: C_13  and  C_8 
REMARK    4  A    between atoms: C_9  and  O_11 
REMARK    5  A    between atoms: O_11  and  C_13 
ROOT
ATOM      1  C   UNL d   1      29.622  17.523 -24.635  0.00  0.00     0.296 A 
ATOM      2  N   UNL d   1      29.980  16.856 -24.291  0.00  0.00    -0.268 N 
ATOM      3  S   UNL d   1      28.822  17.512 -24.431  0.00  0.00    -0.025 SA
ATOM      4  C   UNL d   1      29.398  16.439 -23.877  0.00  0.00     0.073 A 
ATOM      5  C   UNL d   1      28.681  16.847 -23.965  0.00  0.00     0.050 A 
ATOM      6  O   UNL d   1      29.998  18.093 -25.097  0.00  0.00    -0.259 OA
ATOM      7  C   UNL d   1      29.429  15.746 -23.436  0.00  0.00     0.018 A 
ATOM      8  C   UNL d   1      27.994  16.547 -23.602  0.00  0.00     0.008 A 
ATOM      9  C   UNL d   1      28.746  15.454 -23.079  0.00  0.00     0.002 A 
ATOM     10  C   UNL d   1      28.034  15.852 -23.161  0.00  0.00     0.001 A 
ENDROOT
BRANCH   2  11
ATOM     11  C   UNL d   1      30.774  16.647 -24.351  0.00  0.00     0.086 C 
BRANCH  11  12
ATOM     12  C   UNL d   1      31.298  16.850 -23.744  0.00  0.00     0.046 C 
BRANCH  12  13
ATOM     13  C   UNL d   1      32.062  17.100 -23.925  0.00  0.00     0.124 C 
BRANCH  13  14
ATOM     14  O   UNL d   1      32.356  17.792 -23.600  0.00  0.00    -0.305 OA
BRANCH  14  15
ATOM     15  C   UNL d   1      32.652  18.491 -23.272  0.00  0.00     0.100 A 
ATOM     16  C   UNL d   1      32.802  18.521 -22.466  0.00  0.00     0.025 A 
ATOM     17  C   UNL d   1      33.098  19.220 -22.138  0.00  0.00     0.002 A 
ATOM     18  C   UNL d   1      33.240  19.878 -22.613  0.00  0.00     0.000 A 
ATOM     19  C   UNL d   1      33.084  19.837 -23.426  0.00  0.00     0.002 A 
ATOM     20  C   UNL d   1      32.791  19.146 -23.753  0.00  0.00     0.025 A 
ENDBRANCH  14  15
ENDBRANCH  13  14
ENDBRANCH  12  13
ENDBRANCH  11  12
ENDBRANCH   2  11
TORSDOF 5
ENDMDL
