MODEL 1
REMARK VINA RESULT:      44.9      0.000      0.000
REMARK  6 active torsions:
REMARK  status: ('A' for Active; 'I' for Inactive)
REMARK    1  A    between atoms: N_11  and  C_3 
REMARK    2  A    between atoms: C_10  and  C_5 
REMARK    3  A    between atoms: C_17  and  N_11 
REMARK    4  A    between atoms: N_13  and  C_18 
REMARK    5  A    between atoms: C_16  and  C_17 
REMARK    6  A    between atoms: C_18  and  C_16 
ROOT
ATOM      1  N   UNL d   1      14.164  13.822  -2.389  0.00  0.00    -0.184 N 
ATOM      2  C   UNL d   1      14.536  14.386  -1.908  0.00  0.00     0.168 A 
ATOM      3  C   UNL d   1      14.149  13.038  -2.146  0.00  0.00     0.217 A 
ATOM      4  N   UNL d   1      13.846  14.832  -3.318  0.00  0.00    -0.162 NA
ATOM      5  C   UNL d   1      14.563  15.164  -2.129  0.00  0.00     0.055 A 
ATOM      6  N   UNL d   1      14.884  14.153  -1.194  0.00  0.00    -0.227 NA
ATOM      7  C   UNL d   1      14.491  12.806  -1.443  0.00  0.00     0.066 A 
ATOM      8  C   UNL d   1      14.216  15.393  -2.840  0.00  0.00     0.104 A 
ATOM      9  C   UNL d   1      14.861  13.367  -0.964  0.00  0.00     0.087 A 
ATOM     10  C   UNL d   1      14.464  12.009  -1.216  0.00  0.00     0.006 A 
ATOM     11  C   UNL d   1      14.235  16.166  -3.072  0.00  0.00     0.023 C 
ATOM     12  C   UNL d   1      15.208  13.137  -0.253  0.00  0.00     0.019 A 
ATOM     13  C   UNL d   1      14.817  11.780  -0.493  0.00  0.00     0.000 A 
ATOM     14  C   UNL d   1      15.187  12.341  -0.014  0.00  0.00     0.002 A 
ENDROOT
BRANCH   3  15
ATOM     15  N   UNL d   1      13.771  12.462  -2.633  0.00  0.00    -0.380 NA
BRANCH  15  16
ATOM     16  C   UNL d   1      13.337  11.896  -3.075  0.00  0.00     0.164 C 
BRANCH  16  17
ATOM     17  C   UNL d   1      13.529  11.779  -3.886  0.00  0.00     0.054 C 
BRANCH  17  18
ATOM     18  C   UNL d   1      12.911  11.785  -4.472  0.00  0.00     0.083 C 
BRANCH  18  19
ATOM     19  N   UNL d   1      13.110  11.831  -5.289  0.00  0.00    -0.300 N 
ATOM     20  C   UNL d   1      13.926  11.895  -5.124  0.00  0.00     0.100 C 
ATOM     21  C   UNL d   1      12.858  11.838  -6.097  0.00  0.00     0.100 C 
ENDBRANCH  18  19
ENDBRANCH  17  18
ENDBRANCH  16  17
ENDBRANCH  15  16
ENDBRANCH   3  15
BRANCH   5  22
ATOM     22  C   UNL d   1      14.933  15.725  -1.650  0.00  0.00     0.004 A 
ATOM     23  C   UNL d   1      15.266  16.385  -1.991  0.00  0.00     0.000 A 
ATOM     24  C   UNL d   1      15.635  16.945  -1.512  0.00  0.00     0.000 A 
ATOM     25  C   UNL d   1      15.667  16.838  -0.700  0.00  0.00     0.000 A 
ATOM     26  C   UNL d   1      15.328  16.169  -0.366  0.00  0.00     0.000 A 
ATOM     27  C   UNL d   1      14.958  15.609  -0.845  0.00  0.00     0.000 A 
ENDBRANCH   5  22
TORSDOF 6
ENDMDL
MODEL 2
REMARK VINA RESULT:      45.2      1.408      3.777
REMARK  6 active torsions:
REMARK  status: ('A' for Active; 'I' for Inactive)
REMARK    1  A    between atoms: N_11  and  C_3 
REMARK    2  A    between atoms: C_10  and  C_5 
REMARK    3  A    between atoms: C_17  and  N_11 
REMARK    4  A    between atoms: N_13  and  C_18 
REMARK    5  A    between atoms: C_16  and  C_17 
REMARK    6  A    between atoms: C_18  and  C_16 
ROOT
ATOM      1  N   UNL d   1      14.013  14.164  -2.867  0.00  0.00    -0.184 N 
ATOM      2  C   UNL d   1      14.086  13.534  -2.331  0.00  0.00     0.168 A 
ATOM      3  C   UNL d   1      13.669  14.027  -3.599  0.00  0.00     0.217 A 
ATOM      4  N   UNL d   1      14.622  15.024  -1.931  0.00  0.00    -0.162 NA
ATOM      5  C   UNL d   1      14.422  13.648  -1.604  0.00  0.00     0.055 A 
ATOM      6  N   UNL d   1      13.812  12.782  -2.540  0.00  0.00    -0.227 NA
ATOM      7  C   UNL d   1      13.398  13.285  -3.808  0.00  0.00     0.066 A 
ATOM      8  C   UNL d   1      14.694  14.398  -1.398  0.00  0.00     0.104 A 
ATOM      9  C   UNL d   1      13.471  12.660  -3.275  0.00  0.00     0.087 A 
ATOM     10  C   UNL d   1      13.054  13.169  -4.552  0.00  0.00     0.006 A 
ATOM     11  C   UNL d   1      15.031  14.525  -0.677  0.00  0.00     0.023 C 
ATOM     12  C   UNL d   1      13.199  11.910  -3.481  0.00  0.00     0.019 A 
ATOM     13  C   UNL d   1      12.779  12.406  -4.758  0.00  0.00     0.000 A 
ATOM     14  C   UNL d   1      12.851  11.780  -4.225  0.00  0.00     0.002 A 
ENDROOT
BRANCH   3  15
ATOM     15  N   UNL d   1      13.593  14.664  -4.146  0.00  0.00    -0.380 NA
BRANCH  15  16
ATOM     16  C   UNL d   1      13.524  15.249  -4.745  0.00  0.00     0.164 C 
BRANCH  16  17
ATOM     17  C   UNL d   1      13.911  15.988  -4.636  0.00  0.00     0.054 C 
BRANCH  17  18
ATOM     18  C   UNL d   1      14.132  16.454  -5.314  0.00  0.00     0.083 C 
BRANCH  18  19
ATOM     19  N   UNL d   1      14.735  17.036  -5.244  0.00  0.00    -0.300 N 
ATOM     20  C   UNL d   1      14.328  17.570  -5.740  0.00  0.00     0.100 C 
ATOM     21  C   UNL d   1      15.482  17.271  -4.922  0.00  0.00     0.100 C 
ENDBRANCH  18  19
ENDBRANCH  17  18
ENDBRANCH  16  17
ENDBRANCH  15  16
ENDBRANCH   3  15
BRANCH   5  22
ATOM     22  C   UNL d   1      14.495  13.022  -1.072  0.00  0.00     0.004 A 
ATOM     23  C   UNL d   1      15.190  12.601  -1.042  0.00  0.00     0.000 A 
ATOM     24  C   UNL d   1      15.262  11.975  -0.510  0.00  0.00     0.000 A 
ATOM     25  C   UNL d   1      14.638  11.780  -0.015  0.00  0.00     0.000 A 
ATOM     26  C   UNL d   1      13.941  12.211  -0.052  0.00  0.00     0.000 A 
ATOM     27  C   UNL d   1      13.869  12.837  -0.585  0.00  0.00     0.000 A 
ENDBRANCH   5  22
TORSDOF 6
ENDMDL
