MODEL 1
REMARK VINA RESULT:      -4.3      0.000      0.000
REMARK  4 active torsions:
REMARK  status: ('A' for Active; 'I' for Inactive)
REMARK    1  A    between atoms: C_9  and  C_2 
REMARK    2  A    between atoms: N_11  and  C_9 
REMARK    3  A    between atoms: C_14  and  N_11 
REMARK    4  A    between atoms: C_17  and  C_14 
ROOT
ATOM      1  C   UNL d   1     -42.541-122.918 -49.272  0.00  0.00     0.106 A 
ATOM      2  C   UNL d   1     -41.939-122.669 -50.543  0.00  0.00     0.025 A 
ATOM      3  C   UNL d   1     -41.886-122.955 -49.773  0.00  0.00     0.025 A 
ATOM      4  O   UNL d   1     -43.248-122.596 -49.542  0.00  0.00    -0.273 OA
ATOM      5  C   UNL d   1     -42.487-123.205 -48.502  0.00  0.00     0.062 A 
ATOM      6  C   UNL d   1     -43.306-122.306 -50.318  0.00  0.00     0.300 A 
ATOM      7  C   UNL d   1     -42.652-122.343 -50.818  0.00  0.00     0.070 A 
ATOM      8  C   UNL d   1     -41.178-123.277 -49.503  0.00  0.00     0.005 A 
ATOM      9  C   UNL d   1     -41.776-123.527 -48.235  0.00  0.00     0.198 A 
ATOM     10  O   UNL d   1     -44.023-121.982 -50.586  0.00  0.00    -0.259 OA
ATOM     11  C   UNL d   1     -41.125-123.563 -48.733  0.00  0.00     0.042 A 
ATOM     12  O   UNL d   1     -41.721-123.815 -47.462  0.00  0.00    -0.286 OA
ATOM     13  C   UNL d   1     -43.142-123.168 -48.001  0.00  0.00     0.005 C 
ENDROOT
BRANCH   2  14
ATOM     14  C   UNL d   1     -41.290-122.705 -51.038  0.00  0.00     0.081 C 
BRANCH  14  15
ATOM     15  N   UNL d   1     -41.397-122.870 -51.845  0.00  0.00    -0.301 N 
ATOM     16  C   UNL d   1     -41.547-123.646 -52.080  0.00  0.00     0.100 C 
BRANCH  15  17
ATOM     17  C   UNL d   1     -41.354-122.263 -52.405  0.00  0.00     0.080 C 
BRANCH  17  18
ATOM     18  C   UNL d   1     -41.476-122.428 -53.202  0.00  0.00     0.018 A 
ATOM     19  C   UNL d   1     -41.938-121.939 -53.649  0.00  0.00     0.002 A 
ATOM     20  C   UNL d   1     -42.067-122.095 -54.450  0.00  0.00     0.000 A 
ATOM     21  C   UNL d   1     -41.715-122.770 -54.802  0.00  0.00     0.000 A 
ATOM     22  C   UNL d   1     -41.245-123.262 -54.331  0.00  0.00     0.000 A 
ATOM     23  C   UNL d   1     -41.126-123.095 -53.541  0.00  0.00     0.002 A 
ENDBRANCH  17  18
ENDBRANCH  15  17
ENDBRANCH  14  15
ENDBRANCH   2  14
TORSDOF 4
ENDMDL
MODEL 2
REMARK VINA RESULT:      -3.0      1.311      1.964
REMARK  4 active torsions:
REMARK  status: ('A' for Active; 'I' for Inactive)
REMARK    1  A    between atoms: C_9  and  C_2 
REMARK    2  A    between atoms: N_11  and  C_9 
REMARK    3  A    between atoms: C_14  and  N_11 
REMARK    4  A    between atoms: C_17  and  C_14 
ROOT
ATOM      1  C   UNL d   1     -41.513-122.179 -50.488  0.00  0.00     0.106 A 
ATOM      2  C   UNL d   1     -41.229-122.183 -51.888  0.00  0.00     0.025 A 
ATOM      3  C   UNL d   1     -41.419-122.589 -51.198  0.00  0.00     0.025 A 
ATOM      4  O   UNL d   1     -41.418-121.362 -50.469  0.00  0.00    -0.273 OA
ATOM      5  C   UNL d   1     -41.704-122.586 -49.798  0.00  0.00     0.062 A 
ATOM      6  C   UNL d   1     -41.226-120.947 -51.163  0.00  0.00     0.300 A 
ATOM      7  C   UNL d   1     -41.132-121.358 -51.872  0.00  0.00     0.070 A 
ATOM      8  C   UNL d   1     -41.515-123.407 -51.217  0.00  0.00     0.005 A 
ATOM      9  C   UNL d   1     -41.799-123.406 -49.822  0.00  0.00     0.198 A 
ATOM     10  O   UNL d   1     -41.130-120.122 -51.139  0.00  0.00    -0.259 OA
ATOM     11  C   UNL d   1     -41.705-123.814 -50.527  0.00  0.00     0.042 A 
ATOM     12  O   UNL d   1     -41.990-123.816 -49.129  0.00  0.00    -0.286 OA
ATOM     13  C   UNL d   1     -41.798-122.176 -49.089  0.00  0.00     0.005 C 
ENDROOT
BRANCH   2  14
ATOM     14  C   UNL d   1     -41.136-122.590 -52.590  0.00  0.00     0.081 C 
BRANCH  14  15
ATOM     15  N   UNL d   1     -41.458-122.281 -53.291  0.00  0.00    -0.301 N 
ATOM     16  C   UNL d   1     -42.072-121.732 -53.244  0.00  0.00     0.100 C 
BRANCH  15  17
ATOM     17  C   UNL d   1     -41.167-122.522 -54.026  0.00  0.00     0.080 C 
BRANCH  17  18
ATOM     18  C   UNL d   1     -41.658-122.513 -54.687  0.00  0.00     0.018 A 
ATOM     19  C   UNL d   1     -42.108-123.161 -54.863  0.00  0.00     0.002 A 
ATOM     20  C   UNL d   1     -42.605-123.163 -55.524  0.00  0.00     0.000 A 
ATOM     21  C   UNL d   1     -42.640-122.485 -56.016  0.00  0.00     0.000 A 
ATOM     22  C   UNL d   1     -42.173-121.830 -55.822  0.00  0.00     0.000 A 
ATOM     23  C   UNL d   1     -41.688-121.843 -55.166  0.00  0.00     0.002 A 
ENDBRANCH  17  18
ENDBRANCH  15  17
ENDBRANCH  14  15
ENDBRANCH   2  14
TORSDOF 4
ENDMDL
MODEL 3
REMARK VINA RESULT:      -2.0      1.906      4.680
REMARK  4 active torsions:
REMARK  status: ('A' for Active; 'I' for Inactive)
REMARK    1  A    between atoms: C_9  and  C_2 
REMARK    2  A    between atoms: N_11  and  C_9 
REMARK    3  A    between atoms: C_14  and  N_11 
REMARK    4  A    between atoms: C_17  and  C_14 
ROOT
ATOM      1  C   UNL d   1     -41.908-122.255 -53.915  0.00  0.00     0.106 A 
ATOM      2  C   UNL d   1     -41.510-122.699 -52.617  0.00  0.00     0.025 A 
ATOM      3  C   UNL d   1     -41.773-122.867 -53.379  0.00  0.00     0.025 A 
ATOM      4  O   UNL d   1     -41.780-121.474 -53.689  0.00  0.00    -0.273 OA
ATOM      5  C   UNL d   1     -42.170-122.424 -54.677  0.00  0.00     0.062 A 
ATOM      6  C   UNL d   1     -41.515-121.299 -52.922  0.00  0.00     0.300 A 
ATOM      7  C   UNL d   1     -41.380-121.911 -52.386  0.00  0.00     0.070 A 
ATOM      8  C   UNL d   1     -41.901-123.649 -53.604  0.00  0.00     0.005 A 
ATOM      9  C   UNL d   1     -42.297-123.209 -54.899  0.00  0.00     0.198 A 
ATOM     10  O   UNL d   1     -41.387-120.509 -52.698  0.00  0.00    -0.259 OA
ATOM     11  C   UNL d   1     -42.163-123.817 -54.366  0.00  0.00     0.042 A 
ATOM     12  O   UNL d   1     -42.561-123.380 -55.664  0.00  0.00    -0.286 OA
ATOM     13  C   UNL d   1     -42.305-121.812 -55.213  0.00  0.00     0.005 C 
ENDROOT
BRANCH   2  14
ATOM     14  C   UNL d   1     -41.377-123.305 -52.086  0.00  0.00     0.081 C 
BRANCH  14  15
ATOM     15  N   UNL d   1     -41.243-123.130 -51.285  0.00  0.00    -0.301 N 
ATOM     16  C   UNL d   1     -41.232-122.341 -51.043  0.00  0.00     0.100 C 
BRANCH  15  17
ATOM     17  C   UNL d   1     -41.123-123.738 -50.738  0.00  0.00     0.080 C 
BRANCH  17  18
ATOM     18  C   UNL d   1     -41.567-123.765 -50.047  0.00  0.00     0.018 A 
ATOM     19  C   UNL d   1     -42.374-123.785 -50.086  0.00  0.00     0.002 A 
ATOM     20  C   UNL d   1     -42.830-123.812 -49.397  0.00  0.00     0.000 A 
ATOM     21  C   UNL d   1     -42.450-123.817 -48.650  0.00  0.00     0.000 A 
ATOM     22  C   UNL d   1     -41.623-123.796 -48.626  0.00  0.00     0.000 A 
ATOM     23  C   UNL d   1     -41.186-123.770 -49.315  0.00  0.00     0.002 A 
ENDBRANCH  17  18
ENDBRANCH  15  17
ENDBRANCH  14  15
ENDBRANCH   2  14
TORSDOF 4
ENDMDL
