MODEL 1
REMARK VINA RESULT:      -9.2      0.000      0.000
REMARK  3 active torsions:
REMARK  status: ('A' for Active; 'I' for Inactive)
REMARK    1  A    between atoms: S_3  and  N_1 
REMARK    2  A    between atoms: C_7  and  C_4 
REMARK    3  A    between atoms: C_11  and  C_5 
ROOT
ATOM      1  N   UNL d   1      53.302  32.515  53.525  0.00  0.00    -0.155 N 
ATOM      2  N   UNL d   1      52.630  32.605  53.064  0.00  0.00    -0.156 NA
ATOM      3  C   UNL d   1      53.386  33.189  54.013  0.00  0.00     0.102 A 
ATOM      4  C   UNL d   1      52.287  33.344  53.264  0.00  0.00     0.104 A 
ATOM      5  C   UNL d   1      52.758  33.689  53.842  0.00  0.00     0.041 A 
ENDROOT
BRANCH   4   6
ATOM      6  C   UNL d   1      51.594  33.671  52.935  0.00  0.00     0.019 A 
ATOM      7  C   UNL d   1      51.624  34.034  52.184  0.00  0.00     0.002 A 
ATOM      8  C   UNL d   1      50.930  34.362  51.854  0.00  0.00     0.000 A 
ATOM      9  C   UNL d   1      50.214  34.326  52.271  0.00  0.00     0.000 A 
ATOM     10  C   UNL d   1      50.206  33.964  53.010  0.00  0.00     0.000 A 
ATOM     11  C   UNL d   1      49.556  34.640  51.951  0.00  0.00     0.000 C 
ATOM     12  C   UNL d   1      50.878  33.635  53.352  0.00  0.00     0.002 A 
ENDBRANCH   4   6
BRANCH   1  13
ATOM     13  S   UNL d   1      53.817  31.842  53.499  0.00  0.00     0.266 S 
ATOM     14  O   UNL d   1      54.300  31.159  53.494  0.00  0.00    -0.203 OA
ATOM     15  O   UNL d   1      54.344  32.253  53.026  0.00  0.00    -0.203 OA
ATOM     16  C   UNL d   1      53.251  31.424  53.996  0.00  0.00     0.165 C 
ENDBRANCH   1  13
BRANCH   3  17
ATOM     17  C   UNL d   1      54.003  33.314  54.566  0.00  0.00     0.048 A 
ATOM     18  S   UNL d   1      54.696  33.755  54.420  0.00  0.00    -0.085 SA
ATOM     19  C   UNL d   1      55.135  33.723  55.122  0.00  0.00     0.035 A 
ATOM     20  C   UNL d   1      54.747  33.291  55.679  0.00  0.00     0.007 A 
ATOM     21  C   UNL d   1      54.042  33.033  55.340  0.00  0.00     0.009 A 
ENDBRANCH   3  17
TORSDOF 3
ENDMDL
MODEL 2
REMARK VINA RESULT:      -9.0      2.253      3.334
REMARK  3 active torsions:
REMARK  status: ('A' for Active; 'I' for Inactive)
REMARK    1  A    between atoms: S_3  and  N_1 
REMARK    2  A    between atoms: C_7  and  C_4 
REMARK    3  A    between atoms: C_11  and  C_5 
ROOT
ATOM      1  N   UNL d   1      54.244  33.159  54.549  0.00  0.00    -0.155 N 
ATOM      2  N   UNL d   1      54.262  32.352  54.406  0.00  0.00    -0.156 NA
ATOM      3  C   UNL d   1      53.543  33.474  54.220  0.00  0.00     0.102 A 
ATOM      4  C   UNL d   1      53.566  32.156  53.981  0.00  0.00     0.104 A 
ATOM      5  C   UNL d   1      53.137  32.850  53.875  0.00  0.00     0.041 A 
ENDROOT
BRANCH   4   6
ATOM      6  C   UNL d   1      53.347  31.398  53.715  0.00  0.00     0.019 A 
ATOM      7  C   UNL d   1      53.553  30.726  54.166  0.00  0.00     0.002 A 
ATOM      8  C   UNL d   1      53.334  29.965  53.900  0.00  0.00     0.000 A 
ATOM      9  C   UNL d   1      52.914  29.877  53.191  0.00  0.00     0.000 A 
ATOM     10  C   UNL d   1      52.720  30.552  52.762  0.00  0.00     0.000 A 
ATOM     11  C   UNL d   1      52.708  29.149  52.943  0.00  0.00     0.000 C 
ATOM     12  C   UNL d   1      52.926  31.310  53.006  0.00  0.00     0.002 A 
ENDBRANCH   4   6
BRANCH   1  13
ATOM     13  S   UNL d   1      54.846  33.587  54.965  0.00  0.00     0.266 S 
ATOM     14  O   UNL d   1      55.458  34.013  55.344  0.00  0.00    -0.203 OA
ATOM     15  O   UNL d   1      54.416  33.532  55.660  0.00  0.00    -0.203 OA
ATOM     16  C   UNL d   1      55.284  33.637  54.226  0.00  0.00     0.165 C 
ENDBRANCH   1  13
BRANCH   3  17
ATOM     17  C   UNL d   1      53.314  34.280  54.246  0.00  0.00     0.048 A 
ATOM     18  S   UNL d   1      52.897  34.640  54.872  0.00  0.00    -0.085 SA
ATOM     19  C   UNL d   1      52.799  35.432  54.650  0.00  0.00     0.035 A 
ATOM     20  C   UNL d   1      53.132  35.568  53.931  0.00  0.00     0.007 A 
ATOM     21  C   UNL d   1      53.455  34.856  53.673  0.00  0.00     0.009 A 
ENDBRANCH   3  17
TORSDOF 3
ENDMDL
MODEL 3
REMARK VINA RESULT:      -8.7      0.825      1.973
REMARK  3 active torsions:
REMARK  status: ('A' for Active; 'I' for Inactive)
REMARK    1  A    between atoms: S_3  and  N_1 
REMARK    2  A    between atoms: C_7  and  C_4 
REMARK    3  A    between atoms: C_11  and  C_5 
ROOT
ATOM      1  N   UNL d   1      53.379  32.692  53.592  0.00  0.00    -0.155 N 
ATOM      2  N   UNL d   1      52.908  33.343  53.427  0.00  0.00    -0.156 NA
ATOM      3  C   UNL d   1      52.952  31.997  53.408  0.00  0.00     0.102 A 
ATOM      4  C   UNL d   1      52.176  33.055  53.136  0.00  0.00     0.104 A 
ATOM      5  C   UNL d   1      52.217  32.234  53.130  0.00  0.00     0.041 A 
ENDROOT
BRANCH   4   6
ATOM      6  C   UNL d   1      51.525  33.516  52.896  0.00  0.00     0.019 A 
ATOM      7  C   UNL d   1      50.848  33.559  53.381  0.00  0.00     0.002 A 
ATOM      8  C   UNL d   1      50.194  34.021  53.142  0.00  0.00     0.000 A 
ATOM      9  C   UNL d   1      50.219  34.436  52.425  0.00  0.00     0.000 A 
ATOM     10  C   UNL d   1      50.897  34.381  51.961  0.00  0.00     0.000 A 
ATOM     11  C   UNL d   1      49.593  34.875  52.202  0.00  0.00     0.000 C 
ATOM     12  C   UNL d   1      51.550  33.931  52.178  0.00  0.00     0.002 A 
ENDBRANCH   4   6
BRANCH   1  13
ATOM     13  S   UNL d   1      54.169  32.735  53.899  0.00  0.00     0.266 S 
ATOM     14  O   UNL d   1      54.933  32.781  54.236  0.00  0.00    -0.203 OA
ATOM     15  O   UNL d   1      54.475  32.656  53.144  0.00  0.00    -0.203 OA
ATOM     16  C   UNL d   1      53.829  32.817  54.686  0.00  0.00     0.165 C 
ENDBRANCH   1  13
BRANCH   3  17
ATOM     17  C   UNL d   1      53.237  31.214  53.497  0.00  0.00     0.048 A 
ATOM     18  S   UNL d   1      53.512  30.731  52.877  0.00  0.00    -0.085 SA
ATOM     19  C   UNL d   1      53.733  30.015  53.231  0.00  0.00     0.035 A 
ATOM     20  C   UNL d   1      53.605  30.041  54.025  0.00  0.00     0.007 A 
ATOM     21  C   UNL d   1      53.297  30.784  54.198  0.00  0.00     0.009 A 
ENDBRANCH   3  17
TORSDOF 3
ENDMDL
MODEL 4
REMARK VINA RESULT:      -8.5      1.926      3.496
REMARK  3 active torsions:
REMARK  status: ('A' for Active; 'I' for Inactive)
REMARK    1  A    between atoms: S_3  and  N_1 
REMARK    2  A    between atoms: C_7  and  C_4 
REMARK    3  A    between atoms: C_11  and  C_5 
ROOT
ATOM      1  N   UNL d   1      52.002  33.447  53.062  0.00  0.00    -0.155 N 
ATOM      2  N   UNL d   1      52.006  32.636  52.941  0.00  0.00    -0.156 NA
ATOM      3  C   UNL d   1      52.652  33.649  53.549  0.00  0.00     0.102 A 
ATOM      4  C   UNL d   1      52.664  32.323  53.356  0.00  0.00     0.104 A 
ATOM      5  C   UNL d   1      53.048  32.951  53.722  0.00  0.00     0.041 A 
ENDROOT
BRANCH   4   6
ATOM      6  C   UNL d   1      52.889  31.522  53.392  0.00  0.00     0.019 A 
ATOM      7  C   UNL d   1      53.492  31.285  53.918  0.00  0.00     0.002 A 
ATOM      8  C   UNL d   1      53.719  30.482  53.955  0.00  0.00     0.000 A 
ATOM      9  C   UNL d   1      53.346  29.922  53.471  0.00  0.00     0.000 A 
ATOM     10  C   UNL d   1      52.754  30.176  52.959  0.00  0.00     0.000 A 
ATOM     11  C   UNL d   1      53.566  29.158  53.511  0.00  0.00     0.000 C 
ATOM     12  C   UNL d   1      52.516  30.962  52.908  0.00  0.00     0.002 A 
ENDBRANCH   4   6
BRANCH   1  13
ATOM     13  S   UNL d   1      51.427  33.979  52.739  0.00  0.00     0.266 S 
ATOM     14  O   UNL d   1      50.836  34.495  52.447  0.00  0.00    -0.203 OA
ATOM     15  O   UNL d   1      51.941  34.181  52.134  0.00  0.00    -0.203 OA
ATOM     16  C   UNL d   1      50.899  33.756  53.382  0.00  0.00     0.165 C 
ENDBRANCH   1  13
BRANCH   3  17
ATOM     17  C   UNL d   1      52.845  34.423  53.804  0.00  0.00     0.048 A 
ATOM     18  S   UNL d   1      52.650  34.747  54.547  0.00  0.00    -0.085 SA
ATOM     19  C   UNL d   1      52.954  35.518  54.543  0.00  0.00     0.035 A 
ATOM     20  C   UNL d   1      53.318  35.675  53.844  0.00  0.00     0.007 A 
ATOM     21  C   UNL d   1      53.254  34.999  53.378  0.00  0.00     0.009 A 
ENDBRANCH   3  17
TORSDOF 3
ENDMDL
