MODEL 1
REMARK VINA RESULT:      29.1      0.000      0.000
REMARK  8 active torsions:
REMARK  status: ('A' for Active; 'I' for Inactive)
REMARK    1  A    between atoms: C_9  and  C_2 
REMARK    2  A    between atoms: S_7  and  C_4 
REMARK    3  A    between atoms: C_6  and  C_13 
REMARK       I    between atoms: N_10  and  C_6 
REMARK    4  A    between atoms: C_13  and  S_7 
REMARK    5  A    between atoms: C_8  and  C_14 
REMARK    6  A    between atoms: O_15  and  C_8 
REMARK    7  A    between atoms: C_14  and  N_10 
REMARK    8  A    between atoms: C_18  and  O_15 
ROOT
ATOM      1  N   UNL d   1     -56.437-100.061 -44.345  0.00  0.00    -0.212 NA
ATOM      2  C   UNL d   1     -56.769 -99.315 -44.305  0.00  0.00     0.171 A 
ATOM      3  N   UNL d   1     -56.158 -98.758 -44.329  0.00  0.00    -0.188 NA
ATOM      4  C   UNL d   1     -55.618 -99.983 -44.394  0.00  0.00     0.160 A 
ATOM      5  S   UNL d   1     -55.446 -99.172 -44.385  0.00  0.00     0.041 SA
ENDROOT
BRANCH   4   6
ATOM      6  S   UNL d   1     -55.064-100.594 -44.445  0.00  0.00    -0.054 SA
BRANCH   6   7
ATOM      7  C   UNL d   1     -55.308-101.372 -44.394  0.00  0.00     0.100 C 
BRANCH   7   8
ATOM      8  C   UNL d   1     -55.028-101.865 -43.788  0.00  0.00     0.286 C 
ATOM      9  N   UNL d   1     -54.990-101.582 -43.015  0.00  0.00    -0.200 NA
ATOM     10  O   UNL d   1     -54.792-102.631 -43.968  0.00  0.00    -0.265 OA
BRANCH   9  11
ATOM     11  C   UNL d   1     -54.711-102.078 -42.420  0.00  0.00     0.171 C 
BRANCH  11  12
ATOM     12  C   UNL d   1     -54.960-101.949 -41.636  0.00  0.00     0.320 C 
ATOM     13  O   UNL d   1     -54.795-101.231 -41.261  0.00  0.00    -0.257 OA
BRANCH  12  14
ATOM     14  O   UNL d   1     -55.376-102.549 -41.239  0.00  0.00    -0.270 OA
BRANCH  14  15
ATOM     15  C   UNL d   1     -55.073-102.848 -40.523  0.00  0.00     0.126 C 
ATOM     16  C   UNL d   1     -55.410-102.619 -39.815  0.00  0.00     0.029 C 
ENDBRANCH  14  15
ENDBRANCH  12  14
ENDBRANCH  11  12
ENDBRANCH   9  11
ENDBRANCH   7   8
ENDBRANCH   6   7
ENDBRANCH   4   6
BRANCH   2  17
ATOM     17  C   UNL d   1     -57.573 -99.137 -44.249  0.00  0.00     0.036 A 
ATOM     18  C   UNL d   1     -57.928 -98.980 -43.513  0.00  0.00     0.003 A 
ATOM     19  C   UNL d   1     -58.722 -98.805 -43.462  0.00  0.00     0.000 A 
ATOM     20  C   UNL d   1     -59.178 -98.782 -44.145  0.00  0.00     0.000 A 
ATOM     21  C   UNL d   1     -58.831 -98.938 -44.882  0.00  0.00     0.000 A 
ATOM     22  C   UNL d   1     -58.033 -99.113 -44.922  0.00  0.00     0.003 A 
ENDBRANCH   2  17
TORSDOF 8
ENDMDL
MODEL 2
REMARK VINA RESULT:      29.4      1.869      2.996
REMARK  8 active torsions:
REMARK  status: ('A' for Active; 'I' for Inactive)
REMARK    1  A    between atoms: C_9  and  C_2 
REMARK    2  A    between atoms: S_7  and  C_4 
REMARK    3  A    between atoms: C_6  and  C_13 
REMARK       I    between atoms: N_10  and  C_6 
REMARK    4  A    between atoms: C_13  and  S_7 
REMARK    5  A    between atoms: C_8  and  C_14 
REMARK    6  A    between atoms: O_15  and  C_8 
REMARK    7  A    between atoms: C_14  and  N_10 
REMARK    8  A    between atoms: C_18  and  O_15 
ROOT
ATOM      1  N   UNL d   1     -55.109-101.278 -42.923  0.00  0.00    -0.212 NA
ATOM      2  C   UNL d   1     -55.247-101.077 -43.703  0.00  0.00     0.171 A 
ATOM      3  N   UNL d   1     -55.204-101.765 -44.160  0.00  0.00    -0.188 NA
ATOM      4  C   UNL d   1     -54.979-102.091 -42.879  0.00  0.00     0.160 A 
ATOM      5  S   UNL d   1     -55.038-102.392 -43.650  0.00  0.00     0.041 SA
ENDROOT
BRANCH   4   6
ATOM      6  S   UNL d   1     -54.819-102.531 -42.199  0.00  0.00    -0.054 SA
BRANCH   6   7
ATOM      7  C   UNL d   1     -54.714-102.154 -41.483  0.00  0.00     0.100 C 
BRANCH   7   8
ATOM      8  C   UNL d   1     -55.155-102.380 -40.816  0.00  0.00     0.286 C 
ATOM      9  N   UNL d   1     -54.768-102.656 -40.144  0.00  0.00    -0.200 NA
ATOM     10  O   UNL d   1     -55.975-102.323 -40.838  0.00  0.00    -0.265 OA
BRANCH   9  11
ATOM     11  C   UNL d   1     -55.214-102.878 -39.488  0.00  0.00     0.171 C 
BRANCH  11  12
ATOM     12  C   UNL d   1     -55.188-102.405 -38.803  0.00  0.00     0.320 C 
ATOM     13  O   UNL d   1     -55.172-101.581 -38.869  0.00  0.00    -0.257 OA
BRANCH  12  14
ATOM     14  O   UNL d   1     -55.181-102.772 -38.057  0.00  0.00    -0.270 OA
BRANCH  14  15
ATOM     15  C   UNL d   1     -55.535-102.385 -37.411  0.00  0.00     0.126 C 
ATOM     16  C   UNL d   1     -55.255-102.520 -36.656  0.00  0.00     0.029 C 
ENDBRANCH  14  15
ENDBRANCH  12  14
ENDBRANCH  11  12
ENDBRANCH   9  11
ENDBRANCH   7   8
ENDBRANCH   6   7
ENDBRANCH   4   6
BRANCH   2  17
ATOM     17  C   UNL d   1     -55.402-100.320 -43.996  0.00  0.00     0.036 A 
ATOM     18  C   UNL d   1     -54.789 -99.767 -44.103  0.00  0.00     0.003 A 
ATOM     19  C   UNL d   1     -54.946 -99.022 -44.391  0.00  0.00     0.000 A 
ATOM     20  C   UNL d   1     -55.718 -98.814 -44.579  0.00  0.00     0.000 A 
ATOM     21  C   UNL d   1     -56.334 -99.359 -44.475  0.00  0.00     0.000 A 
ATOM     22  C   UNL d   1     -56.165-100.105 -44.185  0.00  0.00     0.003 A 
ENDBRANCH   2  17
TORSDOF 8
ENDMDL
