MODEL 1
REMARK VINA RESULT:      -5.6      0.000      0.000
REMARK  5 active torsions:
REMARK  status: ('A' for Active; 'I' for Inactive)
REMARK    1  A    between atoms: C_2  and  C_1 
REMARK    2  A    between atoms: O_6  and  C_1 
REMARK    3  A    between atoms: C_11  and  O_6 
REMARK    4  A    between atoms: C_12  and  C_11 
REMARK    5  A    between atoms: C_13  and  C_12 
ROOT
ATOM      1  C   UNL d   1     -47.151  13.388  22.851  0.00  0.00     0.064 A 
ATOM      2  C   UNL d   1     -46.412  13.499  22.498  0.00  0.00     0.009 A 
ATOM      3  C   UNL d   1     -47.266  12.748  23.360  0.00  0.00     0.009 A 
ATOM      4  C   UNL d   1     -45.902  12.342  23.155  0.00  0.00     0.196 A 
ATOM      5  C   UNL d   1     -45.787  12.982  22.646  0.00  0.00     0.042 A 
ATOM      6  C   UNL d   1     -46.639  12.232  23.506  0.00  0.00     0.042 A 
ATOM      7  O   UNL d   1     -45.287  11.802  23.323  0.00  0.00    -0.287 OA
ENDROOT
BRANCH   1   8
ATOM      8  C   UNL d   1     -47.772  13.916  22.694  0.00  0.00     0.300 C 
ATOM      9  O   UNL d   1     -47.726  14.701  22.943  0.00  0.00    -0.259 OA
BRANCH   8  10
ATOM     10  O   UNL d   1     -48.433  13.643  22.285  0.00  0.00    -0.271 OA
BRANCH  10  11
ATOM     11  C   UNL d   1     -49.070  14.157  22.170  0.00  0.00     0.126 C 
BRANCH  11  12
ATOM     12  C   UNL d   1     -49.677  13.933  21.654  0.00  0.00     0.027 C 
BRANCH  12  13
ATOM     13  C   UNL d   1     -50.458  14.067  21.863  0.00  0.00     0.002 C 
ATOM     14  C   UNL d   1     -51.064  13.681  21.460  0.00  0.00     0.000 C 
ENDBRANCH  12  13
ENDBRANCH  11  12
ENDBRANCH  10  11
ENDBRANCH   8  10
ENDBRANCH   1   8
TORSDOF 5
ENDMDL
MODEL 2
REMARK VINA RESULT:      -5.4      1.412      3.959
REMARK  5 active torsions:
REMARK  status: ('A' for Active; 'I' for Inactive)
REMARK    1  A    between atoms: C_2  and  C_1 
REMARK    2  A    between atoms: O_6  and  C_1 
REMARK    3  A    between atoms: C_11  and  O_6 
REMARK    4  A    between atoms: C_12  and  C_11 
REMARK    5  A    between atoms: C_13  and  C_12 
ROOT
ATOM      1  C   UNL d   1     -48.990  14.148  22.598  0.00  0.00     0.064 A 
ATOM      2  C   UNL d   1     -49.749  13.939  22.851  0.00  0.00     0.009 A 
ATOM      3  C   UNL d   1     -48.793  14.946  22.523  0.00  0.00     0.009 A 
ATOM      4  C   UNL d   1     -50.115  15.314  22.955  0.00  0.00     0.196 A 
ATOM      5  C   UNL d   1     -50.312  14.515  23.030  0.00  0.00     0.042 A 
ATOM      6  C   UNL d   1     -49.358  15.520  22.703  0.00  0.00     0.042 A 
ATOM      7  O   UNL d   1     -50.664  15.918  23.128  0.00  0.00    -0.287 OA
ENDROOT
BRANCH   1   8
ATOM      8  C   UNL d   1     -48.434  13.559  22.422  0.00  0.00     0.300 C 
ATOM      9  O   UNL d   1     -48.274  13.357  21.639  0.00  0.00    -0.259 OA
BRANCH   8  10
ATOM     10  O   UNL d   1     -48.044  13.181  23.042  0.00  0.00    -0.271 OA
BRANCH  10  11
ATOM     11  C   UNL d   1     -47.552  12.539  22.870  0.00  0.00     0.126 C 
BRANCH  11  12
ATOM     12  C   UNL d   1     -47.047  12.254  23.459  0.00  0.00     0.027 C 
BRANCH  12  13
ATOM     13  C   UNL d   1     -46.875  11.453  23.496  0.00  0.00     0.002 C 
ATOM     14  C   UNL d   1     -46.115  11.203  23.694  0.00  0.00     0.000 C 
ENDBRANCH  12  13
ENDBRANCH  11  12
ENDBRANCH  10  11
ENDBRANCH   8  10
ENDBRANCH   1   8
TORSDOF 5
ENDMDL
MODEL 3
REMARK VINA RESULT:      -5.3      1.406      3.994
REMARK  5 active torsions:
REMARK  status: ('A' for Active; 'I' for Inactive)
REMARK    1  A    between atoms: C_2  and  C_1 
REMARK    2  A    between atoms: O_6  and  C_1 
REMARK    3  A    between atoms: C_11  and  O_6 
REMARK    4  A    between atoms: C_12  and  C_11 
REMARK    5  A    between atoms: C_13  and  C_12 
ROOT
ATOM      1  C   UNL d   1     -47.171  13.728  22.785  0.00  0.00     0.064 A 
ATOM      2  C   UNL d   1     -47.775  13.170  22.700  0.00  0.00     0.009 A 
ATOM      3  C   UNL d   1     -47.354  14.532  22.756  0.00  0.00     0.009 A 
ATOM      4  C   UNL d   1     -48.742  14.209  22.560  0.00  0.00     0.196 A 
ATOM      5  C   UNL d   1     -48.558  13.404  22.588  0.00  0.00     0.042 A 
ATOM      6  C   UNL d   1     -48.138  14.763  22.644  0.00  0.00     0.042 A 
ATOM      7  O   UNL d   1     -49.526  14.474  22.447  0.00  0.00    -0.287 OA
ENDROOT
BRANCH   1   8
ATOM      8  C   UNL d   1     -46.387  13.479  22.897  0.00  0.00     0.300 C 
ATOM      9  O   UNL d   1     -46.102  13.327  23.656  0.00  0.00    -0.259 OA
BRANCH   8  10
ATOM     10  O   UNL d   1     -45.900  13.387  22.239  0.00  0.00    -0.271 OA
BRANCH  10  11
ATOM     11  C   UNL d   1     -45.138  13.087  22.347  0.00  0.00     0.126 C 
BRANCH  11  12
ATOM     12  C   UNL d   1     -44.624  13.058  21.700  0.00  0.00     0.027 C 
BRANCH  12  13
ATOM     13  C   UNL d   1     -43.935  12.616  21.746  0.00  0.00     0.002 C 
ATOM     14  C   UNL d   1     -43.282  12.821  21.288  0.00  0.00     0.000 C 
ENDBRANCH  12  13
ENDBRANCH  11  12
ENDBRANCH  10  11
ENDBRANCH   8  10
ENDBRANCH   1   8
TORSDOF 5
ENDMDL
MODEL 4
REMARK VINA RESULT:      -4.8      8.006      9.584
REMARK  5 active torsions:
REMARK  status: ('A' for Active; 'I' for Inactive)
REMARK    1  A    between atoms: C_2  and  C_1 
REMARK    2  A    between atoms: O_6  and  C_1 
REMARK    3  A    between atoms: C_11  and  O_6 
REMARK    4  A    between atoms: C_12  and  C_11 
REMARK    5  A    between atoms: C_13  and  C_12 
ROOT
ATOM      1  C   UNL d   1     -39.644  14.143  17.549  0.00  0.00     0.064 A 
ATOM      2  C   UNL d   1     -39.143  13.486  17.509  0.00  0.00     0.009 A 
ATOM      3  C   UNL d   1     -39.579  14.738  16.980  0.00  0.00     0.009 A 
ATOM      4  C   UNL d   1     -38.514  14.011  16.342  0.00  0.00     0.196 A 
ATOM      5  C   UNL d   1     -38.579  13.416  16.911  0.00  0.00     0.042 A 
ATOM      6  C   UNL d   1     -39.014  14.665  16.383  0.00  0.00     0.042 A 
ATOM      7  O   UNL d   1     -37.953  13.967  15.725  0.00  0.00    -0.287 OA
ENDROOT
BRANCH   1   8
ATOM      8  C   UNL d   1     -40.206  14.201  18.155  0.00  0.00     0.300 C 
ATOM      9  O   UNL d   1     -40.931  13.812  18.092  0.00  0.00    -0.259 OA
BRANCH   8  10
ATOM     10  O   UNL d   1     -40.029  14.654  18.821  0.00  0.00    -0.271 OA
BRANCH  10  11
ATOM     11  C   UNL d   1     -40.579  14.689  19.437  0.00  0.00     0.126 C 
BRANCH  11  12
ATOM     12  C   UNL d   1     -40.391  15.121  20.116  0.00  0.00     0.027 C 
BRANCH  12  13
ATOM     13  C   UNL d   1     -40.941  15.188  20.721  0.00  0.00     0.002 C 
ATOM     14  C   UNL d   1     -41.090  15.922  21.064  0.00  0.00     0.000 C 
ENDBRANCH  12  13
ENDBRANCH  11  12
ENDBRANCH  10  11
ENDBRANCH   8  10
ENDBRANCH   1   8
TORSDOF 5
ENDMDL
MODEL 5
REMARK VINA RESULT:      -4.7      7.672      9.319
REMARK  5 active torsions:
REMARK  status: ('A' for Active; 'I' for Inactive)
REMARK    1  A    between atoms: C_2  and  C_1 
REMARK    2  A    between atoms: O_6  and  C_1 
REMARK    3  A    between atoms: C_11  and  O_6 
REMARK    4  A    between atoms: C_12  and  C_11 
REMARK    5  A    between atoms: C_13  and  C_12 
ROOT
ATOM      1  C   UNL d   1     -40.490  14.726  19.202  0.00  0.00     0.064 A 
ATOM      2  C   UNL d   1     -40.573  14.282  19.894  0.00  0.00     0.009 A 
ATOM      3  C   UNL d   1     -40.557  15.548  19.238  0.00  0.00     0.009 A 
ATOM      4  C   UNL d   1     -40.789  15.469  20.654  0.00  0.00     0.196 A 
ATOM      5  C   UNL d   1     -40.723  14.646  20.619  0.00  0.00     0.042 A 
ATOM      6  C   UNL d   1     -40.706  15.910  19.964  0.00  0.00     0.042 A 
ATOM      7  O   UNL d   1     -40.940  15.864  21.375  0.00  0.00    -0.287 OA
ENDROOT
BRANCH   1   8
ATOM      8  C   UNL d   1     -40.340  14.347  18.480  0.00  0.00     0.300 C 
ATOM      9  O   UNL d   1     -40.953  13.984  18.064  0.00  0.00    -0.259 OA
BRANCH   8  10
ATOM     10  O   UNL d   1     -39.570  14.340  18.185  0.00  0.00    -0.271 OA
BRANCH  10  11
ATOM     11  C   UNL d   1     -39.405  13.890  17.512  0.00  0.00     0.126 C 
BRANCH  11  12
ATOM     12  C   UNL d   1     -38.652  13.937  17.175  0.00  0.00     0.027 C 
BRANCH  12  13
ATOM     13  C   UNL d   1     -38.403  13.356  16.653  0.00  0.00     0.002 C 
ATOM     14  C   UNL d   1     -38.005  13.564  15.962  0.00  0.00     0.000 C 
ENDBRANCH  12  13
ENDBRANCH  11  12
ENDBRANCH  10  11
ENDBRANCH   8  10
ENDBRANCH   1   8
TORSDOF 5
ENDMDL
MODEL 6
REMARK VINA RESULT:      -4.3      8.566      9.381
REMARK  5 active torsions:
REMARK  status: ('A' for Active; 'I' for Inactive)
REMARK    1  A    between atoms: C_2  and  C_1 
REMARK    2  A    between atoms: O_6  and  C_1 
REMARK    3  A    between atoms: C_11  and  O_6 
REMARK    4  A    between atoms: C_12  and  C_11 
REMARK    5  A    between atoms: C_13  and  C_12 
ROOT
ATOM      1  C   UNL d   1     -39.911  15.080  18.696  0.00  0.00     0.064 A 
ATOM      2  C   UNL d   1     -40.376  15.753  18.578  0.00  0.00     0.009 A 
ATOM      3  C   UNL d   1     -39.945  14.462  18.149  0.00  0.00     0.009 A 
ATOM      4  C   UNL d   1     -40.906  15.200  17.375  0.00  0.00     0.196 A 
ATOM      5  C   UNL d   1     -40.872  15.818  17.922  0.00  0.00     0.042 A 
ATOM      6  C   UNL d   1     -40.442  14.530  17.495  0.00  0.00     0.042 A 
ATOM      7  O   UNL d   1     -41.399  15.238  16.702  0.00  0.00    -0.287 OA
ENDROOT
BRANCH   1   8
ATOM      8  C   UNL d   1     -39.416  15.027  19.360  0.00  0.00     0.300 C 
ATOM      9  O   UNL d   1     -38.696  15.430  19.377  0.00  0.00    -0.259 OA
BRANCH   8  10
ATOM     10  O   UNL d   1     -39.656  14.567  20.000  0.00  0.00    -0.271 OA
BRANCH  10  11
ATOM     11  C   UNL d   1     -39.136  14.468  20.636  0.00  0.00     0.126 C 
BRANCH  11  12
ATOM     12  C   UNL d   1     -39.414  14.109  21.327  0.00  0.00     0.027 C 
BRANCH  12  13
ATOM     13  C   UNL d   1     -38.902  13.670  21.792  0.00  0.00     0.002 C 
ATOM     14  C   UNL d   1     -38.995  13.658  22.611  0.00  0.00     0.000 C 
ENDBRANCH  12  13
ENDBRANCH  11  12
ENDBRANCH  10  11
ENDBRANCH   8  10
ENDBRANCH   1   8
TORSDOF 5
ENDMDL
MODEL 7
REMARK VINA RESULT:      -3.1      6.613      8.225
REMARK  5 active torsions:
REMARK  status: ('A' for Active; 'I' for Inactive)
REMARK    1  A    between atoms: C_2  and  C_1 
REMARK    2  A    between atoms: O_6  and  C_1 
REMARK    3  A    between atoms: C_11  and  O_6 
REMARK    4  A    between atoms: C_12  and  C_11 
REMARK    5  A    between atoms: C_13  and  C_12 
ROOT
ATOM      1  C   UNL d   1     -40.353  14.794  18.903  0.00  0.00     0.064 A 
ATOM      2  C   UNL d   1     -40.017  14.218  18.414  0.00  0.00     0.009 A 
ATOM      3  C   UNL d   1     -40.525  15.540  18.593  0.00  0.00     0.009 A 
ATOM      4  C   UNL d   1     -40.021  15.123  17.312  0.00  0.00     0.196 A 
ATOM      5  C   UNL d   1     -39.850  14.377  17.622  0.00  0.00     0.042 A 
ATOM      6  C   UNL d   1     -40.356  15.695  17.800  0.00  0.00     0.042 A 
ATOM      7  O   UNL d   1     -39.863  15.311  16.514  0.00  0.00    -0.287 OA
ENDROOT
BRANCH   1   8
ATOM      8  C   UNL d   1     -40.516  14.622  19.698  0.00  0.00     0.300 C 
ATOM      9  O   UNL d   1     -40.121  15.022  20.301  0.00  0.00    -0.259 OA
BRANCH   8  10
ATOM     10  O   UNL d   1     -41.078  14.045  19.873  0.00  0.00    -0.271 OA
BRANCH  10  11
ATOM     11  C   UNL d   1     -41.413  14.032  20.629  0.00  0.00     0.126 C 
BRANCH  11  12
ATOM     12  C   UNL d   1     -41.851  13.371  20.861  0.00  0.00     0.027 C 
BRANCH  12  13
ATOM     13  C   UNL d   1     -42.578  13.472  21.227  0.00  0.00     0.002 C 
ATOM     14  C   UNL d   1     -43.041  12.817  21.413  0.00  0.00     0.000 C 
ENDBRANCH  12  13
ENDBRANCH  11  12
ENDBRANCH  10  11
ENDBRANCH   8  10
ENDBRANCH   1   8
TORSDOF 5
ENDMDL
