MODEL 1
REMARK VINA RESULT:      -9.4      0.000      0.000
REMARK  1 active torsions:
REMARK  status: ('A' for Active; 'I' for Inactive)
REMARK    1  A    between atoms: C_5  and  C_1 
ROOT
ATOM      1  N   UNL d   1      52.936  33.316  53.847  0.00  0.00    -0.242 NA
ATOM      2  C   UNL d   1      53.443  32.738  54.144  0.00  0.00     0.117 A 
ATOM      3  C   UNL d   1      53.052  34.108  54.080  0.00  0.00     0.081 A 
ATOM      4  C   UNL d   1      54.044  32.926  54.654  0.00  0.00     0.022 A 
ATOM      5  C   UNL d   1      53.647  34.300  54.586  0.00  0.00     0.018 A 
ATOM      6  C   UNL d   1      54.140  33.718  54.871  0.00  0.00     0.003 A 
ATOM      7  C   UNL d   1      52.550  34.690  53.787  0.00  0.00     0.019 A 
ATOM      8  C   UNL d   1      53.743  35.091  54.803  0.00  0.00     0.002 A 
ATOM      9  C   UNL d   1      52.655  35.482  54.012  0.00  0.00     0.002 A 
ATOM     10  C   UNL d   1      53.254  35.671  54.520  0.00  0.00     0.000 A 
ENDROOT
BRANCH   2  11
ATOM     11  C   UNL d   1      53.349  31.954  53.929  0.00  0.00     0.180 A 
ATOM     12  N   UNL d   1      53.533  31.287  54.393  0.00  0.00    -0.224 NA
ATOM     13  C   UNL d   1      53.351  30.626  53.960  0.00  0.00     0.101 A 
ATOM     14  C   UNL d   1      53.416  29.807  54.134  0.00  0.00     0.021 A 
ATOM     15  C   UNL d   1      53.052  30.863  53.227  0.00  0.00     0.101 A 
ATOM     16  C   UNL d   1      53.184  29.245  53.581  0.00  0.00     0.002 A 
ATOM     17  C   UNL d   1      52.885  29.482  52.849  0.00  0.00     0.002 A 
ATOM     18  C   UNL d   1      52.815  30.284  52.662  0.00  0.00     0.021 A 
ATOM     19  N   UNL d   1      53.046  31.673  53.199  0.00  0.00    -0.224 NA
ENDBRANCH   2  11
TORSDOF 1
ENDMDL
MODEL 2
REMARK VINA RESULT:      -9.3      2.045      3.750
REMARK  1 active torsions:
REMARK  status: ('A' for Active; 'I' for Inactive)
REMARK    1  A    between atoms: C_5  and  C_1 
ROOT
ATOM      1  N   UNL d   1      52.697  33.988  53.917  0.00  0.00    -0.242 NA
ATOM      2  C   UNL d   1      52.332  33.533  53.335  0.00  0.00     0.117 A 
ATOM      3  C   UNL d   1      53.401  33.703  54.264  0.00  0.00     0.081 A 
ATOM      4  C   UNL d   1      52.642  32.823  53.097  0.00  0.00     0.022 A 
ATOM      5  C   UNL d   1      53.712  32.999  54.032  0.00  0.00     0.018 A 
ATOM      6  C   UNL d   1      53.339  32.562  53.455  0.00  0.00     0.003 A 
ATOM      7  C   UNL d   1      53.770  34.152  54.846  0.00  0.00     0.019 A 
ATOM      8  C   UNL d   1      54.409  32.738  54.390  0.00  0.00     0.002 A 
ATOM      9  C   UNL d   1      54.470  33.879  55.199  0.00  0.00     0.002 A 
ATOM     10  C   UNL d   1      54.781  33.171  54.963  0.00  0.00     0.000 A 
ENDROOT
BRANCH   2  11
ATOM     11  C   UNL d   1      51.641  33.792  52.980  0.00  0.00     0.180 A 
ATOM     12  N   UNL d   1      51.473  33.794  52.165  0.00  0.00    -0.224 NA
ATOM     13  C   UNL d   1      50.728  34.097  52.066  0.00  0.00     0.101 A 
ATOM     14  C   UNL d   1      50.265  34.233  51.378  0.00  0.00     0.021 A 
ATOM     15  C   UNL d   1      50.419  34.288  52.808  0.00  0.00     0.101 A 
ATOM     16  C   UNL d   1      49.511  34.554  51.441  0.00  0.00     0.002 A 
ATOM     17  C   UNL d   1      49.202  34.745  52.183  0.00  0.00     0.002 A 
ATOM     18  C   UNL d   1      49.644  34.617  52.869  0.00  0.00     0.021 A 
ATOM     19  N   UNL d   1      50.970  34.106  53.374  0.00  0.00    -0.224 NA
ENDBRANCH   2  11
TORSDOF 1
ENDMDL
MODEL 3
REMARK VINA RESULT:      -9.2      1.996      3.574
REMARK  1 active torsions:
REMARK  status: ('A' for Active; 'I' for Inactive)
REMARK    1  A    between atoms: C_5  and  C_1 
ROOT
ATOM      1  N   UNL d   1      51.166  34.284  53.441  0.00  0.00    -0.242 NA
ATOM      2  C   UNL d   1      51.870  33.989  53.128  0.00  0.00     0.117 A 
ATOM      3  C   UNL d   1      50.530  34.436  52.923  0.00  0.00     0.081 A 
ATOM      4  C   UNL d   1      51.950  33.847  52.334  0.00  0.00     0.022 A 
ATOM      5  C   UNL d   1      50.605  34.296  52.135  0.00  0.00     0.018 A 
ATOM      6  C   UNL d   1      51.307  34.004  51.841  0.00  0.00     0.003 A 
ATOM      7  C   UNL d   1      49.826  34.730  53.230  0.00  0.00     0.019 A 
ATOM      8  C   UNL d   1      49.962  34.453  51.642  0.00  0.00     0.002 A 
ATOM      9  C   UNL d   1      49.185  34.885  52.725  0.00  0.00     0.002 A 
ATOM     10  C   UNL d   1      49.264  34.743  51.933  0.00  0.00     0.000 A 
ENDROOT
BRANCH   2  11
ATOM     11  C   UNL d   1      52.507  33.833  53.616  0.00  0.00     0.180 A 
ATOM     12  N   UNL d   1      53.028  34.393  53.946  0.00  0.00    -0.224 NA
ATOM     13  C   UNL d   1      53.574  33.992  54.391  0.00  0.00     0.101 A 
ATOM     14  C   UNL d   1      54.227  34.257  54.849  0.00  0.00     0.021 A 
ATOM     15  C   UNL d   1      53.408  33.184  54.350  0.00  0.00     0.101 A 
ATOM     16  C   UNL d   1      54.698  33.717  55.252  0.00  0.00     0.002 A 
ATOM     17  C   UNL d   1      54.532  32.909  55.211  0.00  0.00     0.002 A 
ATOM     18  C   UNL d   1      53.893  32.633  54.765  0.00  0.00     0.021 A 
ATOM     19  N   UNL d   1      52.757  33.076  53.878  0.00  0.00    -0.224 NA
ENDBRANCH   2  11
TORSDOF 1
ENDMDL
MODEL 4
REMARK VINA RESULT:      -9.1      0.570      4.272
REMARK  1 active torsions:
REMARK  status: ('A' for Active; 'I' for Inactive)
REMARK    1  A    between atoms: C_5  and  C_1 
ROOT
ATOM      1  N   UNL d   1      53.230  31.408  54.199  0.00  0.00    -0.242 NA
ATOM      2  C   UNL d   1      53.061  31.969  53.619  0.00  0.00     0.117 A 
ATOM      3  C   UNL d   1      53.206  30.600  53.992  0.00  0.00     0.081 A 
ATOM      4  C   UNL d   1      52.874  31.750  52.862  0.00  0.00     0.022 A 
ATOM      5  C   UNL d   1      53.022  30.378  53.242  0.00  0.00     0.018 A 
ATOM      6  C   UNL d   1      52.857  30.944  52.680  0.00  0.00     0.003 A 
ATOM      7  C   UNL d   1      53.374  30.035  54.566  0.00  0.00     0.019 A 
ATOM      8  C   UNL d   1      53.004  29.572  53.061  0.00  0.00     0.002 A 
ATOM      9  C   UNL d   1      53.353  29.228  54.373  0.00  0.00     0.002 A 
ATOM     10  C   UNL d   1      53.168  29.008  53.618  0.00  0.00     0.000 A 
ENDROOT
BRANCH   2  11
ATOM     11  C   UNL d   1      53.078  32.767  53.799  0.00  0.00     0.180 A 
ATOM     12  N   UNL d   1      53.508  33.128  54.414  0.00  0.00    -0.224 NA
ATOM     13  C   UNL d   1      53.361  33.925  54.385  0.00  0.00     0.101 A 
ATOM     14  C   UNL d   1      53.635  34.562  54.858  0.00  0.00     0.021 A 
ATOM     15  C   UNL d   1      52.842  34.077  53.760  0.00  0.00     0.101 A 
ATOM     16  C   UNL d   1      53.391  35.332  54.701  0.00  0.00     0.002 A 
ATOM     17  C   UNL d   1      52.873  35.483  54.076  0.00  0.00     0.002 A 
ATOM     18  C   UNL d   1      52.594  34.867  53.602  0.00  0.00     0.021 A 
ATOM     19  N   UNL d   1      52.663  33.375  53.395  0.00  0.00    -0.224 NA
ENDBRANCH   2  11
TORSDOF 1
ENDMDL
MODEL 5
REMARK VINA RESULT:      -8.5      1.740      4.150
REMARK  1 active torsions:
REMARK  status: ('A' for Active; 'I' for Inactive)
REMARK    1  A    between atoms: C_5  and  C_1 
ROOT
ATOM      1  N   UNL d   1      52.228  31.547  53.065  0.00  0.00    -0.242 NA
ATOM      2  C   UNL d   1      52.402  32.349  53.140  0.00  0.00     0.117 A 
ATOM      3  C   UNL d   1      52.819  30.990  53.260  0.00  0.00     0.081 A 
ATOM      4  C   UNL d   1      53.129  32.602  53.396  0.00  0.00     0.022 A 
ATOM      5  C   UNL d   1      53.541  31.236  53.514  0.00  0.00     0.018 A 
ATOM      6  C   UNL d   1      53.697  32.032  53.583  0.00  0.00     0.003 A 
ATOM      7  C   UNL d   1      52.652  30.188  53.188  0.00  0.00     0.019 A 
ATOM      8  C   UNL d   1      54.109  30.666  53.701  0.00  0.00     0.002 A 
ATOM      9  C   UNL d   1      53.231  29.624  53.378  0.00  0.00     0.002 A 
ATOM     10  C   UNL d   1      53.955  29.874  53.633  0.00  0.00     0.000 A 
ENDROOT
BRANCH   2  11
ATOM     11  C   UNL d   1      51.839  32.913  52.955  0.00  0.00     0.180 A 
ATOM     12  N   UNL d   1      51.280  33.246  53.475  0.00  0.00    -0.224 NA
ATOM     13  C   UNL d   1      50.836  33.779  53.056  0.00  0.00     0.101 A 
ATOM     14  C   UNL d   1      50.199  34.277  53.282  0.00  0.00     0.021 A 
ATOM     15  C   UNL d   1      51.105  33.791  52.275  0.00  0.00     0.101 A 
ATOM     16  C   UNL d   1      49.844  34.773  52.730  0.00  0.00     0.002 A 
ATOM     17  C   UNL d   1      50.112  34.785  51.949  0.00  0.00     0.002 A 
ATOM     18  C   UNL d   1      50.739  34.301  51.712  0.00  0.00     0.021 A 
ATOM     19  N   UNL d   1      51.718  33.265  52.203  0.00  0.00    -0.224 NA
ENDBRANCH   2  11
TORSDOF 1
ENDMDL
MODEL 6
REMARK VINA RESULT:      -6.5     10.331     10.918
REMARK  1 active torsions:
REMARK  status: ('A' for Active; 'I' for Inactive)
REMARK    1  A    between atoms: C_5  and  C_1 
ROOT
ATOM      1  N   UNL d   1      44.532  30.380  58.354  0.00  0.00    -0.242 NA
ATOM      2  C   UNL d   1      44.734  29.822  58.926  0.00  0.00     0.117 A 
ATOM      3  C   UNL d   1      44.607  30.174  57.549  0.00  0.00     0.081 A 
ATOM      4  C   UNL d   1      45.001  29.085  58.720  0.00  0.00     0.022 A 
ATOM      5  C   UNL d   1      44.871  29.444  57.340  0.00  0.00     0.018 A 
ATOM      6  C   UNL d   1      45.067  28.903  57.916  0.00  0.00     0.003 A 
ATOM      7  C   UNL d   1      44.407  30.726  56.974  0.00  0.00     0.019 A 
ATOM      8  C   UNL d   1      44.937  29.262  56.537  0.00  0.00     0.002 A 
ATOM      9  C   UNL d   1      44.477  30.533  56.170  0.00  0.00     0.002 A 
ATOM     10  C   UNL d   1      44.743  29.799  55.963  0.00  0.00     0.000 A 
ENDROOT
BRANCH   2  11
ATOM     11  C   UNL d   1      44.669  30.001  59.721  0.00  0.00     0.180 A 
ATOM     12  N   UNL d   1      44.578  29.459  60.347  0.00  0.00    -0.224 NA
ATOM     13  C   UNL d   1      44.537  29.881  61.038  0.00  0.00     0.101 A 
ATOM     14  C   UNL d   1      44.446  29.640  61.837  0.00  0.00     0.021 A 
ATOM     15  C   UNL d   1      44.601  30.685  60.861  0.00  0.00     0.101 A 
ATOM     16  C   UNL d   1      44.422  30.198  62.440  0.00  0.00     0.002 A 
ATOM     17  C   UNL d   1      44.486  31.002  62.263  0.00  0.00     0.002 A 
ATOM     18  C   UNL d   1      44.576  31.256  61.482  0.00  0.00     0.021 A 
ATOM     19  N   UNL d   1      44.682  30.770  60.059  0.00  0.00    -0.224 NA
ENDBRANCH   2  11
TORSDOF 1
ENDMDL
MODEL 7
REMARK VINA RESULT:      -6.5     10.499     10.849
REMARK  1 active torsions:
REMARK  status: ('A' for Active; 'I' for Inactive)
REMARK    1  A    between atoms: C_5  and  C_1 
ROOT
ATOM      1  N   UNL d   1      44.662  29.465  60.567  0.00  0.00    -0.242 NA
ATOM      2  C   UNL d   1      44.747  29.851  59.843  0.00  0.00     0.117 A 
ATOM      3  C   UNL d   1      44.553  29.923  61.255  0.00  0.00     0.081 A 
ATOM      4  C   UNL d   1      44.726  30.660  59.793  0.00  0.00     0.022 A 
ATOM      5  C   UNL d   1      44.532  30.726  61.209  0.00  0.00     0.018 A 
ATOM      6  C   UNL d   1      44.617  31.093  60.487  0.00  0.00     0.003 A 
ATOM      7  C   UNL d   1      44.468  29.544  61.980  0.00  0.00     0.019 A 
ATOM      8  C   UNL d   1      44.423  31.159  61.904  0.00  0.00     0.002 A 
ATOM      9  C   UNL d   1      44.359  29.989  62.672  0.00  0.00     0.002 A 
ATOM     10  C   UNL d   1      44.338  30.796  62.622  0.00  0.00     0.000 A 
ENDROOT
BRANCH   2  11
ATOM     11  C   UNL d   1      44.854  29.422  59.155  0.00  0.00     0.180 A 
ATOM     12  N   UNL d   1      45.093  28.626  59.099  0.00  0.00    -0.224 NA
ATOM     13  C   UNL d   1      45.127  28.432  58.313  0.00  0.00     0.101 A 
ATOM     14  C   UNL d   1      45.330  27.718  57.921  0.00  0.00     0.021 A 
ATOM     15  C   UNL d   1      44.913  29.094  57.867  0.00  0.00     0.101 A 
ATOM     16  C   UNL d   1      45.317  27.676  57.100  0.00  0.00     0.002 A 
ATOM     17  C   UNL d   1      45.103  28.338  56.654  0.00  0.00     0.002 A 
ATOM     18  C   UNL d   1      44.900  29.048  57.025  0.00  0.00     0.021 A 
ATOM     19  N   UNL d   1      44.744  29.705  58.373  0.00  0.00    -0.224 NA
ENDBRANCH   2  11
TORSDOF 1
ENDMDL
MODEL 8
REMARK VINA RESULT:      -6.4      9.489      9.913
REMARK  1 active torsions:
REMARK  status: ('A' for Active; 'I' for Inactive)
REMARK    1  A    between atoms: C_5  and  C_1 
ROOT
ATOM      1  N   UNL d   1      44.657  30.279  57.756  0.00  0.00    -0.242 NA
ATOM      2  C   UNL d   1      44.676  29.580  57.320  0.00  0.00     0.117 A 
ATOM      3  C   UNL d   1      44.541  31.000  57.352  0.00  0.00     0.081 A 
ATOM      4  C   UNL d   1      44.584  29.583  56.514  0.00  0.00     0.022 A 
ATOM      5  C   UNL d   1      44.449  31.008  56.553  0.00  0.00     0.018 A 
ATOM      6  C   UNL d   1      44.470  30.309  56.136  0.00  0.00     0.003 A 
ATOM      7  C   UNL d   1      44.521  31.701  57.781  0.00  0.00     0.019 A 
ATOM      8  C   UNL d   1      44.335  31.733  56.175  0.00  0.00     0.002 A 
ATOM      9  C   UNL d   1      44.406  32.425  57.391  0.00  0.00     0.002 A 
ATOM     10  C   UNL d   1      44.315  32.429  56.588  0.00  0.00     0.000 A 
ENDROOT
BRANCH   2  11
ATOM     11  C   UNL d   1      44.788  28.862  57.694  0.00  0.00     0.180 A 
ATOM     12  N   UNL d   1      44.497  28.641  58.443  0.00  0.00    -0.224 NA
ATOM     13  C   UNL d   1      44.743  27.883  58.591  0.00  0.00     0.101 A 
ATOM     14  C   UNL d   1      44.622  27.374  59.248  0.00  0.00     0.021 A 
ATOM     15  C   UNL d   1      45.187  27.617  57.948  0.00  0.00     0.101 A 
ATOM     16  C   UNL d   1      44.941  26.616  59.251  0.00  0.00     0.002 A 
ATOM     17  C   UNL d   1      45.385  26.350  58.608  0.00  0.00     0.002 A 
ATOM     18  C   UNL d   1      45.513  26.839  57.954  0.00  0.00     0.021 A 
ATOM     19  N   UNL d   1      45.220  28.208  57.393  0.00  0.00    -0.224 NA
ENDBRANCH   2  11
TORSDOF 1
ENDMDL
