MODEL 1
REMARK VINA RESULT:      22.4      0.000      0.000
REMARK  6 active torsions:
REMARK  status: ('A' for Active; 'I' for Inactive)
REMARK    1  A    between atoms: N_2  and  S_1 
REMARK    2  A    between atoms: C_5  and  S_1 
REMARK    3  A    between atoms: S_8  and  C_3 
REMARK    4  A    between atoms: C_13  and  S_8 
REMARK    5  A    between atoms: C_17  and  C_13 
REMARK    6  A    between atoms: O_21  and  C_15 
ROOT
ATOM      1  N   UNL d   1      45.255 -15.125  44.479  0.00  0.00    -0.208 N 
ATOM      2  C   UNL d   1      45.292 -15.923  44.250  0.00  0.00     0.189 A 
ATOM      3  N   UNL d   1      44.519 -16.218  44.217  0.00  0.00    -0.219 NA
ATOM      4  C   UNL d   1      44.454 -14.927  44.587  0.00  0.00     0.114 A 
ATOM      5  C   UNL d   1      44.007 -15.601  44.426  0.00  0.00     0.121 A 
ENDROOT
BRANCH   1   6
ATOM      6  S   UNL d   1      45.903 -14.620  44.580  0.00  0.00     0.273 S 
ATOM      7  O   UNL d   1      46.647 -14.323  44.791  0.00  0.00    -0.200 OA
ATOM      8  O   UNL d   1      46.284 -15.241  44.952  0.00  0.00    -0.200 OA
BRANCH   6   9
ATOM      9  C   UNL d   1      45.535 -13.981  44.206  0.00  0.00     0.104 A 
ATOM     10  C   UNL d   1      45.139 -13.424  44.663  0.00  0.00     0.015 A 
ATOM     11  C   UNL d   1      44.773 -12.787  44.281  0.00  0.00     0.025 A 
ATOM     12  C   UNL d   1      44.810 -12.719  43.455  0.00  0.00     0.094 A 
ATOM     13  C   UNL d   1      45.208 -13.279  43.009  0.00  0.00     0.025 A 
ATOM     14  C   UNL d   1      45.574 -13.916  43.390  0.00  0.00     0.015 A 
BRANCH  12  15
ATOM     15  O   UNL d   1      44.442 -12.081  43.086  0.00  0.00    -0.328 OA
ATOM     16  C   UNL d   1      44.300 -12.111  42.270  0.00  0.00     0.181 C 
ENDBRANCH  12  15
ENDBRANCH   6   9
ENDBRANCH   1   6
BRANCH   2  17
ATOM     17  S   UNL d   1      45.985 -16.351  44.083  0.00  0.00    -0.049 SA
BRANCH  17  18
ATOM     18  C   UNL d   1      46.098 -17.095  44.420  0.00  0.00     0.038 C 
BRANCH  18  19
ATOM     19  C   UNL d   1      46.217 -17.749  43.936  0.00  0.00     0.009 A 
ATOM     20  C   UNL d   1      46.136 -18.524  44.250  0.00  0.00     0.030 A 
ATOM     21  C   UNL d   1      46.254 -19.178  43.771  0.00  0.00     0.140 A 
ATOM     22  F   UNL d   1      46.172 -19.940  44.085  0.00  0.00    -0.204 F 
ATOM     23  C   UNL d   1      46.455 -19.078  42.971  0.00  0.00     0.030 A 
ATOM     24  C   UNL d   1      46.535 -18.319  42.660  0.00  0.00     0.002 A 
ATOM     25  C   UNL d   1      46.416 -17.653  43.144  0.00  0.00     0.001 A 
ENDBRANCH  18  19
ENDBRANCH  17  18
ENDBRANCH   2  17
TORSDOF 6
ENDMDL
