MODEL 1
REMARK VINA RESULT:      -3.4      0.000      0.000
REMARK  6 active torsions:
REMARK  status: ('A' for Active; 'I' for Inactive)
REMARK    1  A    between atoms: C_7  and  N_1 
REMARK    2  A    between atoms: C_6  and  C_3 
REMARK       I    between atoms: N_9  and  C_6 
REMARK    3  A    between atoms: C_19  and  N_9 
REMARK    4  A    between atoms: C_10  and  C_19 
REMARK    5  A    between atoms: O_23  and  C_20 
REMARK    6  A    between atoms: C_24  and  O_23 
ROOT
ATOM      1  N   UNL d   1      59.341  -0.801  29.535  0.00  0.00    -0.276 N 
ATOM      2  C   UNL d   1      58.601  -0.782  29.870  0.00  0.00     0.181 A 
ATOM      3  C   UNL d   1      58.446   0.004  30.061  0.00  0.00     0.126 A 
ATOM      4  C   UNL d   1      59.657  -0.010  29.515  0.00  0.00     0.152 A 
ATOM      5  S   UNL d   1      59.084   0.485  29.849  0.00  0.00    -0.051 SA
ATOM      6  S   UNL d   1      60.401   0.226  29.218  0.00  0.00    -0.052 SA
ATOM      7  N   UNL d   1      58.109  -1.423  29.991  0.00  0.00    -0.128 N 
ENDROOT
BRANCH   1   8
ATOM      8  C   UNL d   1      59.707  -1.491  29.264  0.00  0.00     0.067 A 
ATOM      9  C   UNL d   1      59.320  -1.968  28.734  0.00  0.00     0.020 A 
ATOM     10  C   UNL d   1      59.672  -2.655  28.458  0.00  0.00     0.026 A 
ATOM     11  C   UNL d   1      60.427  -2.875  28.714  0.00  0.00     0.100 A 
ATOM     12  C   UNL d   1      60.821  -2.400  29.246  0.00  0.00     0.026 A 
ATOM     13  C   UNL d   1      60.458  -1.701  29.525  0.00  0.00     0.020 A 
BRANCH  11  14
ATOM     14  O   UNL d   1      60.814  -3.564  28.455  0.00  0.00    -0.305 OA
BRANCH  14  15
ATOM     15  C   UNL d   1      60.483  -4.310  28.631  0.00  0.00     0.123 C 
ATOM     16  C   UNL d   1      60.935  -4.997  28.489  0.00  0.00     0.029 C 
ENDBRANCH  14  15
ENDBRANCH  11  14
ENDBRANCH   1   8
BRANCH   3  17
ATOM     17  C   UNL d   1      57.740   0.321  30.427  0.00  0.00     0.288 C 
ATOM     18  N   UNL d   1      57.671   0.344  31.239  0.00  0.00    -0.204 NA
ATOM     19  O   UNL d   1      57.119   0.607  29.930  0.00  0.00    -0.265 OA
BRANCH  18  20
ATOM     20  C   UNL d   1      56.965   0.661  31.560  0.00  0.00     0.127 C 
BRANCH  20  21
ATOM     21  C   UNL d   1      56.697   0.384  32.320  0.00  0.00     0.119 A 
ATOM     22  O   UNL d   1      57.154   0.518  32.991  0.00  0.00    -0.304 OA
ATOM     23  C   UNL d   1      56.755   0.193  33.622  0.00  0.00     0.123 A 
ATOM     24  C   UNL d   1      56.075  -0.134  33.371  0.00  0.00     0.029 A 
ATOM     25  C   UNL d   1      56.008  -0.031  32.562  0.00  0.00     0.028 A 
ENDBRANCH  20  21
ENDBRANCH  18  20
ENDBRANCH   3  17
TORSDOF 6
ENDMDL
