MODEL 1
REMARK VINA RESULT:      38.0      0.000      0.000
REMARK  7 active torsions:
REMARK  status: ('A' for Active; 'I' for Inactive)
REMARK    1  A    between atoms: C_14  and  N_1 
REMARK    2  A    between atoms: C_2  and  C_5 
REMARK    3  A    between atoms: C_6  and  C_2 
REMARK    4  A    between atoms: C_7  and  C_3 
REMARK    5  A    between atoms: C_5  and  C_7 
REMARK    6  A    between atoms: O_15  and  C_6 
REMARK    7  A    between atoms: C_18  and  O_15 
ROOT
ATOM      1  C   UNL d   1     -55.413 -99.867 -44.413  0.00  0.00     0.132 C 
ATOM      2  C   UNL d   1     -55.057 -99.457 -45.025  0.00  0.00     0.106 C 
ATOM      3  N   UNL d   1     -54.713 -99.051 -45.620  0.00  0.00    -0.191 NA
ENDROOT
BRANCH   1   4
ATOM      4  C   UNL d   1     -55.855 -99.478 -43.836  0.00  0.00     0.017 C 
BRANCH   4   5
ATOM      5  C   UNL d   1     -56.237 -98.810 -44.019  0.00  0.00     0.018 C 
BRANCH   5   6
ATOM      6  C   UNL d   1     -56.984 -98.848 -44.356  0.00  0.00     0.064 A 
ATOM      7  N   UNL d   1     -57.661 -98.981 -43.874  0.00  0.00    -0.305 N 
ATOM      8  C   UNL d   1     -58.414 -99.018 -44.228  0.00  0.00     0.064 A 
ATOM      9  C   UNL d   1     -58.501 -98.927 -45.041  0.00  0.00     0.016 A 
ATOM     10  C   UNL d   1     -59.074 -99.149 -43.747  0.00  0.00     0.018 A 
ATOM     11  C   UNL d   1     -57.829 -98.795 -45.521  0.00  0.00     0.003 A 
ATOM     12  C   UNL d   1     -59.249 -98.965 -45.379  0.00  0.00     0.001 A 
ATOM     13  C   UNL d   1     -57.081 -98.756 -45.184  0.00  0.00     0.018 A 
ATOM     14  C   UNL d   1     -59.920 -99.096 -44.908  0.00  0.00     0.000 A 
ATOM     15  C   UNL d   1     -59.822 -99.188 -44.084  0.00  0.00     0.002 A 
BRANCH   7  16
ATOM     16  C   UNL d   1     -57.582 -99.075 -43.056  0.00  0.00     0.080 C 
ATOM     17  C   UNL d   1     -58.169 -98.764 -42.553  0.00  0.00     0.021 C 
ENDBRANCH   7  16
ENDBRANCH   5   6
ENDBRANCH   4   5
ENDBRANCH   1   4
BRANCH   1  18
ATOM     18  C   UNL d   1     -55.317-100.662 -44.393  0.00  0.00     0.310 C 
ATOM     19  O   UNL d   1     -55.122-101.017 -43.707  0.00  0.00    -0.258 OA
BRANCH  18  20
ATOM     20  O   UNL d   1     -55.403-101.070 -44.984  0.00  0.00    -0.271 OA
BRANCH  20  21
ATOM     21  C   UNL d   1     -55.177-101.918 -44.991  0.00  0.00     0.126 C 
ATOM     22  C   UNL d   1     -55.019-102.327 -45.700  0.00  0.00     0.029 C 
ENDBRANCH  20  21
ENDBRANCH  18  20
ENDBRANCH   1  18
TORSDOF 7
ENDMDL
