MODEL 1
REMARK VINA RESULT:      -2.6      0.000      0.000
REMARK  3 active torsions:
REMARK  status: ('A' for Active; 'I' for Inactive)
REMARK    1  A    between atoms: N_3  and  C_1 
REMARK    2  A    between atoms: C_8  and  N_2 
REMARK       I    between atoms: C_4  and  N_3 
REMARK    3  A    between atoms: C_7  and  C_4 
ROOT
ATOM      1  C   UNL d   1      31.173  16.284 -24.441  0.00  0.00     0.185 A 
ATOM      2  N   UNL d   1      31.949  16.602 -24.431  0.00  0.00    -0.254 N 
ATOM      3  S   UNL d   1      31.199  15.578 -24.853  0.00  0.00    -0.044 SA
ATOM      4  C   UNL d   1      32.429  16.084 -24.836  0.00  0.00     0.273 A 
ATOM      5  C   UNL d   1      31.970  15.453 -25.097  0.00  0.00     0.099 A 
ATOM      6  O   UNL d   1      33.240  16.182 -24.960  0.00  0.00    -0.266 OA
ENDROOT
BRANCH   1   7
ATOM      7  N   UNL d   1      30.501  16.625 -24.095  0.00  0.00    -0.182 NA
ATOM      8  C   UNL d   1      29.753  16.357 -24.295  0.00  0.00     0.304 C 
ATOM      9  O   UNL d   1      29.666  15.742 -24.846  0.00  0.00    -0.263 OA
BRANCH   8  10
ATOM     10  C   UNL d   1      29.078  16.695 -23.951  0.00  0.00     0.158 A 
ATOM     11  O   UNL d   1      28.800  17.452 -24.100  0.00  0.00    -0.300 OA
ATOM     12  C   UNL d   1      28.119  17.557 -23.643  0.00  0.00     0.123 A 
ATOM     13  C   UNL d   1      27.987  16.867 -23.219  0.00  0.00     0.029 A 
ATOM     14  C   UNL d   1      28.570  16.330 -23.401  0.00  0.00     0.032 A 
ENDBRANCH   8  10
ENDBRANCH   1   7
BRANCH   2  15
ATOM     15  C   UNL d   1      32.174  17.313 -24.073  0.00  0.00     0.069 A 
ATOM     16  C   UNL d   1      32.151  18.005 -24.519  0.00  0.00     0.018 A 
ATOM     17  C   UNL d   1      32.376  18.723 -24.165  0.00  0.00     0.002 A 
ATOM     18  C   UNL d   1      32.619  18.735 -23.372  0.00  0.00     0.000 A 
ATOM     19  C   UNL d   1      32.639  18.037 -22.933  0.00  0.00     0.002 A 
ATOM     20  C   UNL d   1      32.417  17.328 -23.284  0.00  0.00     0.018 A 
ENDBRANCH   2  15
TORSDOF 3
ENDMDL
MODEL 2
REMARK VINA RESULT:      -2.3      1.219      3.367
REMARK  3 active torsions:
REMARK  status: ('A' for Active; 'I' for Inactive)
REMARK    1  A    between atoms: N_3  and  C_1 
REMARK    2  A    between atoms: C_8  and  N_2 
REMARK       I    between atoms: C_4  and  N_3 
REMARK    3  A    between atoms: C_7  and  C_4 
ROOT
ATOM      1  C   UNL d   1      31.495  16.796 -24.090  0.00  0.00     0.185 A 
ATOM      2  N   UNL d   1      30.738  16.618 -24.404  0.00  0.00    -0.254 N 
ATOM      3  S   UNL d   1      31.963  16.130 -24.179  0.00  0.00    -0.044 SA
ATOM      4  C   UNL d   1      30.761  15.853 -24.677  0.00  0.00     0.273 A 
ATOM      5  C   UNL d   1      31.513  15.549 -24.540  0.00  0.00     0.099 A 
ATOM      6  O   UNL d   1      30.131  15.453 -25.032  0.00  0.00    -0.266 OA
ENDROOT
BRANCH   1   7
ATOM      7  N   UNL d   1      31.727  17.515 -23.750  0.00  0.00    -0.182 NA
ATOM      8  C   UNL d   1      32.522  17.689 -23.655  0.00  0.00     0.304 C 
ATOM      9  O   UNL d   1      33.098  17.145 -23.900  0.00  0.00    -0.263 OA
BRANCH   8  10
ATOM     10  C   UNL d   1      32.759  18.408 -23.315  0.00  0.00     0.158 A 
ATOM     11  O   UNL d   1      32.909  19.100 -23.728  0.00  0.00    -0.300 OA
ATOM     12  C   UNL d   1      33.128  19.674 -23.175  0.00  0.00     0.123 A 
ATOM     13  C   UNL d   1      33.109  19.330 -22.430  0.00  0.00     0.029 A 
ATOM     14  C   UNL d   1      32.884  18.553 -22.504  0.00  0.00     0.032 A 
ENDBRANCH   8  10
ENDBRANCH   1   7
BRANCH   2  15
ATOM     15  C   UNL d   1      30.094  17.136 -24.428  0.00  0.00     0.069 A 
ATOM     16  C   UNL d   1      30.023  17.652 -25.067  0.00  0.00     0.018 A 
ATOM     17  C   UNL d   1      29.377  18.175 -25.097  0.00  0.00     0.002 A 
ATOM     18  C   UNL d   1      28.814  18.173 -24.487  0.00  0.00     0.000 A 
ATOM     19  C   UNL d   1      28.893  17.653 -23.851  0.00  0.00     0.002 A 
ATOM     20  C   UNL d   1      29.532  17.136 -23.823  0.00  0.00     0.018 A 
ENDBRANCH   2  15
TORSDOF 3
ENDMDL
MODEL 3
REMARK VINA RESULT:      -1.8      1.382      3.851
REMARK  3 active torsions:
REMARK  status: ('A' for Active; 'I' for Inactive)
REMARK    1  A    between atoms: N_3  and  C_1 
REMARK    2  A    between atoms: C_8  and  N_2 
REMARK       I    between atoms: C_4  and  N_3 
REMARK    3  A    between atoms: C_7  and  C_4 
ROOT
ATOM      1  C   UNL d   1      30.434  17.416 -24.578  0.00  0.00     0.185 A 
ATOM      2  N   UNL d   1      29.599  17.368 -24.528  0.00  0.00    -0.254 N 
ATOM      3  S   UNL d   1      30.621  18.131 -24.930  0.00  0.00    -0.044 SA
ATOM      4  C   UNL d   1      29.296  18.050 -24.848  0.00  0.00     0.273 A 
ATOM      5  C   UNL d   1      29.922  18.523 -25.097  0.00  0.00     0.099 A 
ATOM      6  O   UNL d   1      28.492  18.233 -24.911  0.00  0.00    -0.266 OA
ENDROOT
BRANCH   1   7
ATOM      7  N   UNL d   1      30.975  16.843 -24.318  0.00  0.00    -0.182 NA
ATOM      8  C   UNL d   1      31.778  16.999 -24.328  0.00  0.00     0.304 C 
ATOM      9  O   UNL d   1      32.055  17.733 -24.599  0.00  0.00    -0.263 OA
BRANCH   8  10
ATOM     10  C   UNL d   1      32.322  16.428 -24.069  0.00  0.00     0.158 A 
ATOM     11  O   UNL d   1      32.754  15.930 -24.557  0.00  0.00    -0.300 OA
ATOM     12  C   UNL d   1      33.222  15.455 -24.069  0.00  0.00     0.123 A 
ATOM     13  C   UNL d   1      33.075  15.665 -23.290  0.00  0.00     0.029 A 
ATOM     14  C   UNL d   1      32.523  16.262 -23.278  0.00  0.00     0.032 A 
ENDBRANCH   8  10
ENDBRANCH   1   7
BRANCH   2  15
ATOM     15  C   UNL d   1      29.172  16.735 -24.209  0.00  0.00     0.069 A 
ATOM     16  C   UNL d   1      28.996  16.092 -24.692  0.00  0.00     0.018 A 
ATOM     17  C   UNL d   1      28.567  15.453 -24.378  0.00  0.00     0.002 A 
ATOM     18  C   UNL d   1      28.322  15.469 -23.585  0.00  0.00     0.000 A 
ATOM     19  C   UNL d   1      28.503  16.117 -23.108  0.00  0.00     0.002 A 
ATOM     20  C   UNL d   1      28.927  16.748 -23.420  0.00  0.00     0.018 A 
ENDBRANCH   2  15
TORSDOF 3
ENDMDL
MODEL 4
REMARK VINA RESULT:      -0.9      1.370      2.035
REMARK  3 active torsions:
REMARK  status: ('A' for Active; 'I' for Inactive)
REMARK    1  A    between atoms: N_3  and  C_1 
REMARK    2  A    between atoms: C_8  and  N_2 
REMARK       I    between atoms: C_4  and  N_3 
REMARK    3  A    between atoms: C_7  and  C_4 
ROOT
ATOM      1  C   UNL d   1      30.171  17.601 -24.507  0.00  0.00     0.185 A 
ATOM      2  N   UNL d   1      31.006  17.543 -24.562  0.00  0.00    -0.254 N 
ATOM      3  S   UNL d   1      29.950  18.315 -24.840  0.00  0.00    -0.044 SA
ATOM      4  C   UNL d   1      31.273  18.220 -24.924  0.00  0.00     0.273 A 
ATOM      5  C   UNL d   1      30.626  18.698 -25.097  0.00  0.00     0.099 A 
ATOM      6  O   UNL d   1      32.065  18.393 -25.089  0.00  0.00    -0.266 OA
ENDROOT
BRANCH   1   7
ATOM      7  N   UNL d   1      29.662  17.036 -24.176  0.00  0.00    -0.182 NA
ATOM      8  C   UNL d   1      28.860  17.056 -24.342  0.00  0.00     0.304 C 
ATOM      9  O   UNL d   1      28.554  17.643 -24.842  0.00  0.00    -0.263 OA
BRANCH   8  10
ATOM     10  C   UNL d   1      28.348  16.493 -24.013  0.00  0.00     0.158 A 
ATOM     11  O   UNL d   1      28.001  15.872 -24.421  0.00  0.00    -0.300 OA
ATOM     12  C   UNL d   1      27.536  15.453 -23.882  0.00  0.00     0.123 A 
ATOM     13  C   UNL d   1      27.601  15.818 -23.150  0.00  0.00     0.029 A 
ATOM     14  C   UNL d   1      28.097  16.459 -23.219  0.00  0.00     0.032 A 
ENDBRANCH   8  10
ENDBRANCH   1   7
BRANCH   2  15
ATOM     15  C   UNL d   1      31.463  16.908 -24.293  0.00  0.00     0.069 A 
ATOM     16  C   UNL d   1      31.676  16.319 -24.828  0.00  0.00     0.018 A 
ATOM     17  C   UNL d   1      32.136  15.678 -24.564  0.00  0.00     0.002 A 
ATOM     18  C   UNL d   1      32.373  15.639 -23.770  0.00  0.00     0.000 A 
ATOM     19  C   UNL d   1      32.155  16.233 -23.241  0.00  0.00     0.002 A 
ATOM     20  C   UNL d   1      31.701  16.866 -23.503  0.00  0.00     0.018 A 
ENDBRANCH   2  15
TORSDOF 3
ENDMDL
MODEL 5
REMARK VINA RESULT:       0.1      1.461      3.728
REMARK  3 active torsions:
REMARK  status: ('A' for Active; 'I' for Inactive)
REMARK    1  A    between atoms: N_3  and  C_1 
REMARK    2  A    between atoms: C_8  and  N_2 
REMARK       I    between atoms: C_4  and  N_3 
REMARK    3  A    between atoms: C_7  and  C_4 
ROOT
ATOM      1  C   UNL d   1      29.733  16.108 -23.286  0.00  0.00     0.185 A 
ATOM      2  N   UNL d   1      29.012  16.513 -23.424  0.00  0.00    -0.254 N 
ATOM      3  S   UNL d   1      29.566  15.457 -22.818  0.00  0.00    -0.044 SA
ATOM      4  C   UNL d   1      28.425  16.103 -23.039  0.00  0.00     0.273 A 
ATOM      5  C   UNL d   1      28.762  15.453 -22.665  0.00  0.00     0.099 A 
ATOM      6  O   UNL d   1      27.625  16.311 -23.029  0.00  0.00    -0.266 OA
ENDROOT
BRANCH   1   7
ATOM      7  N   UNL d   1      30.480  16.326 -23.573  0.00  0.00    -0.182 NA
ATOM      8  C   UNL d   1      31.158  16.013 -23.237  0.00  0.00     0.304 C 
ATOM      9  O   UNL d   1      31.100  15.475 -22.608  0.00  0.00    -0.263 OA
BRANCH   8  10
ATOM     10  C   UNL d   1      31.907  16.229 -23.521  0.00  0.00     0.158 A 
ATOM     11  O   UNL d   1      32.366  15.782 -24.033  0.00  0.00    -0.300 OA
ATOM     12  C   UNL d   1      33.064  16.204 -24.168  0.00  0.00     0.123 A 
ATOM     13  C   UNL d   1      33.028  16.903 -23.739  0.00  0.00     0.029 A 
ATOM     14  C   UNL d   1      32.321  16.928 -23.338  0.00  0.00     0.032 A 
ENDBRANCH   8  10
ENDBRANCH   1   7
BRANCH   2  15
ATOM     15  C   UNL d   1      28.927  17.203 -23.872  0.00  0.00     0.069 A 
ATOM     16  C   UNL d   1      28.577  17.862 -23.522  0.00  0.00     0.018 A 
ATOM     17  C   UNL d   1      28.487  18.559 -23.966  0.00  0.00     0.002 A 
ATOM     18  C   UNL d   1      28.749  18.584 -24.753  0.00  0.00     0.000 A 
ATOM     19  C   UNL d   1      29.098  17.919 -25.096  0.00  0.00     0.002 A 
ATOM     20  C   UNL d   1      29.186  17.231 -24.656  0.00  0.00     0.018 A 
ENDBRANCH   2  15
TORSDOF 3
ENDMDL
MODEL 6
REMARK VINA RESULT:       0.3      3.515      4.994
REMARK  3 active torsions:
REMARK  status: ('A' for Active; 'I' for Inactive)
REMARK    1  A    between atoms: N_3  and  C_1 
REMARK    2  A    between atoms: C_8  and  N_2 
REMARK       I    between atoms: C_4  and  N_3 
REMARK    3  A    between atoms: C_7  and  C_4 
ROOT
ATOM      1  C   UNL d   1      33.047  20.747 -23.258  0.00  0.00     0.185 A 
ATOM      2  N   UNL d   1      32.951  21.396 -22.736  0.00  0.00    -0.254 N 
ATOM      3  S   UNL d   1      33.225  21.048 -23.998  0.00  0.00    -0.044 SA
ATOM      4  C   UNL d   1      33.072  22.075 -23.167  0.00  0.00     0.273 A 
ATOM      5  C   UNL d   1      33.241  21.864 -23.944  0.00  0.00     0.099 A 
ATOM      6  O   UNL d   1      33.031  22.844 -22.868  0.00  0.00    -0.266 OA
ENDROOT
BRANCH   1   7
ATOM      7  N   UNL d   1      32.975  19.945 -23.060  0.00  0.00    -0.182 NA
ATOM      8  C   UNL d   1      33.002  19.371 -23.644  0.00  0.00     0.304 C 
ATOM      9  O   UNL d   1      33.102  19.592 -24.438  0.00  0.00    -0.263 OA
BRANCH   8  10
ATOM     10  C   UNL d   1      32.930  18.568 -23.450  0.00  0.00     0.158 A 
ATOM     11  O   UNL d   1      33.105  18.240 -22.719  0.00  0.00    -0.300 OA
ATOM     12  C   UNL d   1      32.955  17.429 -22.772  0.00  0.00     0.123 A 
ATOM     13  C   UNL d   1      32.691  17.267 -23.532  0.00  0.00     0.029 A 
ATOM     14  C   UNL d   1      32.672  17.959 -23.957  0.00  0.00     0.032 A 
ENDBRANCH   8  10
ENDBRANCH   1   7
BRANCH   2  15
ATOM     15  C   UNL d   1      32.767  21.343 -21.931  0.00  0.00     0.069 A 
ATOM     16  C   UNL d   1      32.103  21.741 -21.650  0.00  0.00     0.018 A 
ATOM     17  C   UNL d   1      31.912  21.693 -20.842  0.00  0.00     0.002 A 
ATOM     18  C   UNL d   1      32.389  21.247 -20.330  0.00  0.00     0.000 A 
ATOM     19  C   UNL d   1      33.053  20.852 -20.620  0.00  0.00     0.002 A 
ATOM     20  C   UNL d   1      33.241  20.901 -21.419  0.00  0.00     0.018 A 
ENDBRANCH   2  15
TORSDOF 3
ENDMDL
