MODEL 1
REMARK VINA RESULT:      53.9      0.000      0.000
REMARK  3 active torsions:
REMARK  status: ('A' for Active; 'I' for Inactive)
REMARK    1  A    between atoms: C_2  and  C_1 
REMARK       I    between atoms: N_5  and  C_2 
REMARK    2  A    between atoms: C_10  and  N_5 
REMARK    3  A    between atoms: O_16  and  C_11 
ROOT
ATOM      1  C   UNL d   1     -50.065  26.871  33.940  0.00  0.00     0.281 C 
ATOM      2  N   UNL d   1     -49.880  27.088  34.712  0.00  0.00    -0.208 NA
ATOM      3  O   UNL d   1     -49.636  27.185  33.309  0.00  0.00    -0.265 OA
ENDROOT
BRANCH   1   4
ATOM      4  C   UNL d   1     -50.678  26.340  33.788  0.00  0.00     0.083 A 
ATOM      5  C   UNL d   1     -50.533  25.524  33.770  0.00  0.00     0.009 A 
ATOM      6  C   UNL d   1     -51.158  24.996  33.615  0.00  0.00     0.023 A 
ATOM      7  C   UNL d   1     -51.015  24.186  33.596  0.00  0.00     0.002 A 
ATOM      8  C   UNL d   1     -51.930  25.290  33.480  0.00  0.00     0.100 A 
ATOM      9  C   UNL d   1     -51.642  23.668  33.443  0.00  0.00     0.000 A 
ATOM     10  C   UNL d   1     -52.403  23.957  33.309  0.00  0.00     0.002 A 
ATOM     11  C   UNL d   1     -52.545  24.767  33.328  0.00  0.00     0.025 A 
ATOM     12  O   UNL d   1     -52.072  26.100  33.499  0.00  0.00    -0.305 OA
ATOM     13  C   UNL d   1     -51.450  26.633  33.653  0.00  0.00     0.127 A 
ENDBRANCH   1   4
BRANCH   2  14
ATOM     14  C   UNL d   1     -49.264  27.621  34.856  0.00  0.00     0.085 A 
ATOM     15  C   UNL d   1     -48.590  27.607  34.381  0.00  0.00     0.021 A 
ATOM     16  C   UNL d   1     -47.979  28.138  34.526  0.00  0.00     0.026 A 
ATOM     17  C   UNL d   1     -48.041  28.675  35.138  0.00  0.00     0.094 A 
ATOM     18  C   UNL d   1     -48.715  28.692  35.617  0.00  0.00     0.026 A 
ATOM     19  C   UNL d   1     -49.325  28.155  35.465  0.00  0.00     0.021 A 
BRANCH  17  20
ATOM     20  O   UNL d   1     -47.430  29.212  35.290  0.00  0.00    -0.328 OA
ATOM     21  C   UNL d   1     -47.594  29.955  35.585  0.00  0.00     0.181 C 
ENDBRANCH  17  20
ENDBRANCH   2  14
TORSDOF 3
ENDMDL
