MODEL 1
REMARK VINA RESULT:      40.8      0.000      0.000
REMARK  2 active torsions:
REMARK  status: ('A' for Active; 'I' for Inactive)
REMARK    1  A    between atoms: N_7  and  C_3 
REMARK       I    between atoms: C_8  and  N_7 
REMARK    2  A    between atoms: C_10  and  C_8 
ROOT
ATOM      1  C   UNL d   1     -54.728-100.694 -42.905  0.00  0.00     0.343 A 
ATOM      2  N   UNL d   1     -54.730-100.704 -42.086  0.00  0.00    -0.241 N 
ATOM      3  C   UNL d   1     -54.735-101.419 -41.681  0.00  0.00     0.159 A 
ATOM      4  N   UNL d   1     -54.730-101.405 -43.326  0.00  0.00    -0.224 N 
ATOM      5  C   UNL d   1     -54.737-102.130 -42.103  0.00  0.00     0.099 A 
ATOM      6  C   UNL d   1     -54.735-102.132 -42.933  0.00  0.00     0.271 A 
ATOM      7  O   UNL d   1     -54.723 -99.973 -43.311  0.00  0.00    -0.245 OA
ATOM      8  O   UNL d   1     -54.737-102.836 -43.350  0.00  0.00    -0.266 OA
ATOM      9  C   UNL d   1     -54.728 -99.993 -41.665  0.00  0.00     0.105 C 
ATOM     10  C   UNL d   1     -54.727-101.394 -44.153  0.00  0.00     0.107 C 
ENDROOT
BRANCH   3  11
ATOM     11  N   UNL d   1     -54.738-101.430 -40.853  0.00  0.00    -0.190 NA
ATOM     12  C   UNL d   1     -54.773-102.148 -40.450  0.00  0.00     0.280 C 
ATOM     13  O   UNL d   1     -54.806-102.858 -40.872  0.00  0.00    -0.265 OA
BRANCH  12  14
ATOM     14  C   UNL d   1     -54.776-102.157 -39.627  0.00  0.00     0.058 A 
ATOM     15  C   UNL d   1     -54.741-102.866 -39.238  0.00  0.00     0.006 A 
ATOM     16  C   UNL d   1     -54.743-102.880 -38.425  0.00  0.00     0.012 A 
ATOM     17  C   UNL d   1     -54.781-102.186 -37.985  0.00  0.00     0.058 A 
ATOM     18  C   UNL d   1     -54.818-101.450 -38.402  0.00  0.00     0.012 A 
ATOM     19 CL   UNL d   1     -54.784-102.197 -37.158  0.00  0.00    -0.082 Cl
ATOM     20  C   UNL d   1     -54.816-101.435 -39.215  0.00  0.00     0.006 A 
ENDBRANCH  12  14
ENDBRANCH   3  11
TORSDOF 2
ENDMDL
