MODEL 1
REMARK VINA RESULT:      25.4      0.000      0.000
REMARK  3 active torsions:
REMARK  status: ('A' for Active; 'I' for Inactive)
REMARK    1  A    between atoms: C_5  and  C_1 
REMARK    2  A    between atoms: C_7  and  C_5 
REMARK    3  A    between atoms: C_10  and  C_7 
ROOT
ATOM      1  C   UNL d   1     -57.698 -98.759 -44.350  0.00  0.00     0.220 A 
ATOM      2  C   UNL d   1     -57.967 -98.758 -45.103  0.00  0.00     0.315 A 
ATOM      3  N   UNL d   1     -58.786 -98.757 -45.100  0.00  0.00    -0.205 NA
ATOM      4  C   UNL d   1     -58.344 -98.758 -43.843  0.00  0.00     0.059 A 
ATOM      5  C   UNL d   1     -59.031 -98.757 -44.317  0.00  0.00     0.088 A 
ATOM      6  O   UNL d   1     -57.464 -98.759 -45.759  0.00  0.00    -0.262 OA
ATOM      7  O   UNL d   1     -57.600 -98.759 -43.540  0.00  0.00    -0.285 OA
ATOM      8  C   UNL d   1     -58.427 -98.758 -43.022  0.00  0.00     0.005 A 
ATOM      9  C   UNL d   1     -59.791 -98.756 -43.963  0.00  0.00     0.019 A 
ATOM     10  C   UNL d   1     -59.160 -98.757 -42.660  0.00  0.00     0.000 A 
ATOM     11  C   UNL d   1     -59.847 -98.756 -43.134  0.00  0.00     0.002 A 
ENDROOT
BRANCH   1  12
ATOM     12  C   UNL d   1     -56.890 -98.760 -44.224  0.00  0.00     0.086 C 
BRANCH  12  13
ATOM     13  C   UNL d   1     -56.363 -99.118 -44.757  0.00  0.00     0.199 C 
ATOM     14  O   UNL d   1     -56.348 -98.862 -45.539  0.00  0.00    -0.286 OA
BRANCH  13  15
ATOM     15  C   UNL d   1     -55.867 -99.715 -44.510  0.00  0.00     0.039 A 
ATOM     16  C   UNL d   1     -55.213 -99.566 -44.009  0.00  0.00     0.003 A 
ATOM     17  C   UNL d   1     -54.717-100.164 -43.762  0.00  0.00     0.000 A 
ATOM     18  C   UNL d   1     -54.872-100.941 -44.019  0.00  0.00     0.000 A 
ATOM     19  C   UNL d   1     -55.509-101.103 -44.511  0.00  0.00     0.000 A 
ATOM     20  C   UNL d   1     -55.995-100.501 -44.749  0.00  0.00     0.003 A 
ENDBRANCH  13  15
ENDBRANCH  12  13
ENDBRANCH   1  12
TORSDOF 3
ENDMDL
MODEL 2
REMARK VINA RESULT:      26.9      0.902      1.729
REMARK  3 active torsions:
REMARK  status: ('A' for Active; 'I' for Inactive)
REMARK    1  A    between atoms: C_5  and  C_1 
REMARK    2  A    between atoms: C_7  and  C_5 
REMARK    3  A    between atoms: C_10  and  C_7 
ROOT
ATOM      1  C   UNL d   1     -57.819 -98.756 -44.632  0.00  0.00     0.220 A 
ATOM      2  C   UNL d   1     -58.115 -98.757 -43.889  0.00  0.00     0.315 A 
ATOM      3  N   UNL d   1     -58.933 -98.758 -43.922  0.00  0.00    -0.205 NA
ATOM      4  C   UNL d   1     -58.445 -98.756 -45.162  0.00  0.00     0.059 A 
ATOM      5  C   UNL d   1     -59.149 -98.758 -44.713  0.00  0.00     0.088 A 
ATOM      6  O   UNL d   1     -57.636 -98.758 -43.215  0.00  0.00    -0.262 OA
ATOM      7  O   UNL d   1     -57.691 -98.755 -45.438  0.00  0.00    -0.285 OA
ATOM      8  C   UNL d   1     -58.499 -98.756 -45.985  0.00  0.00     0.005 A 
ATOM      9  C   UNL d   1     -59.897 -98.758 -45.094  0.00  0.00     0.019 A 
ATOM     10  C   UNL d   1     -59.218 -98.756 -46.374  0.00  0.00     0.000 A 
ATOM     11  C   UNL d   1     -59.922 -98.757 -45.925  0.00  0.00     0.002 A 
ENDROOT
BRANCH   1  12
ATOM     12  C   UNL d   1     -57.007 -98.755 -44.729  0.00  0.00     0.086 C 
BRANCH  12  13
ATOM     13  C   UNL d   1     -56.497 -99.092 -44.165  0.00  0.00     0.199 C 
ATOM     14  O   UNL d   1     -56.590 -98.894 -43.372  0.00  0.00    -0.286 OA
BRANCH  13  15
ATOM     15  C   UNL d   1     -55.913 -99.612 -44.394  0.00  0.00     0.039 A 
ATOM     16  C   UNL d   1     -55.903-100.408 -44.131  0.00  0.00     0.003 A 
ATOM     17  C   UNL d   1     -55.319-100.927 -44.360  0.00  0.00     0.000 A 
ATOM     18  C   UNL d   1     -54.720-100.653 -44.869  0.00  0.00     0.000 A 
ATOM     19  C   UNL d   1     -54.716 -99.876 -45.135  0.00  0.00     0.000 A 
ATOM     20  C   UNL d   1     -55.301 -99.369 -44.901  0.00  0.00     0.003 A 
ENDBRANCH  13  15
ENDBRANCH  12  13
ENDBRANCH   1  12
TORSDOF 3
ENDMDL
