MODEL 1
REMARK VINA RESULT:       1.8      0.000      0.000
REMARK  7 active torsions:
REMARK  status: ('A' for Active; 'I' for Inactive)
REMARK       I    between atoms: C_5  and  N_1 
REMARK    1  A    between atoms: C_11  and  C_3 
REMARK    2  A    between atoms: C_12  and  C_5 
REMARK    3  A    between atoms: N_7  and  C_12 
REMARK    4  A    between atoms: C_13  and  C_8 
REMARK    5  A    between atoms: C_29  and  N_10 
REMARK    6  A    between atoms: O_28  and  C_16 
REMARK    7  A    between atoms: O_30  and  C_23 
ROOT
ATOM      1  N   UNL d   1      33.147  20.698 -22.824  0.00  0.00    -0.193 N 
ATOM      2  N   UNL d   1      33.104  21.098 -23.534  0.00  0.00    -0.162 NA
ATOM      3  C   UNL d   1      33.055  21.905 -23.385  0.00  0.00     0.109 A 
ATOM      4  C   UNL d   1      33.202  19.882 -22.721  0.00  0.00     0.298 C 
ATOM      5  C   UNL d   1      33.125  21.254 -22.215  0.00  0.00     0.088 A 
ATOM      6  C   UNL d   1      33.068  22.002 -22.567  0.00  0.00     0.041 A 
ATOM      7  O   UNL d   1      33.240  19.573 -21.964  0.00  0.00    -0.264 OA
ENDROOT
BRANCH   4   8
ATOM      8  C   UNL d   1      33.219  19.392 -23.369  0.00  0.00     0.146 C 
BRANCH   8   9
ATOM      9  N   UNL d   1      32.848  18.660 -23.337  0.00  0.00    -0.262 N 
ATOM     10  C   UNL d   1      32.441  18.376 -23.989  0.00  0.00     0.322 A 
ATOM     11  C   UNL d   1      32.069  17.641 -23.957  0.00  0.00     0.322 A 
ATOM     12  O   UNL d   1      32.404  18.828 -24.680  0.00  0.00    -0.261 OA
ATOM     13  O   UNL d   1      31.659  17.357 -24.616  0.00  0.00    -0.261 OA
ATOM     14  N   UNL d   1      32.104  17.189 -23.274  0.00  0.00    -0.267 N 
ATOM     15  C   UNL d   1      32.513  17.474 -22.618  0.00  0.00     0.102 A 
ATOM     16  C   UNL d   1      32.885  18.209 -22.650  0.00  0.00     0.102 A 
BRANCH  14  17
ATOM     17  C   UNL d   1      31.732  16.454 -23.242  0.00  0.00     0.083 C 
ATOM     18  C   UNL d   1      32.184  15.762 -23.253  0.00  0.00     0.021 C 
ENDBRANCH  14  17
ENDBRANCH   8   9
ENDBRANCH   4   8
BRANCH   5  19
ATOM     19  C   UNL d   1      33.154  21.105 -21.415  0.00  0.00     0.020 A 
ATOM     20  C   UNL d   1      33.174  21.729 -20.882  0.00  0.00     0.028 A 
ATOM     21  C   UNL d   1      33.203  21.569 -20.069  0.00  0.00     0.116 A 
ATOM     22  C   UNL d   1      33.211  20.797 -19.801  0.00  0.00     0.116 A 
ATOM     23  C   UNL d   1      33.191  20.173 -20.341  0.00  0.00     0.026 A 
ATOM     24  C   UNL d   1      33.162  20.333 -21.152  0.00  0.00     0.004 A 
BRANCH  21  25
ATOM     25  O   UNL d   1      33.223  22.192 -19.539  0.00  0.00    -0.326 OA
ATOM     26  C   UNL d   1      32.997  22.943 -19.769  0.00  0.00     0.181 C 
ENDBRANCH  21  25
BRANCH  22  27
ATOM     27  O   UNL d   1      33.240  20.643 -19.004  0.00  0.00    -0.326 OA
ATOM     28  C   UNL d   1      33.229  19.871 -18.735  0.00  0.00     0.181 C 
ENDBRANCH  22  27
ENDBRANCH   5  19
BRANCH   3  29
ATOM     29  C   UNL d   1      33.003  22.504 -23.949  0.00  0.00     0.049 A 
ATOM     30  S   UNL d   1      32.763  22.421 -24.721  0.00  0.00    -0.085 SA
ATOM     31  C   UNL d   1      32.792  23.154 -25.092  0.00  0.00     0.035 A 
ATOM     32  C   UNL d   1      33.058  23.702 -24.528  0.00  0.00     0.007 A 
ATOM     33  C   UNL d   1      33.190  23.300 -23.815  0.00  0.00     0.009 A 
ENDBRANCH   3  29
TORSDOF 7
ENDMDL
MODEL 2
REMARK VINA RESULT:       2.0      1.856      3.715
REMARK  7 active torsions:
REMARK  status: ('A' for Active; 'I' for Inactive)
REMARK       I    between atoms: C_5  and  N_1 
REMARK    1  A    between atoms: C_11  and  C_3 
REMARK    2  A    between atoms: C_12  and  C_5 
REMARK    3  A    between atoms: N_7  and  C_12 
REMARK    4  A    between atoms: C_13  and  C_8 
REMARK    5  A    between atoms: C_29  and  N_10 
REMARK    6  A    between atoms: O_28  and  C_16 
REMARK    7  A    between atoms: O_30  and  C_23 
ROOT
ATOM      1  N   UNL d   1      32.875  21.434 -21.857  0.00  0.00    -0.193 N 
ATOM      2  N   UNL d   1      33.047  21.301 -21.071  0.00  0.00    -0.162 NA
ATOM      3  C   UNL d   1      32.891  21.985 -20.643  0.00  0.00     0.109 A 
ATOM      4  C   UNL d   1      32.952  20.895 -22.477  0.00  0.00     0.298 C 
ATOM      5  C   UNL d   1      32.606  22.210 -21.934  0.00  0.00     0.088 A 
ATOM      6  C   UNL d   1      32.617  22.549 -21.178  0.00  0.00     0.041 A 
ATOM      7  O   UNL d   1      32.753  21.123 -23.238  0.00  0.00    -0.264 OA
ENDROOT
BRANCH   4   8
ATOM      8  C   UNL d   1      33.225  20.144 -22.329  0.00  0.00     0.146 C 
BRANCH   8   9
ATOM      9  N   UNL d   1      33.046  19.535 -22.849  0.00  0.00    -0.262 N 
ATOM     10  C   UNL d   1      32.974  18.766 -22.574  0.00  0.00     0.322 A 
ATOM     11  C   UNL d   1      32.795  18.154 -23.096  0.00  0.00     0.322 A 
ATOM     12  O   UNL d   1      33.082  18.605 -21.771  0.00  0.00    -0.261 OA
ATOM     13  O   UNL d   1      32.723  17.380 -22.816  0.00  0.00    -0.261 OA
ATOM     14  N   UNL d   1      32.687  18.309 -23.894  0.00  0.00    -0.267 N 
ATOM     15  C   UNL d   1      32.759  19.082 -24.172  0.00  0.00     0.102 A 
ATOM     16  C   UNL d   1      32.939  19.694 -23.649  0.00  0.00     0.102 A 
BRANCH  14  17
ATOM     17  C   UNL d   1      32.508  17.697 -24.416  0.00  0.00     0.083 C 
ATOM     18  C   UNL d   1      31.728  17.586 -24.669  0.00  0.00     0.021 C 
ENDBRANCH  14  17
ENDBRANCH   8   9
ENDBRANCH   4   8
BRANCH   5  19
ATOM     19  C   UNL d   1      32.371  22.583 -22.619  0.00  0.00     0.020 A 
ATOM     20  C   UNL d   1      32.929  22.934 -23.106  0.00  0.00     0.028 A 
ATOM     21  C   UNL d   1      32.683  23.311 -23.803  0.00  0.00     0.116 A 
ATOM     22  C   UNL d   1      31.890  23.332 -24.000  0.00  0.00     0.116 A 
ATOM     23  C   UNL d   1      31.332  22.977 -23.506  0.00  0.00     0.026 A 
ATOM     24  C   UNL d   1      31.578  22.601 -22.812  0.00  0.00     0.004 A 
BRANCH  21  25
ATOM     25  O   UNL d   1      33.241  23.661 -24.287  0.00  0.00    -0.326 OA
ATOM     26  C   UNL d   1      33.218  23.552 -25.096  0.00  0.00     0.181 C 
ENDBRANCH  21  25
BRANCH  22  27
ATOM     27  O   UNL d   1      31.650  23.702 -24.683  0.00  0.00    -0.326 OA
ATOM     28  C   UNL d   1      30.926  23.521 -25.015  0.00  0.00     0.181 C 
ENDBRANCH  22  27
ENDBRANCH   5  19
BRANCH   3  29
ATOM     29  C   UNL d   1      32.990  22.086 -19.831  0.00  0.00     0.049 A 
ATOM     30  S   UNL d   1      32.983  22.791 -19.427  0.00  0.00    -0.085 SA
ATOM     31  C   UNL d   1      33.101  22.645 -18.627  0.00  0.00     0.035 A 
ATOM     32  C   UNL d   1      33.183  21.824 -18.540  0.00  0.00     0.007 A 
ATOM     33  C   UNL d   1      33.114  21.473 -19.288  0.00  0.00     0.009 A 
ENDBRANCH   3  29
TORSDOF 7
ENDMDL
