MODEL 1
REMARK VINA RESULT:      -6.2      0.000      0.000
REMARK  6 active torsions:
REMARK  status: ('A' for Active; 'I' for Inactive)
REMARK    1  A    between atoms: N_2  and  S_1 
REMARK    2  A    between atoms: C_6  and  S_1 
REMARK    3  A    between atoms: N_4  and  C_3 
REMARK       I    between atoms: C_5  and  N_4 
REMARK       I    between atoms: N_10  and  C_5 
REMARK    4  A    between atoms: C_7  and  C_11 
REMARK    5  A    between atoms: O_20  and  C_7 
REMARK    6  A    between atoms: C_14  and  N_10 
ROOT
ATOM      1  N   UNL d   1     -49.368  15.038  22.830  0.00  0.00    -0.214 N 
ATOM      2  C   UNL d   1     -50.093  14.630  22.808  0.00  0.00     0.162 A 
ATOM      3  C   UNL d   1     -49.535  15.843  22.947  0.00  0.00     0.093 A 
ATOM      4  C   UNL d   1     -50.704  15.182  22.911  0.00  0.00     0.040 A 
ATOM      5  C   UNL d   1     -50.361  15.922  22.996  0.00  0.00     0.023 A 
ENDROOT
BRANCH   2   6
ATOM      6  N   UNL d   1     -50.182  13.804  22.700  0.00  0.00    -0.173 NA
ATOM      7  C   UNL d   1     -50.617  13.523  22.061  0.00  0.00     0.370 C 
ATOM      8  N   UNL d   1     -50.706  12.706  21.952  0.00  0.00    -0.191 NA
ATOM      9  O   UNL d   1     -50.969  14.045  21.525  0.00  0.00    -0.242 OA
BRANCH   8  10
ATOM     10  C   UNL d   1     -50.359  12.179  22.481  0.00  0.00     0.086 A 
ATOM     11  C   UNL d   1     -49.611  11.868  22.322  0.00  0.00     0.025 A 
ATOM     12  C   UNL d   1     -49.264  11.341  22.852  0.00  0.00     0.065 A 
ATOM     13  C   UNL d   1     -49.666  11.124  23.543  0.00  0.00     0.005 A 
ATOM     14  C   UNL d   1     -50.412  11.436  23.698  0.00  0.00     0.002 A 
ATOM     15  C   UNL d   1     -50.760  11.963  23.169  0.00  0.00     0.019 A 
BRANCH  12  16
ATOM     16  C   UNL d   1     -48.514  11.033  22.686  0.00  0.00     0.296 C 
ATOM     17  O   UNL d   1     -48.229  11.018  21.921  0.00  0.00    -0.259 OA
BRANCH  16  18
ATOM     18  O   UNL d   1     -48.053  10.741  23.306  0.00  0.00    -0.296 OA
ATOM     19  C   UNL d   1     -47.238  10.808  23.288  0.00  0.00     0.185 C 
ENDBRANCH  16  18
ENDBRANCH  12  16
ENDBRANCH   8  10
ENDBRANCH   2   6
BRANCH   1  20
ATOM     20  S   UNL d   1     -48.587  14.793  22.761  0.00  0.00     0.272 S 
ATOM     21  O   UNL d   1     -48.539  14.625  23.540  0.00  0.00    -0.200 OA
ATOM     22  O   UNL d   1     -48.599  14.955  21.956  0.00  0.00    -0.200 OA
BRANCH  20  23
ATOM     23  C   UNL d   1     -47.792  14.543  22.700  0.00  0.00     0.104 A 
ATOM     24  C   UNL d   1     -47.423  14.515  21.965  0.00  0.00     0.014 A 
ATOM     25  C   UNL d   1     -46.647  14.270  21.913  0.00  0.00     0.012 A 
ATOM     26  C   UNL d   1     -46.224  14.047  22.594  0.00  0.00     0.058 A 
ATOM     27  C   UNL d   1     -46.593  14.075  23.329  0.00  0.00     0.012 A 
ATOM     28 CL   UNL d   1     -45.437  13.798  22.538  0.00  0.00    -0.082 Cl
ATOM     29  C   UNL d   1     -47.386  14.325  23.386  0.00  0.00     0.014 A 
ENDBRANCH  20  23
ENDBRANCH   1  20
TORSDOF 6
ENDMDL
MODEL 2
REMARK VINA RESULT:      -5.8      8.069     10.112
REMARK  6 active torsions:
REMARK  status: ('A' for Active; 'I' for Inactive)
REMARK    1  A    between atoms: N_2  and  S_1 
REMARK    2  A    between atoms: C_6  and  S_1 
REMARK    3  A    between atoms: N_4  and  C_3 
REMARK       I    between atoms: C_5  and  N_4 
REMARK       I    between atoms: N_10  and  C_5 
REMARK    4  A    between atoms: C_7  and  C_11 
REMARK    5  A    between atoms: O_20  and  C_7 
REMARK    6  A    between atoms: C_14  and  N_10 
ROOT
ATOM      1  N   UNL d   1     -38.927  13.629  18.450  0.00  0.00    -0.214 N 
ATOM      2  C   UNL d   1     -38.787  13.533  19.265  0.00  0.00     0.162 A 
ATOM      3  C   UNL d   1     -38.399  13.132  18.043  0.00  0.00     0.093 A 
ATOM      4  C   UNL d   1     -38.175  12.980  19.358  0.00  0.00     0.040 A 
ATOM      5  C   UNL d   1     -37.940  12.737  18.612  0.00  0.00     0.023 A 
ENDROOT
BRANCH   2   6
ATOM      6  N   UNL d   1     -39.197  13.931  19.877  0.00  0.00    -0.173 NA
ATOM      7  C   UNL d   1     -38.811  14.094  20.585  0.00  0.00     0.370 C 
ATOM      8  N   UNL d   1     -39.215  14.488  21.193  0.00  0.00    -0.191 NA
ATOM      9  O   UNL d   1     -38.023  13.871  20.699  0.00  0.00    -0.242 OA
BRANCH   8  10
ATOM     10  C   UNL d   1     -40.000  14.714  21.087  0.00  0.00     0.086 A 
ATOM     11  C   UNL d   1     -40.597  14.145  21.099  0.00  0.00     0.025 A 
ATOM     12  C   UNL d   1     -41.383  14.371  20.993  0.00  0.00     0.065 A 
ATOM     13  C   UNL d   1     -41.571  15.169  20.874  0.00  0.00     0.005 A 
ATOM     14  C   UNL d   1     -40.971  15.734  20.863  0.00  0.00     0.002 A 
ATOM     15  C   UNL d   1     -40.187  15.508  20.969  0.00  0.00     0.019 A 
BRANCH  12  16
ATOM     16  C   UNL d   1     -41.977  13.795  21.006  0.00  0.00     0.296 C 
ATOM     17  O   UNL d   1     -42.498  13.718  20.382  0.00  0.00    -0.259 OA
BRANCH  16  18
ATOM     18  O   UNL d   1     -42.038  13.295  21.661  0.00  0.00    -0.296 OA
ATOM     19  C   UNL d   1     -42.519  12.634  21.638  0.00  0.00     0.185 C 
ENDBRANCH  16  18
ENDBRANCH  12  16
ENDBRANCH   8  10
ENDBRANCH   2   6
BRANCH   1  20
ATOM     20  S   UNL d   1     -39.454  14.092  18.025  0.00  0.00     0.272 S 
ATOM     21  O   UNL d   1     -40.044  13.561  18.119  0.00  0.00    -0.200 OA
ATOM     22  O   UNL d   1     -38.874  14.661  17.906  0.00  0.00    -0.200 OA
BRANCH  20  23
ATOM     23  C   UNL d   1     -39.998  14.557  17.593  0.00  0.00     0.104 A 
ATOM     24  C   UNL d   1     -39.845  15.354  17.459  0.00  0.00     0.014 A 
ATOM     25  C   UNL d   1     -40.381  15.802  17.036  0.00  0.00     0.012 A 
ATOM     26  C   UNL d   1     -41.080  15.462  16.740  0.00  0.00     0.058 A 
ATOM     27  C   UNL d   1     -41.233  14.665  16.873  0.00  0.00     0.012 A 
ATOM     28 CL   UNL d   1     -41.621  15.919  16.312  0.00  0.00    -0.082 Cl
ATOM     29  C   UNL d   1     -40.688  14.205  17.304  0.00  0.00     0.014 A 
ENDBRANCH  20  23
ENDBRANCH   1  20
TORSDOF 6
ENDMDL
MODEL 3
REMARK VINA RESULT:      -5.5      7.769     10.012
REMARK  6 active torsions:
REMARK  status: ('A' for Active; 'I' for Inactive)
REMARK    1  A    between atoms: N_2  and  S_1 
REMARK    2  A    between atoms: C_6  and  S_1 
REMARK    3  A    between atoms: N_4  and  C_3 
REMARK       I    between atoms: C_5  and  N_4 
REMARK       I    between atoms: N_10  and  C_5 
REMARK    4  A    between atoms: C_7  and  C_11 
REMARK    5  A    between atoms: O_20  and  C_7 
REMARK    6  A    between atoms: C_14  and  N_10 
ROOT
ATOM      1  N   UNL d   1     -39.502  14.710  21.420  0.00  0.00    -0.214 N 
ATOM      2  C   UNL d   1     -38.935  14.980  20.874  0.00  0.00     0.162 A 
ATOM      3  C   UNL d   1     -39.176  14.786  22.181  0.00  0.00     0.093 A 
ATOM      4  C   UNL d   1     -38.263  15.221  21.297  0.00  0.00     0.040 A 
ATOM      5  C   UNL d   1     -38.412  15.102  22.094  0.00  0.00     0.023 A 
ENDROOT
BRANCH   2   6
ATOM      6  N   UNL d   1     -39.035  15.001  20.043  0.00  0.00    -0.173 NA
ATOM      7  C   UNL d   1     -38.537  15.470  19.585  0.00  0.00     0.370 C 
ATOM      8  N   UNL d   1     -38.634  15.492  18.762  0.00  0.00    -0.191 NA
ATOM      9  O   UNL d   1     -37.940  15.920  19.936  0.00  0.00    -0.242 OA
BRANCH   8  10
ATOM     10  C   UNL d   1     -39.228  15.046  18.405  0.00  0.00     0.086 A 
ATOM     11  C   UNL d   1     -39.907  15.419  18.119  0.00  0.00     0.025 A 
ATOM     12  C   UNL d   1     -40.500  14.973  17.762  0.00  0.00     0.065 A 
ATOM     13  C   UNL d   1     -40.415  14.151  17.690  0.00  0.00     0.005 A 
ATOM     14  C   UNL d   1     -39.736  13.784  17.977  0.00  0.00     0.002 A 
ATOM     15  C   UNL d   1     -39.142  14.229  18.334  0.00  0.00     0.019 A 
BRANCH  12  16
ATOM     16  C   UNL d   1     -41.178  15.352  17.477  0.00  0.00     0.296 C 
ATOM     17  O   UNL d   1     -41.667  15.768  17.982  0.00  0.00    -0.259 OA
BRANCH  16  18
ATOM     18  O   UNL d   1     -41.357  15.307  16.672  0.00  0.00    -0.296 OA
ATOM     19  C   UNL d   1     -41.769  15.908  16.301  0.00  0.00     0.185 C 
ENDBRANCH  16  18
ENDBRANCH  12  16
ENDBRANCH   8  10
ENDBRANCH   2   6
BRANCH   1  20
ATOM     20  S   UNL d   1     -40.261  14.409  21.336  0.00  0.00     0.272 S 
ATOM     21  O   UNL d   1     -40.592  15.121  21.482  0.00  0.00    -0.200 OA
ATOM     22  O   UNL d   1     -39.957  13.662  21.181  0.00  0.00    -0.200 OA
BRANCH  20  23
ATOM     23  C   UNL d   1     -41.037  14.111  21.251  0.00  0.00     0.104 A 
ATOM     24  C   UNL d   1     -41.674  14.629  21.197  0.00  0.00     0.014 A 
ATOM     25  C   UNL d   1     -42.430  14.332  21.114  0.00  0.00     0.012 A 
ATOM     26  C   UNL d   1     -42.563  13.511  21.085  0.00  0.00     0.058 A 
ATOM     27  C   UNL d   1     -41.927  12.993  21.140  0.00  0.00     0.012 A 
ATOM     28 CL   UNL d   1     -43.331  13.212  21.002  0.00  0.00    -0.082 Cl
ATOM     29  C   UNL d   1     -41.153  13.293  21.224  0.00  0.00     0.014 A 
ENDBRANCH  20  23
ENDBRANCH   1  20
TORSDOF 6
ENDMDL
MODEL 4
REMARK VINA RESULT:      -5.1      8.814     10.672
REMARK  6 active torsions:
REMARK  status: ('A' for Active; 'I' for Inactive)
REMARK    1  A    between atoms: N_2  and  S_1 
REMARK    2  A    between atoms: C_6  and  S_1 
REMARK    3  A    between atoms: N_4  and  C_3 
REMARK       I    between atoms: C_5  and  N_4 
REMARK       I    between atoms: N_10  and  C_5 
REMARK    4  A    between atoms: C_7  and  C_11 
REMARK    5  A    between atoms: O_20  and  C_7 
REMARK    6  A    between atoms: C_14  and  N_10 
ROOT
ATOM      1  N   UNL d   1     -40.919  15.147  17.707  0.00  0.00    -0.214 N 
ATOM      2  C   UNL d   1     -40.325  15.031  17.136  0.00  0.00     0.162 A 
ATOM      3  C   UNL d   1     -41.568  15.502  17.327  0.00  0.00     0.093 A 
ATOM      4  C   UNL d   1     -40.607  15.313  16.408  0.00  0.00     0.040 A 
ATOM      5  C   UNL d   1     -41.365  15.600  16.527  0.00  0.00     0.023 A 
ENDROOT
BRANCH   2   6
ATOM      6  N   UNL d   1     -39.575  14.687  17.280  0.00  0.00    -0.173 NA
ATOM      7  C   UNL d   1     -38.915  14.969  16.878  0.00  0.00     0.370 C 
ATOM      8  N   UNL d   1     -38.171  14.631  17.019  0.00  0.00    -0.191 NA
ATOM      9  O   UNL d   1     -38.983  15.586  16.332  0.00  0.00    -0.242 OA
BRANCH   8  10
ATOM     10  C   UNL d   1     -38.095  14.015  17.561  0.00  0.00     0.086 A 
ATOM     11  C   UNL d   1     -38.098  13.232  17.298  0.00  0.00     0.025 A 
ATOM     12  C   UNL d   1     -38.021  12.616  17.840  0.00  0.00     0.065 A 
ATOM     13  C   UNL d   1     -37.942  12.784  18.648  0.00  0.00     0.005 A 
ATOM     14  C   UNL d   1     -37.940  13.566  18.906  0.00  0.00     0.002 A 
ATOM     15  C   UNL d   1     -38.016  14.182  18.365  0.00  0.00     0.019 A 
BRANCH  12  16
ATOM     16  C   UNL d   1     -38.025  11.834  17.570  0.00  0.00     0.296 C 
ATOM     17  O   UNL d   1     -38.027  11.669  16.770  0.00  0.00    -0.259 OA
BRANCH  16  18
ATOM     18  O   UNL d   1     -38.026  11.218  18.120  0.00  0.00    -0.296 OA
ATOM     19  C   UNL d   1     -38.030  10.438  17.874  0.00  0.00     0.185 C 
ENDBRANCH  16  18
ENDBRANCH  12  16
ENDBRANCH   8  10
ENDBRANCH   2   6
BRANCH   1  20
ATOM     20  S   UNL d   1     -40.962  14.983  18.510  0.00  0.00     0.272 S 
ATOM     21  O   UNL d   1     -41.110  14.210  18.374  0.00  0.00    -0.200 OA
ATOM     22  O   UNL d   1     -40.812  15.770  18.688  0.00  0.00    -0.200 OA
BRANCH  20  23
ATOM     23  C   UNL d   1     -41.008  14.806  19.325  0.00  0.00     0.104 A 
ATOM     24  C   UNL d   1     -40.607  15.273  19.872  0.00  0.00     0.014 A 
ATOM     25  C   UNL d   1     -40.656  15.094  20.667  0.00  0.00     0.012 A 
ATOM     26  C   UNL d   1     -41.107  14.446  20.930  0.00  0.00     0.058 A 
ATOM     27  C   UNL d   1     -41.508  13.980  20.384  0.00  0.00     0.012 A 
ATOM     28 CL   UNL d   1     -41.155  14.268  21.737  0.00  0.00    -0.082 Cl
ATOM     29  C   UNL d   1     -41.460  14.160  19.572  0.00  0.00     0.014 A 
ENDBRANCH  20  23
ENDBRANCH   1  20
TORSDOF 6
ENDMDL
MODEL 5
REMARK VINA RESULT:      -5.1      8.325     10.512
REMARK  6 active torsions:
REMARK  status: ('A' for Active; 'I' for Inactive)
REMARK    1  A    between atoms: N_2  and  S_1 
REMARK    2  A    between atoms: C_6  and  S_1 
REMARK    3  A    between atoms: N_4  and  C_3 
REMARK       I    between atoms: C_5  and  N_4 
REMARK       I    between atoms: N_10  and  C_5 
REMARK    4  A    between atoms: C_7  and  C_11 
REMARK    5  A    between atoms: O_20  and  C_7 
REMARK    6  A    between atoms: C_14  and  N_10 
ROOT
ATOM      1  N   UNL d   1     -39.096  13.917  20.753  0.00  0.00    -0.214 N 
ATOM      2  C   UNL d   1     -38.578  13.752  20.122  0.00  0.00     0.162 A 
ATOM      3  C   UNL d   1     -38.774  13.576  21.440  0.00  0.00     0.093 A 
ATOM      4  C   UNL d   1     -37.941  13.311  20.420  0.00  0.00     0.040 A 
ATOM      5  C   UNL d   1     -38.062  13.205  21.223  0.00  0.00     0.023 A 
ENDROOT
BRANCH   2   6
ATOM      6  N   UNL d   1     -38.690  13.993  19.328  0.00  0.00    -0.173 NA
ATOM      7  C   UNL d   1     -38.451  13.498  18.716  0.00  0.00     0.370 C 
ATOM      8  N   UNL d   1     -38.560  13.734  17.929  0.00  0.00    -0.191 NA
ATOM      9  O   UNL d   1     -38.101  12.766  18.875  0.00  0.00    -0.242 OA
BRANCH   8  10
ATOM     10  C   UNL d   1     -38.907  14.463  17.762  0.00  0.00     0.086 A 
ATOM     11  C   UNL d   1     -39.712  14.504  17.586  0.00  0.00     0.025 A 
ATOM     12  C   UNL d   1     -40.060  15.232  17.419  0.00  0.00     0.065 A 
ATOM     13  C   UNL d   1     -39.600  15.922  17.428  0.00  0.00     0.005 A 
ATOM     14  C   UNL d   1     -38.797  15.876  17.605  0.00  0.00     0.002 A 
ATOM     15  C   UNL d   1     -38.449  15.149  17.772  0.00  0.00     0.019 A 
BRANCH  12  16
ATOM     16  C   UNL d   1     -40.868  15.266  17.243  0.00  0.00     0.296 C 
ATOM     17  O   UNL d   1     -41.422  15.347  17.837  0.00  0.00    -0.259 OA
BRANCH  16  18
ATOM     18  O   UNL d   1     -41.110  15.217  16.455  0.00  0.00    -0.296 OA
ATOM     19  C   UNL d   1     -41.904  15.245  16.260  0.00  0.00     0.185 C 
ENDBRANCH  16  18
ENDBRANCH  12  16
ENDBRANCH   8  10
ENDBRANCH   2   6
BRANCH   1  20
ATOM     20  S   UNL d   1     -39.806  14.325  20.801  0.00  0.00     0.272 S 
ATOM     21  O   UNL d   1     -40.231  13.654  20.716  0.00  0.00    -0.200 OA
ATOM     22  O   UNL d   1     -39.404  15.035  20.891  0.00  0.00    -0.200 OA
BRANCH  20  23
ATOM     23  C   UNL d   1     -40.535  14.731  20.848  0.00  0.00     0.104 A 
ATOM     24  C   UNL d   1     -40.553  15.522  21.076  0.00  0.00     0.014 A 
ATOM     25  C   UNL d   1     -41.268  15.912  21.121  0.00  0.00     0.012 A 
ATOM     26  C   UNL d   1     -41.979  15.521  20.937  0.00  0.00     0.058 A 
ATOM     27  C   UNL d   1     -41.961  14.731  20.709  0.00  0.00     0.012 A 
ATOM     28 CL   UNL d   1     -42.702  15.920  20.983  0.00  0.00    -0.082 Cl
ATOM     29  C   UNL d   1     -41.233  14.329  20.663  0.00  0.00     0.014 A 
ENDBRANCH  20  23
ENDBRANCH   1  20
TORSDOF 6
ENDMDL
MODEL 6
REMARK VINA RESULT:      -4.7      2.149      3.959
REMARK  6 active torsions:
REMARK  status: ('A' for Active; 'I' for Inactive)
REMARK    1  A    between atoms: N_2  and  S_1 
REMARK    2  A    between atoms: C_6  and  S_1 
REMARK    3  A    between atoms: N_4  and  C_3 
REMARK       I    between atoms: C_5  and  N_4 
REMARK       I    between atoms: N_10  and  C_5 
REMARK    4  A    between atoms: C_7  and  C_11 
REMARK    5  A    between atoms: O_20  and  C_7 
REMARK    6  A    between atoms: C_14  and  N_10 
ROOT
ATOM      1  N   UNL d   1     -49.157  12.141  22.299  0.00  0.00    -0.214 N 
ATOM      2  C   UNL d   1     -48.442  11.717  22.358  0.00  0.00     0.162 A 
ATOM      3  C   UNL d   1     -49.711  11.649  21.923  0.00  0.00     0.093 A 
ATOM      4  C   UNL d   1     -48.557  10.968  22.020  0.00  0.00     0.040 A 
ATOM      5  C   UNL d   1     -49.332  10.928  21.755  0.00  0.00     0.023 A 
ENDROOT
BRANCH   2   6
ATOM      6  N   UNL d   1     -47.735  12.006  22.700  0.00  0.00    -0.173 NA
ATOM      7  C   UNL d   1     -47.413  11.621  23.352  0.00  0.00     0.370 C 
ATOM      8  N   UNL d   1     -46.713  11.905  23.693  0.00  0.00    -0.191 NA
ATOM      9  O   UNL d   1     -47.779  10.953  23.673  0.00  0.00    -0.242 OA
BRANCH   8  10
ATOM     10  C   UNL d   1     -46.342  12.571  23.380  0.00  0.00     0.086 A 
ATOM     11  C   UNL d   1     -45.814  12.490  22.751  0.00  0.00     0.025 A 
ATOM     12  C   UNL d   1     -45.443  13.156  22.437  0.00  0.00     0.065 A 
ATOM     13  C   UNL d   1     -45.601  13.905  22.754  0.00  0.00     0.005 A 
ATOM     14  C   UNL d   1     -46.128  13.981  23.381  0.00  0.00     0.002 A 
ATOM     15  C   UNL d   1     -46.499  13.317  23.695  0.00  0.00     0.019 A 
BRANCH  12  16
ATOM     16  C   UNL d   1     -44.915  13.067  21.806  0.00  0.00     0.296 C 
ATOM     17  O   UNL d   1     -45.097  12.583  21.174  0.00  0.00    -0.259 OA
BRANCH  16  18
ATOM     18  O   UNL d   1     -44.197  13.475  21.822  0.00  0.00    -0.296 OA
ATOM     19  C   UNL d   1     -43.541  13.183  21.431  0.00  0.00     0.185 C 
ENDBRANCH  16  18
ENDBRANCH  12  16
ENDBRANCH   8  10
ENDBRANCH   2   6
BRANCH   1  20
ATOM     20  S   UNL d   1     -49.380  12.896  22.531  0.00  0.00     0.272 S 
ATOM     21  O   UNL d   1     -49.587  12.643  23.259  0.00  0.00    -0.200 OA
ATOM     22  O   UNL d   1     -49.177  13.192  21.792  0.00  0.00    -0.200 OA
BRANCH  20  23
ATOM     23  C   UNL d   1     -49.609  13.661  22.776  0.00  0.00     0.104 A 
ATOM     24  C   UNL d   1     -49.367  14.321  22.348  0.00  0.00     0.014 A 
ATOM     25  C   UNL d   1     -49.595  15.066  22.593  0.00  0.00     0.012 A 
ATOM     26  C   UNL d   1     -50.069  15.164  23.270  0.00  0.00     0.058 A 
ATOM     27  C   UNL d   1     -50.310  14.505  23.698  0.00  0.00     0.012 A 
ATOM     28 CL   UNL d   1     -50.298  15.921  23.516  0.00  0.00    -0.082 Cl
ATOM     29  C   UNL d   1     -50.080  13.743  23.450  0.00  0.00     0.014 A 
ENDBRANCH  20  23
ENDBRANCH   1  20
TORSDOF 6
ENDMDL
MODEL 7
REMARK VINA RESULT:      -4.5      8.177     10.093
REMARK  6 active torsions:
REMARK  status: ('A' for Active; 'I' for Inactive)
REMARK    1  A    between atoms: N_2  and  S_1 
REMARK    2  A    between atoms: C_6  and  S_1 
REMARK    3  A    between atoms: N_4  and  C_3 
REMARK       I    between atoms: C_5  and  N_4 
REMARK       I    between atoms: N_10  and  C_5 
REMARK    4  A    between atoms: C_7  and  C_11 
REMARK    5  A    between atoms: O_20  and  C_7 
REMARK    6  A    between atoms: C_14  and  N_10 
ROOT
ATOM      1  N   UNL d   1     -38.540  13.945  18.522  0.00  0.00    -0.214 N 
ATOM      2  C   UNL d   1     -39.178  14.253  18.085  0.00  0.00     0.162 A 
ATOM      3  C   UNL d   1     -37.945  13.732  17.983  0.00  0.00     0.093 A 
ATOM      4  C   UNL d   1     -38.976  14.230  17.280  0.00  0.00     0.040 A 
ATOM      5  C   UNL d   1     -38.223  13.911  17.220  0.00  0.00     0.023 A 
ENDROOT
BRANCH   2   6
ATOM      6  N   UNL d   1     -39.897  14.536  18.410  0.00  0.00    -0.173 NA
ATOM      7  C   UNL d   1     -40.521  14.728  17.910  0.00  0.00     0.370 C 
ATOM      8  N   UNL d   1     -41.233  15.008  18.229  0.00  0.00    -0.191 NA
ATOM      9  O   UNL d   1     -40.448  14.646  17.091  0.00  0.00    -0.242 OA
BRANCH   8  10
ATOM     10  C   UNL d   1     -41.314  15.092  19.045  0.00  0.00     0.086 A 
ATOM     11  C   UNL d   1     -41.550  14.449  19.504  0.00  0.00     0.025 A 
ATOM     12  C   UNL d   1     -41.631  14.534  20.320  0.00  0.00     0.065 A 
ATOM     13  C   UNL d   1     -41.474  15.264  20.678  0.00  0.00     0.005 A 
ATOM     14  C   UNL d   1     -41.238  15.904  20.216  0.00  0.00     0.002 A 
ATOM     15  C   UNL d   1     -41.157  15.820  19.400  0.00  0.00     0.019 A 
BRANCH  12  16
ATOM     16  C   UNL d   1     -41.869  13.884  20.774  0.00  0.00     0.296 C 
ATOM     17  O   UNL d   1     -41.474  13.688  21.462  0.00  0.00    -0.259 OA
BRANCH  16  18
ATOM     18  O   UNL d   1     -42.513  13.432  20.524  0.00  0.00    -0.296 OA
ATOM     19  C   UNL d   1     -42.863  12.889  21.026  0.00  0.00     0.185 C 
ENDBRANCH  16  18
ENDBRANCH  12  16
ENDBRANCH   8  10
ENDBRANCH   2   6
BRANCH   1  20
ATOM     20  S   UNL d   1     -38.417  13.829  19.325  0.00  0.00     0.272 S 
ATOM     21  O   UNL d   1     -38.768  13.112  19.306  0.00  0.00    -0.200 OA
ATOM     22  O   UNL d   1     -38.050  14.561  19.383  0.00  0.00    -0.200 OA
BRANCH  20  23
ATOM     23  C   UNL d   1     -38.296  13.702  20.142  0.00  0.00     0.104 A 
ATOM     24  C   UNL d   1     -38.135  14.338  20.639  0.00  0.00     0.014 A 
ATOM     25  C   UNL d   1     -38.018  14.207  21.436  0.00  0.00     0.012 A 
ATOM     26  C   UNL d   1     -38.060  13.438  21.751  0.00  0.00     0.058 A 
ATOM     27  C   UNL d   1     -38.221  12.803  21.255  0.00  0.00     0.012 A 
ATOM     28 CL   UNL d   1     -37.941  13.308  22.560  0.00  0.00    -0.082 Cl
ATOM     29  C   UNL d   1     -38.341  12.933  20.440  0.00  0.00     0.014 A 
ENDBRANCH  20  23
ENDBRANCH   1  20
TORSDOF 6
ENDMDL
MODEL 8
REMARK VINA RESULT:      -4.2      1.947      3.566
REMARK  6 active torsions:
REMARK  status: ('A' for Active; 'I' for Inactive)
REMARK    1  A    between atoms: N_2  and  S_1 
REMARK    2  A    between atoms: C_6  and  S_1 
REMARK    3  A    between atoms: N_4  and  C_3 
REMARK       I    between atoms: C_5  and  N_4 
REMARK       I    between atoms: N_10  and  C_5 
REMARK    4  A    between atoms: C_7  and  C_11 
REMARK    5  A    between atoms: O_20  and  C_7 
REMARK    6  A    between atoms: C_14  and  N_10 
ROOT
ATOM      1  N   UNL d   1     -49.320  14.180  22.220  0.00  0.00    -0.214 N 
ATOM      2  C   UNL d   1     -48.669  14.697  22.182  0.00  0.00     0.162 A 
ATOM      3  C   UNL d   1     -49.976  14.577  21.897  0.00  0.00     0.093 A 
ATOM      4  C   UNL d   1     -48.923  15.409  21.838  0.00  0.00     0.040 A 
ATOM      5  C   UNL d   1     -49.720  15.333  21.665  0.00  0.00     0.023 A 
ENDROOT
BRANCH   2   6
ATOM      6  N   UNL d   1     -47.894  14.521  22.448  0.00  0.00    -0.173 NA
ATOM      7  C   UNL d   1     -47.387  15.134  22.657  0.00  0.00     0.370 C 
ATOM      8  N   UNL d   1     -46.621  14.962  22.921  0.00  0.00    -0.191 NA
ATOM      9  O   UNL d   1     -47.633  15.922  22.608  0.00  0.00    -0.242 OA
BRANCH   8  10
ATOM     10  C   UNL d   1     -46.368  14.179  22.973  0.00  0.00     0.086 A 
ATOM     11  C   UNL d   1     -45.873  13.867  22.392  0.00  0.00     0.025 A 
ATOM     12  C   UNL d   1     -45.621  13.084  22.444  0.00  0.00     0.065 A 
ATOM     13  C   UNL d   1     -45.865  12.612  23.080  0.00  0.00     0.005 A 
ATOM     14  C   UNL d   1     -46.360  12.928  23.658  0.00  0.00     0.002 A 
ATOM     15  C   UNL d   1     -46.612  13.710  23.606  0.00  0.00     0.019 A 
BRANCH  12  16
ATOM     16  C   UNL d   1     -45.124  12.778  21.858  0.00  0.00     0.296 C 
ATOM     17  O   UNL d   1     -45.432  12.482  21.162  0.00  0.00    -0.259 OA
BRANCH  16  18
ATOM     18  O   UNL d   1     -44.307  12.774  21.984  0.00  0.00    -0.296 OA
ATOM     19  C   UNL d   1     -43.789  12.662  21.361  0.00  0.00     0.185 C 
ENDBRANCH  16  18
ENDBRANCH  12  16
ENDBRANCH   8  10
ENDBRANCH   2   6
BRANCH   1  20
ATOM     20  S   UNL d   1     -49.410  13.414  22.498  0.00  0.00     0.272 S 
ATOM     21  O   UNL d   1     -49.506  13.666  23.250  0.00  0.00    -0.200 OA
ATOM     22  O   UNL d   1     -49.316  13.117  21.739  0.00  0.00    -0.200 OA
BRANCH  20  23
ATOM     23  C   UNL d   1     -49.502  12.637  22.791  0.00  0.00     0.104 A 
ATOM     24  C   UNL d   1     -49.061  12.020  22.472  0.00  0.00     0.014 A 
ATOM     25  C   UNL d   1     -49.156  11.263  22.763  0.00  0.00     0.012 A 
ATOM     26  C   UNL d   1     -49.694  11.109  23.379  0.00  0.00     0.058 A 
ATOM     27  C   UNL d   1     -50.135  11.725  23.698  0.00  0.00     0.012 A 
ATOM     28 CL   UNL d   1     -49.788  10.340  23.671  0.00  0.00    -0.082 Cl
ATOM     29  C   UNL d   1     -50.041  12.499  23.403  0.00  0.00     0.014 A 
ENDBRANCH  20  23
ENDBRANCH   1  20
TORSDOF 6
ENDMDL
MODEL 9
REMARK VINA RESULT:      -3.9      8.195     10.098
REMARK  6 active torsions:
REMARK  status: ('A' for Active; 'I' for Inactive)
REMARK    1  A    between atoms: N_2  and  S_1 
REMARK    2  A    between atoms: C_6  and  S_1 
REMARK    3  A    between atoms: N_4  and  C_3 
REMARK       I    between atoms: C_5  and  N_4 
REMARK       I    between atoms: N_10  and  C_5 
REMARK    4  A    between atoms: C_7  and  C_11 
REMARK    5  A    between atoms: O_20  and  C_7 
REMARK    6  A    between atoms: C_14  and  N_10 
ROOT
ATOM      1  N   UNL d   1     -41.101  14.102  20.516  0.00  0.00    -0.214 N 
ATOM      2  C   UNL d   1     -41.212  14.091  19.691  0.00  0.00     0.162 A 
ATOM      3  C   UNL d   1     -41.801  13.828  20.869  0.00  0.00     0.093 A 
ATOM      4  C   UNL d   1     -41.978  13.811  19.537  0.00  0.00     0.040 A 
ATOM      5  C   UNL d   1     -42.336  13.652  20.257  0.00  0.00     0.023 A 
ENDROOT
BRANCH   2   6
ATOM      6  N   UNL d   1     -40.643  14.323  19.122  0.00  0.00    -0.173 NA
ATOM      7  C   UNL d   1     -40.879  14.759  18.465  0.00  0.00     0.370 C 
ATOM      8  N   UNL d   1     -40.318  14.990  17.901  0.00  0.00    -0.191 NA
ATOM      9  O   UNL d   1     -41.671  14.970  18.360  0.00  0.00    -0.242 OA
BRANCH   8  10
ATOM     10  C   UNL d   1     -39.526  14.783  17.999  0.00  0.00     0.086 A 
ATOM     11  C   UNL d   1     -39.268  14.030  17.785  0.00  0.00     0.025 A 
ATOM     12  C   UNL d   1     -38.476  13.823  17.882  0.00  0.00     0.065 A 
ATOM     13  C   UNL d   1     -37.941  14.373  18.195  0.00  0.00     0.005 A 
ATOM     14  C   UNL d   1     -38.203  15.124  18.407  0.00  0.00     0.002 A 
ATOM     15  C   UNL d   1     -38.994  15.331  18.310  0.00  0.00     0.019 A 
BRANCH  12  16
ATOM     16  C   UNL d   1     -38.224  13.065  17.666  0.00  0.00     0.296 C 
ATOM     17  O   UNL d   1     -38.181  12.848  16.879  0.00  0.00    -0.259 OA
BRANCH  16  18
ATOM     18  O   UNL d   1     -38.016  12.527  18.256  0.00  0.00    -0.296 OA
ATOM     19  C   UNL d   1     -37.940  11.730  18.087  0.00  0.00     0.185 C 
ENDBRANCH  16  18
ENDBRANCH  12  16
ENDBRANCH   8  10
ENDBRANCH   2   6
BRANCH   1  20
ATOM     20  S   UNL d   1     -40.468  14.320  20.991  0.00  0.00     0.272 S 
ATOM     21  O   UNL d   1     -40.809  15.018  21.177  0.00  0.00    -0.200 OA
ATOM     22  O   UNL d   1     -40.087  13.612  20.823  0.00  0.00    -0.200 OA
BRANCH  20  23
ATOM     23  C   UNL d   1     -39.829  14.550  21.478  0.00  0.00     0.104 A 
ATOM     24  C   UNL d   1     -39.317  13.982  21.783  0.00  0.00     0.014 A 
ATOM     25  C   UNL d   1     -38.695  14.214  22.258  0.00  0.00     0.012 A 
ATOM     26  C   UNL d   1     -38.572  15.018  22.435  0.00  0.00     0.058 A 
ATOM     27  C   UNL d   1     -39.083  15.585  22.130  0.00  0.00     0.012 A 
ATOM     28 CL   UNL d   1     -37.940  15.249  22.917  0.00  0.00    -0.082 Cl
ATOM     29  C   UNL d   1     -39.720  15.352  21.645  0.00  0.00     0.014 A 
ENDBRANCH  20  23
ENDBRANCH   1  20
TORSDOF 6
ENDMDL
