MODEL 1
REMARK VINA RESULT:      -2.3      0.000      0.000
REMARK  4 active torsions:
REMARK  status: ('A' for Active; 'I' for Inactive)
REMARK    1  A    between atoms: C_2  and  C_1 
REMARK    2  A    between atoms: N_8  and  C_3 
REMARK    3  A    between atoms: C_15  and  N_8 
REMARK    4  A    between atoms: O_18  and  C_16 
ROOT
ATOM      1  C   UNL d   1      32.867  21.033 -22.282  0.00  0.00     0.077 A 
ATOM      2  C   UNL d   1      33.112  21.374 -22.993  0.00  0.00     0.185 A 
ATOM      3  C   UNL d   1      32.741  20.224 -22.235  0.00  0.00     0.009 A 
ATOM      4  O   UNL d   1      33.232  20.904 -23.656  0.00  0.00    -0.289 OA
ATOM      5  C   UNL d   1      32.861  19.747 -22.900  0.00  0.00     0.025 A 
ATOM      6  C   UNL d   1      33.106  20.088 -23.611  0.00  0.00     0.102 A 
ATOM      7  C   UNL d   1      32.735  18.958 -22.843  0.00  0.00     0.026 A 
ATOM      8  C   UNL d   1      33.226  19.639 -24.264  0.00  0.00     0.027 A 
ATOM      9  C   UNL d   1      32.855  18.478 -23.511  0.00  0.00     0.094 A 
ATOM     10  C   UNL d   1      33.100  18.818 -24.221  0.00  0.00     0.026 A 
ENDROOT
BRANCH   1  11
ATOM     11  C   UNL d   1      32.749  21.501 -21.627  0.00  0.00     0.166 A 
ATOM     12  N   UNL d   1      33.241  21.544 -21.006  0.00  0.00    -0.225 NA
ATOM     13  C   UNL d   1      32.954  22.054 -20.468  0.00  0.00     0.101 A 
ATOM     14  C   UNL d   1      33.210  22.327 -19.724  0.00  0.00     0.021 A 
ATOM     15  C   UNL d   1      32.237  22.343 -20.784  0.00  0.00     0.101 A 
ATOM     16  C   UNL d   1      32.733  22.887 -19.315  0.00  0.00     0.002 A 
ATOM     17  C   UNL d   1      32.018  23.168 -19.641  0.00  0.00     0.002 A 
ATOM     18  C   UNL d   1      31.767  22.919 -20.341  0.00  0.00     0.021 A 
ATOM     19  N   UNL d   1      32.123  21.979 -21.523  0.00  0.00    -0.225 NA
ENDBRANCH   1  11
BRANCH   2  20
ATOM     20  N   UNL d   1      33.238  22.189 -23.038  0.00  0.00    -0.222 NA
BRANCH  20  21
ATOM     21  C   UNL d   1      33.002  22.601 -23.698  0.00  0.00     0.084 A 
ATOM     22  C   UNL d   1      32.527  23.255 -23.608  0.00  0.00     0.019 A 
ATOM     23  C   UNL d   1      32.292  23.664 -24.264  0.00  0.00     0.002 A 
ATOM     24  C   UNL d   1      32.519  23.438 -25.015  0.00  0.00     0.000 A 
ATOM     25  C   UNL d   1      32.995  22.780 -25.088  0.00  0.00     0.002 A 
ATOM     26  C   UNL d   1      33.241  22.355 -24.425  0.00  0.00     0.019 A 
ENDBRANCH  20  21
ENDBRANCH   2  20
BRANCH   9  27
ATOM     27  O   UNL d   1      32.731  17.685 -23.462  0.00  0.00    -0.328 OA
ATOM     28  C   UNL d   1      32.276  17.318 -23.994  0.00  0.00     0.181 C 
ENDBRANCH   9  27
TORSDOF 4
ENDMDL
MODEL 2
REMARK VINA RESULT:       0.3      1.362      3.842
REMARK  4 active torsions:
REMARK  status: ('A' for Active; 'I' for Inactive)
REMARK    1  A    between atoms: C_2  and  C_1 
REMARK    2  A    between atoms: N_8  and  C_3 
REMARK    3  A    between atoms: C_15  and  N_8 
REMARK    4  A    between atoms: O_18  and  C_16 
ROOT
ATOM      1  C   UNL d   1      32.784  20.935 -22.109  0.00  0.00     0.077 A 
ATOM      2  C   UNL d   1      32.889  21.601 -22.585  0.00  0.00     0.185 A 
ATOM      3  C   UNL d   1      32.801  21.006 -21.291  0.00  0.00     0.009 A 
ATOM      4  O   UNL d   1      33.012  22.337 -22.243  0.00  0.00    -0.289 OA
ATOM      5  C   UNL d   1      32.924  21.746 -20.943  0.00  0.00     0.025 A 
ATOM      6  C   UNL d   1      33.029  22.411 -21.419  0.00  0.00     0.102 A 
ATOM      7  C   UNL d   1      32.939  21.803 -20.144  0.00  0.00     0.026 A 
ATOM      8  C   UNL d   1      33.149  23.135 -21.095  0.00  0.00     0.027 A 
ATOM      9  C   UNL d   1      33.062  22.546 -19.792  0.00  0.00     0.094 A 
ATOM     10  C   UNL d   1      33.167  23.212 -20.267  0.00  0.00     0.026 A 
ENDROOT
BRANCH   1  11
ATOM     11  C   UNL d   1      32.663  20.207 -22.451  0.00  0.00     0.166 A 
ATOM     12  N   UNL d   1      33.235  19.679 -22.608  0.00  0.00    -0.225 NA
ATOM     13  C   UNL d   1      32.920  19.029 -22.942  0.00  0.00     0.101 A 
ATOM     14  C   UNL d   1      33.225  18.308 -23.222  0.00  0.00     0.021 A 
ATOM     15  C   UNL d   1      32.099  19.172 -22.991  0.00  0.00     0.101 A 
ATOM     16  C   UNL d   1      32.691  17.744 -23.547  0.00  0.00     0.002 A 
ATOM     17  C   UNL d   1      31.872  17.898 -23.592  0.00  0.00     0.002 A 
ATOM     18  C   UNL d   1      31.573  18.574 -23.331  0.00  0.00     0.021 A 
ATOM     19  N   UNL d   1      31.954  19.927 -22.674  0.00  0.00    -0.225 NA
ENDBRANCH   1  11
BRANCH   2  20
ATOM     20  N   UNL d   1      32.872  21.527 -23.408  0.00  0.00    -0.222 NA
BRANCH  20  21
ATOM     21  C   UNL d   1      32.777  22.188 -23.873  0.00  0.00     0.084 A 
ATOM     22  C   UNL d   1      32.262  22.770 -23.633  0.00  0.00     0.019 A 
ATOM     23  C   UNL d   1      32.169  23.427 -24.095  0.00  0.00     0.002 A 
ATOM     24  C   UNL d   1      32.577  23.520 -24.795  0.00  0.00     0.000 A 
ATOM     25  C   UNL d   1      33.089  22.927 -25.021  0.00  0.00     0.002 A 
ATOM     26  C   UNL d   1      33.193  22.253 -24.557  0.00  0.00     0.019 A 
ENDBRANCH  20  21
ENDBRANCH   2  20
BRANCH   9  27
ATOM     27  O   UNL d   1      33.078  22.612 -18.992  0.00  0.00    -0.328 OA
ATOM     28  C   UNL d   1      33.197  21.974 -18.540  0.00  0.00     0.181 C 
ENDBRANCH   9  27
TORSDOF 4
ENDMDL
