MODEL 1
REMARK VINA RESULT:      -0.6      0.000      0.000
REMARK  5 active torsions:
REMARK  status: ('A' for Active; 'I' for Inactive)
REMARK    1  A    between atoms: C_5  and  N_1 
REMARK    2  A    between atoms: C_8  and  C_3 
REMARK    3  A    between atoms: C_7  and  C_4 
REMARK    4  A    between atoms: N_12  and  C_5 
REMARK    5  A    between atoms: N_11  and  C_10 
ROOT
ATOM      1  N   UNL d   1      32.472  17.716 -23.486  0.00  0.00    -0.203 N 
ATOM      2  N   UNL d   1      32.875  18.329 -23.132  0.00  0.00    -0.163 NA
ATOM      3  C   UNL d   1      32.378  18.950 -23.026  0.00  0.00     0.103 A 
ATOM      4  C   UNL d   1      31.683  17.956 -23.611  0.00  0.00     0.087 A 
ATOM      5  C   UNL d   1      31.628  18.733 -23.320  0.00  0.00     0.040 A 
ENDROOT
BRANCH   4   6
ATOM      6  C   UNL d   1      31.064  17.529 -23.952  0.00  0.00     0.018 A 
ATOM      7  C   UNL d   1      30.839  17.673 -24.706  0.00  0.00     0.003 A 
ATOM      8  C   UNL d   1      30.217  17.246 -25.050  0.00  0.00     0.018 A 
ATOM      9  C   UNL d   1      29.833  16.669 -24.603  0.00  0.00     0.064 A 
ATOM     10  C   UNL d   1      30.056  16.517 -23.833  0.00  0.00     0.018 A 
ATOM     11  C   UNL d   1      30.679  16.953 -23.505  0.00  0.00     0.003 A 
BRANCH   9  12
ATOM     12  N   UNL d   1      29.226  16.250 -24.931  0.00  0.00    -0.301 N 
ATOM     13  C   UNL d   1      28.534  16.623 -25.096  0.00  0.00     0.100 C 
ATOM     14  C   UNL d   1      29.324  15.458 -25.090  0.00  0.00     0.100 C 
ENDBRANCH   9  12
ENDBRANCH   4   6
BRANCH   1  15
ATOM     15  C   UNL d   1      32.798  16.972 -23.689  0.00  0.00     0.222 C 
ATOM     16  S   UNL d   1      33.240  16.902 -24.395  0.00  0.00    -0.037 SA
BRANCH  15  17
ATOM     17  N   UNL d   1      32.681  16.309 -23.189  0.00  0.00    -0.214 NA
ATOM     18  C   UNL d   1      33.183  15.642 -23.238  0.00  0.00     0.122 C 
ENDBRANCH  15  17
ENDBRANCH   1  15
BRANCH   3  19
ATOM     19  C   UNL d   1      32.598  19.659 -22.685  0.00  0.00     0.019 A 
ATOM     20  C   UNL d   1      32.384  19.805 -21.898  0.00  0.00     0.002 A 
ATOM     21  C   UNL d   1      32.596  20.507 -21.546  0.00  0.00     0.000 A 
ATOM     22  C   UNL d   1      33.023  21.071 -21.971  0.00  0.00     0.000 A 
ATOM     23  C   UNL d   1      33.239  20.922 -22.767  0.00  0.00     0.000 A 
ATOM     24  C   UNL d   1      33.237  21.781 -21.611  0.00  0.00     0.000 C 
ATOM     25  C   UNL d   1      33.015  20.206 -23.106  0.00  0.00     0.002 A 
ENDBRANCH   3  19
TORSDOF 5
ENDMDL
MODEL 2
REMARK VINA RESULT:       2.1      2.948      5.972
REMARK  5 active torsions:
REMARK  status: ('A' for Active; 'I' for Inactive)
REMARK    1  A    between atoms: C_5  and  N_1 
REMARK    2  A    between atoms: C_8  and  C_3 
REMARK    3  A    between atoms: C_7  and  C_4 
REMARK    4  A    between atoms: N_12  and  C_5 
REMARK    5  A    between atoms: N_11  and  C_10 
ROOT
ATOM      1  N   UNL d   1      32.729  21.676 -22.456  0.00  0.00    -0.203 N 
ATOM      2  N   UNL d   1      32.737  21.063 -22.991  0.00  0.00    -0.163 NA
ATOM      3  C   UNL d   1      32.874  20.372 -22.606  0.00  0.00     0.103 A 
ATOM      4  C   UNL d   1      32.866  21.364 -21.695  0.00  0.00     0.087 A 
ATOM      5  C   UNL d   1      32.957  20.542 -21.794  0.00  0.00     0.040 A 
ENDROOT
BRANCH   4   6
ATOM      6  C   UNL d   1      32.909  21.764 -20.974  0.00  0.00     0.018 A 
ATOM      7  C   UNL d   1      33.174  22.519 -20.945  0.00  0.00     0.003 A 
ATOM      8  C   UNL d   1      33.217  22.923 -20.222  0.00  0.00     0.018 A 
ATOM      9  C   UNL d   1      32.983  22.535 -19.532  0.00  0.00     0.064 A 
ATOM     10  C   UNL d   1      32.712  21.767 -19.555  0.00  0.00     0.018 A 
ATOM     11  C   UNL d   1      32.675  21.378 -20.285  0.00  0.00     0.003 A 
BRANCH   9  12
ATOM     12  N   UNL d   1      33.023  22.923 -18.825  0.00  0.00    -0.301 N 
ATOM     13  C   UNL d   1      33.228  23.700 -18.813  0.00  0.00     0.100 C 
ATOM     14  C   UNL d   1      32.855  22.523 -18.137  0.00  0.00     0.100 C 
ENDBRANCH   9  12
ENDBRANCH   4   6
BRANCH   1  15
ATOM     15  C   UNL d   1      32.603  22.483 -22.641  0.00  0.00     0.222 C 
ATOM     16  S   UNL d   1      31.835  22.803 -22.557  0.00  0.00    -0.037 SA
BRANCH  15  17
ATOM     17  N   UNL d   1      33.240  22.960 -22.905  0.00  0.00    -0.214 NA
ATOM     18  C   UNL d   1      33.199  23.359 -23.640  0.00  0.00     0.122 C 
ENDBRANCH  15  17
ENDBRANCH   1  15
BRANCH   3  19
ATOM     19  C   UNL d   1      32.918  19.644 -22.974  0.00  0.00     0.019 A 
ATOM     20  C   UNL d   1      32.677  18.972 -22.555  0.00  0.00     0.002 A 
ATOM     21  C   UNL d   1      32.716  18.241 -22.909  0.00  0.00     0.000 A 
ATOM     22  C   UNL d   1      32.995  18.169 -23.682  0.00  0.00     0.000 A 
ATOM     23  C   UNL d   1      33.239  18.851 -24.105  0.00  0.00     0.000 A 
ATOM     24  C   UNL d   1      33.033  17.426 -24.038  0.00  0.00     0.000 C 
ATOM     25  C   UNL d   1      33.192  19.581 -23.730  0.00  0.00     0.002 A 
ENDBRANCH   3  19
TORSDOF 5
ENDMDL
