MODEL 1
REMARK VINA RESULT:      -7.0      0.000      0.000
REMARK  4 active torsions:
REMARK  status: ('A' for Active; 'I' for Inactive)
REMARK    1  A    between atoms: C_7  and  C_1 
REMARK    2  A    between atoms: N_6  and  C_3 
REMARK       I    between atoms: C_8  and  N_6 
REMARK    3  A    between atoms: C_12  and  C_8 
REMARK    4  A    between atoms: C_15  and  C_12 
ROOT
ATOM      1  C   UNL d   1     -41.705-122.899 -50.754  0.00  0.00     0.206 A 
ATOM      2  O   UNL d   1     -41.589-123.536 -51.263  0.00  0.00    -0.253 OA
ATOM      3  C   UNL d   1     -41.339-123.234 -52.010  0.00  0.00     0.297 A 
ATOM      4  N   UNL d   1     -41.529-122.198 -51.178  0.00  0.00    -0.119 NA
ATOM      5  N   UNL d   1     -41.306-122.414 -51.944  0.00  0.00    -0.101 NA
ENDROOT
BRANCH   3   6
ATOM      6  N   UNL d   1     -41.167-123.676 -52.660  0.00  0.00    -0.165 NA
ATOM      7  C   UNL d   1     -41.300-123.361 -53.404  0.00  0.00     0.282 C 
ATOM      8  O   UNL d   1     -41.123-123.816 -54.080  0.00  0.00    -0.265 OA
BRANCH   7   9
ATOM      9  C   UNL d   1     -41.605-122.605 -53.499  0.00  0.00     0.063 C 
BRANCH   9  10
ATOM     10  C   UNL d   1     -41.853-122.341 -54.239  0.00  0.00     0.005 A 
ATOM     11  C   UNL d   1     -42.658-122.175 -54.375  0.00  0.00     0.003 A 
ATOM     12  C   UNL d   1     -42.896-121.911 -55.120  0.00  0.00     0.030 A 
ATOM     13  C   UNL d   1     -42.354-121.809 -55.727  0.00  0.00     0.140 A 
ATOM     14  C   UNL d   1     -41.557-121.972 -55.592  0.00  0.00     0.030 A 
ATOM     15  F   UNL d   1     -42.594-121.546 -56.464  0.00  0.00    -0.204 F 
ATOM     16  C   UNL d   1     -41.301-122.238 -54.851  0.00  0.00     0.003 A 
ENDBRANCH   9  10
ENDBRANCH   7   9
ENDBRANCH   3   6
BRANCH   1  17
ATOM     17  C   UNL d   1     -41.947-122.944 -49.980  0.00  0.00     0.043 A 
ATOM     18  C   UNL d   1     -42.714-122.670 -49.768  0.00  0.00     0.004 A 
ATOM     19  C   UNL d   1     -42.966-122.713 -48.986  0.00  0.00     0.000 A 
ATOM     20  C   UNL d   1     -43.211-122.360 -50.340  0.00  0.00     0.000 C 
ATOM     21  C   UNL d   1     -42.466-123.026 -48.403  0.00  0.00     0.000 A 
ATOM     22  C   UNL d   1     -41.706-123.296 -48.624  0.00  0.00     0.000 A 
ATOM     23  C   UNL d   1     -41.461-123.249 -49.415  0.00  0.00     0.004 A 
ATOM     24  C   UNL d   1     -41.191-123.611 -48.062  0.00  0.00     0.000 C 
ENDBRANCH   1  17
TORSDOF 4
ENDMDL
MODEL 2
REMARK VINA RESULT:      -6.0      1.017      1.297
REMARK  4 active torsions:
REMARK  status: ('A' for Active; 'I' for Inactive)
REMARK    1  A    between atoms: C_7  and  C_1 
REMARK    2  A    between atoms: N_6  and  C_3 
REMARK       I    between atoms: C_8  and  N_6 
REMARK    3  A    between atoms: C_12  and  C_8 
REMARK    4  A    between atoms: C_15  and  C_12 
ROOT
ATOM      1  C   UNL d   1     -41.666-123.000 -50.229  0.00  0.00     0.206 A 
ATOM      2  O   UNL d   1     -41.626-122.222 -50.495  0.00  0.00    -0.253 OA
ATOM      3  C   UNL d   1     -41.286-122.225 -51.267  0.00  0.00     0.297 A 
ATOM      4  N   UNL d   1     -41.353-123.492 -50.830  0.00  0.00    -0.119 NA
ATOM      5  N   UNL d   1     -41.123-123.008 -51.460  0.00  0.00    -0.101 NA
ENDROOT
BRANCH   3   6
ATOM      6  N   UNL d   1     -41.150-121.575 -51.722  0.00  0.00    -0.165 NA
ATOM      7  C   UNL d   1     -41.267-121.621 -52.531  0.00  0.00     0.282 C 
ATOM      8  O   UNL d   1     -41.128-120.949 -53.005  0.00  0.00    -0.265 OA
BRANCH   7   9
ATOM      9  C   UNL d   1     -41.521-122.316 -52.886  0.00  0.00     0.063 C 
BRANCH   9  10
ATOM     10  C   UNL d   1     -41.762-122.323 -53.674  0.00  0.00     0.005 A 
ATOM     11  C   UNL d   1     -41.301-122.714 -54.248  0.00  0.00     0.003 A 
ATOM     12  C   UNL d   1     -41.552-122.715 -55.035  0.00  0.00     0.030 A 
ATOM     13  C   UNL d   1     -42.244-122.339 -55.260  0.00  0.00     0.140 A 
ATOM     14  C   UNL d   1     -42.700-121.952 -54.691  0.00  0.00     0.030 A 
ATOM     15  F   UNL d   1     -42.489-122.342 -56.041  0.00  0.00    -0.204 F 
ATOM     16  C   UNL d   1     -42.464-121.941 -53.898  0.00  0.00     0.003 A 
ENDBRANCH   9  10
ENDBRANCH   7   9
ENDBRANCH   3   6
BRANCH   1  17
ATOM     17  C   UNL d   1     -41.958-123.245 -49.511  0.00  0.00     0.043 A 
ATOM     18  C   UNL d   1     -42.788-123.332 -49.409  0.00  0.00     0.004 A 
ATOM     19  C   UNL d   1     -43.091-123.579 -48.685  0.00  0.00     0.000 A 
ATOM     20  C   UNL d   1     -43.297-123.169 -50.028  0.00  0.00     0.000 C 
ATOM     21  C   UNL d   1     -42.579-123.745 -48.053  0.00  0.00     0.000 A 
ATOM     22  C   UNL d   1     -41.755-123.656 -48.166  0.00  0.00     0.000 A 
ATOM     23  C   UNL d   1     -41.460-123.405 -48.900  0.00  0.00     0.004 A 
ATOM     24  C   UNL d   1     -41.227-123.815 -47.552  0.00  0.00     0.000 C 
ENDBRANCH   1  17
TORSDOF 4
ENDMDL
MODEL 3
REMARK VINA RESULT:      -5.3      2.070      5.291
REMARK  4 active torsions:
REMARK  status: ('A' for Active; 'I' for Inactive)
REMARK    1  A    between atoms: C_7  and  C_1 
REMARK    2  A    between atoms: N_6  and  C_3 
REMARK       I    between atoms: C_8  and  N_6 
REMARK    3  A    between atoms: C_12  and  C_8 
REMARK    4  A    between atoms: C_15  and  C_12 
ROOT
ATOM      1  C   UNL d   1     -41.546-122.592 -53.215  0.00  0.00     0.206 A 
ATOM      2  O   UNL d   1     -41.438-121.965 -52.693  0.00  0.00    -0.253 OA
ATOM      3  C   UNL d   1     -41.265-122.282 -51.931  0.00  0.00     0.297 A 
ATOM      4  N   UNL d   1     -41.442-123.303 -52.784  0.00  0.00    -0.119 NA
ATOM      5  N   UNL d   1     -41.271-123.102 -52.001  0.00  0.00    -0.101 NA
ENDROOT
BRANCH   3   6
ATOM      6  N   UNL d   1     -41.123-121.853 -51.266  0.00  0.00    -0.165 NA
ATOM      7  C   UNL d   1     -41.387-122.134 -50.544  0.00  0.00     0.282 C 
ATOM      8  O   UNL d   1     -41.241-121.691 -49.852  0.00  0.00    -0.265 OA
BRANCH   7   9
ATOM      9  C   UNL d   1     -41.794-122.845 -50.486  0.00  0.00     0.063 C 
BRANCH   9  10
ATOM     10  C   UNL d   1     -42.117-123.088 -49.768  0.00  0.00     0.005 A 
ATOM     11  C   UNL d   1     -41.669-123.559 -49.247  0.00  0.00     0.003 A 
ATOM     12  C   UNL d   1     -42.002-123.797 -48.530  0.00  0.00     0.030 A 
ATOM     13  C   UNL d   1     -42.764-123.579 -48.324  0.00  0.00     0.140 A 
ATOM     14  C   UNL d   1     -43.208-123.113 -48.840  0.00  0.00     0.030 A 
ATOM     15  F   UNL d   1     -43.091-123.817 -47.612  0.00  0.00    -0.204 F 
ATOM     16  C   UNL d   1     -42.889-122.865 -49.563  0.00  0.00     0.003 A 
ENDBRANCH   9  10
ENDBRANCH   7   9
ENDBRANCH   3   6
BRANCH   1  17
ATOM     17  C   UNL d   1     -41.723-122.532 -54.006  0.00  0.00     0.043 A 
ATOM     18  C   UNL d   1     -41.507-123.155 -54.528  0.00  0.00     0.004 A 
ATOM     19  C   UNL d   1     -41.682-123.101 -55.330  0.00  0.00     0.000 A 
ATOM     20  C   UNL d   1     -41.123-123.817 -54.239  0.00  0.00     0.000 C 
ATOM     21  C   UNL d   1     -42.072-122.431 -55.628  0.00  0.00     0.000 A 
ATOM     22  C   UNL d   1     -42.282-121.817 -55.100  0.00  0.00     0.000 A 
ATOM     23  C   UNL d   1     -42.100-121.882 -54.293  0.00  0.00     0.004 A 
ATOM     24  C   UNL d   1     -42.669-121.142 -55.373  0.00  0.00     0.000 C 
ENDBRANCH   1  17
TORSDOF 4
ENDMDL
