MODEL 1
REMARK VINA RESULT:      18.8      0.000      0.000
REMARK  3 active torsions:
REMARK  status: ('A' for Active; 'I' for Inactive)
REMARK    1  A    between atoms: C_7  and  C_1 
REMARK    2  A    between atoms: N_5  and  C_9 
REMARK    3  A    between atoms: C_14  and  C_7 
ROOT
ATOM      1  C   UNL d   1      45.733 -16.767  44.123  0.00  0.00     0.139 A 
ATOM      2  C   UNL d   1      46.205 -17.838  43.485  0.00  0.00     0.064 A 
ATOM      3  C   UNL d   1      46.169 -17.464  44.219  0.00  0.00     0.220 A 
ATOM      4  C   UNL d   1      45.795 -17.378  42.934  0.00  0.00     0.106 A 
ATOM      5  O   UNL d   1      45.502 -16.713  43.332  0.00  0.00    -0.304 OA
ATOM      6  C   UNL d   1      45.745 -17.624  42.157  0.00  0.00     0.067 A 
ATOM      7  C   UNL d   1      46.563 -18.542  43.250  0.00  0.00     0.009 A 
ATOM      8  O   UNL d   1      46.504 -17.729  44.927  0.00  0.00    -0.284 OA
ATOM      9  C   UNL d   1      46.103 -18.330  41.922  0.00  0.00     0.198 A 
ATOM     10  C   UNL d   1      46.509 -18.785  42.467  0.00  0.00     0.042 A 
ATOM     11  O   UNL d   1      46.050 -18.575  41.136  0.00  0.00    -0.286 OA
ENDROOT
BRANCH   1  12
ATOM     12  C   UNL d   1      45.556 -16.218  44.714  0.00  0.00     0.028 C 
BRANCH  12  13
ATOM     13  C   UNL d   1      45.594 -15.404  44.558  0.00  0.00     0.002 A 
ATOM     14  C   UNL d   1      46.148 -14.945  44.954  0.00  0.00     0.002 A 
ATOM     15  C   UNL d   1      46.197 -14.138  44.809  0.00  0.00     0.024 A 
ATOM     16  C   UNL d   1      45.680 -13.784  44.257  0.00  0.00     0.127 A 
ATOM     17  C   UNL d   1      45.123 -14.250  43.860  0.00  0.00     0.024 A 
ATOM     18  C   UNL d   1      45.084 -15.063  44.015  0.00  0.00     0.002 A 
BRANCH  16  19
ATOM     19  N   UNL d   1      45.732 -12.970  44.114  0.00  0.00    -0.114 N 
ATOM     20  O   UNL d   1      45.290 -12.448  44.579  0.00  0.00    -0.532 OA
ATOM     21  O   UNL d   1      46.214 -12.673  43.519  0.00  0.00    -0.532 OA
ENDBRANCH  16  19
ENDBRANCH  12  13
ENDBRANCH   1  12
TORSDOF 3
ENDMDL
MODEL 2
REMARK VINA RESULT:      21.5      1.785      4.497
REMARK  3 active torsions:
REMARK  status: ('A' for Active; 'I' for Inactive)
REMARK    1  A    between atoms: C_7  and  C_1 
REMARK    2  A    between atoms: N_5  and  C_9 
REMARK    3  A    between atoms: C_14  and  C_7 
ROOT
ATOM      1  C   UNL d   1      46.102 -17.004  44.168  0.00  0.00     0.139 A 
ATOM      2  C   UNL d   1      45.329 -15.937  44.373  0.00  0.00     0.064 A 
ATOM      3  C   UNL d   1      45.382 -16.752  44.489  0.00  0.00     0.220 A 
ATOM      4  C   UNL d   1      46.012 -15.681  43.983  0.00  0.00     0.106 A 
ATOM      5  O   UNL d   1      46.491 -16.345  43.856  0.00  0.00    -0.304 OA
ATOM      6  C   UNL d   1      46.101 -14.891  43.800  0.00  0.00     0.067 A 
ATOM      7  C   UNL d   1      44.742 -15.396  44.577  0.00  0.00     0.009 A 
ATOM      8  O   UNL d   1      44.823 -17.238  44.857  0.00  0.00    -0.284 OA
ATOM      9  C   UNL d   1      45.513 -14.349  44.003  0.00  0.00     0.198 A 
ATOM     10  C   UNL d   1      44.838 -14.602  44.390  0.00  0.00     0.042 A 
ATOM     11  O   UNL d   1      45.608 -13.551  43.816  0.00  0.00    -0.286 OA
ENDROOT
BRANCH   1  12
ATOM     12  C   UNL d   1      46.387 -17.779  44.158  0.00  0.00     0.028 C 
BRANCH  12  13
ATOM     13  C   UNL d   1      46.429 -18.205  43.448  0.00  0.00     0.002 A 
ATOM     14  C   UNL d   1      46.307 -19.017  43.459  0.00  0.00     0.002 A 
ATOM     15  C   UNL d   1      46.345 -19.450  42.763  0.00  0.00     0.024 A 
ATOM     16  C   UNL d   1      46.509 -19.064  42.041  0.00  0.00     0.127 A 
ATOM     17  C   UNL d   1      46.631 -18.245  42.034  0.00  0.00     0.024 A 
ATOM     18  C   UNL d   1      46.590 -17.819  42.743  0.00  0.00     0.002 A 
BRANCH  16  19
ATOM     19  N   UNL d   1      46.547 -19.505  41.341  0.00  0.00    -0.114 N 
ATOM     20  O   UNL d   1      46.645 -19.111  40.620  0.00  0.00    -0.532 OA
ATOM     21  O   UNL d   1      46.488 -20.323  41.351  0.00  0.00    -0.532 OA
ENDBRANCH  16  19
ENDBRANCH  12  13
ENDBRANCH   1  12
TORSDOF 3
ENDMDL
