MODEL 1
REMARK VINA RESULT:      -8.0      0.000      0.000
REMARK  3 active torsions:
REMARK  status: ('A' for Active; 'I' for Inactive)
REMARK    1  A    between atoms: C_11  and  N_2 
REMARK    2  A    between atoms: C_16  and  C_6 
REMARK    3  A    between atoms: C_12  and  C_11 
ROOT
ATOM      1  C   UNL d   1     -47.286  13.081  22.963  0.00  0.00     0.137 A 
ATOM      2  N   UNL d   1     -48.629  13.446  23.288  0.00  0.00    -0.256 N 
ATOM      3  C   UNL d   1     -47.152  13.839  22.654  0.00  0.00     0.192 A 
ATOM      4  C   UNL d   1     -48.026  12.885  23.280  0.00  0.00     0.272 A 
ATOM      5  N   UNL d   1     -47.753  14.399  22.661  0.00  0.00    -0.204 NA
ATOM      6  C   UNL d   1     -48.498  14.205  22.979  0.00  0.00     0.152 A 
ATOM      7  C   UNL d   1     -46.678  12.519  22.954  0.00  0.00     0.205 A 
ATOM      8  O   UNL d   1     -46.415  14.028  22.340  0.00  0.00    -0.289 OA
ATOM      9  C   UNL d   1     -45.949  12.710  22.643  0.00  0.00     0.062 A 
ATOM     10  C   UNL d   1     -45.811  13.462  22.334  0.00  0.00     0.105 A 
ATOM     11  O   UNL d   1     -48.155  12.130  23.587  0.00  0.00    -0.266 OA
ATOM     12  O   UNL d   1     -46.816  11.767  23.263  0.00  0.00    -0.286 OA
ATOM     13  C   UNL d   1     -45.341  12.144  22.635  0.00  0.00     0.005 A 
ATOM     14  C   UNL d   1     -45.064  13.656  22.015  0.00  0.00     0.025 A 
ATOM     15  C   UNL d   1     -44.603  12.339  22.319  0.00  0.00     0.000 A 
ATOM     16  C   UNL d   1     -44.465  13.093  22.010  0.00  0.00     0.002 A 
ENDROOT
BRANCH   2  17
ATOM     17  C   UNL d   1     -49.356  13.248  23.602  0.00  0.00     0.109 C 
BRANCH  17  18
ATOM     18  C   UNL d   1     -49.789  12.623  23.281  0.00  0.00     0.118 A 
ATOM     19  O   UNL d   1     -49.842  12.438  22.481  0.00  0.00    -0.304 OA
ATOM     20  C   UNL d   1     -50.325  11.782  22.408  0.00  0.00     0.123 A 
ATOM     21  C   UNL d   1     -50.571  11.560  23.164  0.00  0.00     0.029 A 
ATOM     22  C   UNL d   1     -50.239  12.080  23.698  0.00  0.00     0.028 A 
ENDBRANCH  17  18
ENDBRANCH   2  17
BRANCH   6  23
ATOM     23  C   UNL d   1     -49.102  14.770  22.985  0.00  0.00     0.035 A 
ATOM     24  C   UNL d   1     -49.336  15.126  23.692  0.00  0.00     0.003 A 
ATOM     25  C   UNL d   1     -49.935  15.686  23.698  0.00  0.00     0.000 A 
ATOM     26  C   UNL d   1     -50.307  15.895  22.989  0.00  0.00     0.000 A 
ATOM     27  C   UNL d   1     -50.074  15.539  22.282  0.00  0.00     0.000 A 
ATOM     28  C   UNL d   1     -49.473  14.977  22.272  0.00  0.00     0.003 A 
ENDBRANCH   6  23
TORSDOF 3
ENDMDL
MODEL 2
REMARK VINA RESULT:      -6.5      1.433      2.746
REMARK  3 active torsions:
REMARK  status: ('A' for Active; 'I' for Inactive)
REMARK    1  A    between atoms: C_11  and  N_2 
REMARK    2  A    between atoms: C_16  and  C_6 
REMARK    3  A    between atoms: C_12  and  C_11 
ROOT
ATOM      1  C   UNL d   1     -46.959  12.169  23.321  0.00  0.00     0.137 A 
ATOM      2  N   UNL d   1     -48.187  12.886  23.180  0.00  0.00    -0.256 N 
ATOM      3  C   UNL d   1     -47.370  11.450  23.282  0.00  0.00     0.192 A 
ATOM      4  C   UNL d   1     -47.368  12.887  23.270  0.00  0.00     0.272 A 
ATOM      5  N   UNL d   1     -48.187  11.447  23.192  0.00  0.00    -0.204 NA
ATOM      6  C   UNL d   1     -48.602  12.168  23.140  0.00  0.00     0.152 A 
ATOM      7  C   UNL d   1     -46.136  12.168  23.412  0.00  0.00     0.205 A 
ATOM      8  O   UNL d   1     -46.958  10.740  23.333  0.00  0.00    -0.289 OA
ATOM      9  C   UNL d   1     -45.730  11.462  23.462  0.00  0.00     0.062 A 
ATOM     10  C   UNL d   1     -46.135  10.745  23.423  0.00  0.00     0.105 A 
ATOM     11  O   UNL d   1     -46.955  13.600  23.310  0.00  0.00    -0.266 OA
ATOM     12  O   UNL d   1     -45.730  12.885  23.451  0.00  0.00    -0.286 OA
ATOM     13  C   UNL d   1     -44.904  11.465  23.553  0.00  0.00     0.005 A 
ATOM     14  C   UNL d   1     -45.719  10.023  23.475  0.00  0.00     0.025 A 
ATOM     15  C   UNL d   1     -44.496  10.748  23.604  0.00  0.00     0.000 A 
ATOM     16  C   UNL d   1     -44.902  10.029  23.565  0.00  0.00     0.002 A 
ENDROOT
BRANCH   2  17
ATOM     17  C   UNL d   1     -48.586  13.597  23.131  0.00  0.00     0.109 C 
BRANCH  17  18
ATOM     18  C   UNL d   1     -48.334  14.176  22.600  0.00  0.00     0.118 A 
ATOM     19  O   UNL d   1     -48.234  14.073  21.790  0.00  0.00    -0.304 OA
ATOM     20  C   UNL d   1     -47.979  14.785  21.478  0.00  0.00     0.123 A 
ATOM     21  C   UNL d   1     -47.921  15.330  22.095  0.00  0.00     0.029 A 
ATOM     22  C   UNL d   1     -48.140  14.950  22.784  0.00  0.00     0.028 A 
ENDBRANCH  17  18
ENDBRANCH   2  17
BRANCH   6  23
ATOM     23  C   UNL d   1     -49.424  12.164  23.050  0.00  0.00     0.035 A 
ATOM     24  C   UNL d   1     -49.918  12.297  23.697  0.00  0.00     0.003 A 
ATOM     25  C   UNL d   1     -50.733  12.293  23.606  0.00  0.00     0.000 A 
ATOM     26  C   UNL d   1     -51.062  12.153  22.860  0.00  0.00     0.000 A 
ATOM     27  C   UNL d   1     -50.568  12.020  22.212  0.00  0.00     0.000 A 
ATOM     28  C   UNL d   1     -49.750  12.023  22.299  0.00  0.00     0.003 A 
ENDBRANCH   6  23
TORSDOF 3
ENDMDL
MODEL 3
REMARK VINA RESULT:      -6.4      7.431      9.922
REMARK  3 active torsions:
REMARK  status: ('A' for Active; 'I' for Inactive)
REMARK    1  A    between atoms: C_11  and  N_2 
REMARK    2  A    between atoms: C_16  and  C_6 
REMARK    3  A    between atoms: C_12  and  C_11 
ROOT
ATOM      1  C   UNL d   1     -39.078  14.533  18.878  0.00  0.00     0.137 A 
ATOM      2  N   UNL d   1     -39.282  14.843  20.258  0.00  0.00    -0.256 N 
ATOM      3  C   UNL d   1     -38.518  13.958  19.086  0.00  0.00     0.192 A 
ATOM      4  C   UNL d   1     -39.460  14.975  19.465  0.00  0.00     0.272 A 
ATOM      5  N   UNL d   1     -38.339  13.825  19.877  0.00  0.00    -0.204 NA
ATOM      6  C   UNL d   1     -38.722  14.268  20.471  0.00  0.00     0.152 A 
ATOM      7  C   UNL d   1     -39.256  14.664  18.080  0.00  0.00     0.205 A 
ATOM      8  O   UNL d   1     -38.141  13.521  18.499  0.00  0.00    -0.289 OA
ATOM      9  C   UNL d   1     -38.881  14.230  17.500  0.00  0.00     0.062 A 
ATOM     10  C   UNL d   1     -38.323  13.657  17.703  0.00  0.00     0.105 A 
ATOM     11  O   UNL d   1     -40.017  15.546  19.253  0.00  0.00    -0.266 OA
ATOM     12  O   UNL d   1     -39.814  15.236  17.876  0.00  0.00    -0.286 OA
ATOM     13  C   UNL d   1     -39.061  14.364  16.700  0.00  0.00     0.005 A 
ATOM     14  C   UNL d   1     -37.940  13.213  17.109  0.00  0.00     0.025 A 
ATOM     15  C   UNL d   1     -38.680  13.922  16.115  0.00  0.00     0.000 A 
ATOM     16  C   UNL d   1     -38.121  13.349  16.318  0.00  0.00     0.002 A 
ENDROOT
BRANCH   2  17
ATOM     17  C   UNL d   1     -39.662  15.282  20.832  0.00  0.00     0.109 C 
BRANCH  17  18
ATOM     18  C   UNL d   1     -40.485  15.278  20.879  0.00  0.00     0.118 A 
ATOM     19  O   UNL d   1     -40.968  14.621  20.770  0.00  0.00    -0.304 OA
ATOM     20  C   UNL d   1     -41.743  14.863  20.865  0.00  0.00     0.123 A 
ATOM     21  C   UNL d   1     -41.741  15.671  21.034  0.00  0.00     0.029 A 
ATOM     22  C   UNL d   1     -40.964  15.922  21.042  0.00  0.00     0.028 A 
ENDBRANCH  17  18
ENDBRANCH   2  17
BRANCH   6  23
ATOM     23  C   UNL d   1     -38.541  14.133  21.266  0.00  0.00     0.035 A 
ATOM     24  C   UNL d   1     -38.120  14.694  21.701  0.00  0.00     0.003 A 
ATOM     25  C   UNL d   1     -37.941  14.559  22.490  0.00  0.00     0.000 A 
ATOM     26  C   UNL d   1     -38.185  13.856  22.852  0.00  0.00     0.000 A 
ATOM     27  C   UNL d   1     -38.607  13.296  22.417  0.00  0.00     0.000 A 
ATOM     28  C   UNL d   1     -38.788  13.427  21.625  0.00  0.00     0.003 A 
ENDBRANCH   6  23
TORSDOF 3
ENDMDL
MODEL 4
REMARK VINA RESULT:      -6.3      0.896      2.438
REMARK  3 active torsions:
REMARK  status: ('A' for Active; 'I' for Inactive)
REMARK    1  A    between atoms: C_11  and  N_2 
REMARK    2  A    between atoms: C_16  and  C_6 
REMARK    3  A    between atoms: C_12  and  C_11 
ROOT
ATOM      1  C   UNL d   1     -47.129  13.639  22.680  0.00  0.00     0.137 A 
ATOM      2  N   UNL d   1     -48.501  13.613  23.079  0.00  0.00    -0.256 N 
ATOM      3  C   UNL d   1     -47.185  12.853  22.423  0.00  0.00     0.192 A 
ATOM      4  C   UNL d   1     -47.788  14.019  23.008  0.00  0.00     0.272 A 
ATOM      5  N   UNL d   1     -47.896  12.447  22.493  0.00  0.00    -0.204 NA
ATOM      6  C   UNL d   1     -48.561  12.825  22.823  0.00  0.00     0.152 A 
ATOM      7  C   UNL d   1     -46.411  14.046  22.608  0.00  0.00     0.205 A 
ATOM      8  O   UNL d   1     -46.527  12.481  22.098  0.00  0.00    -0.289 OA
ATOM      9  C   UNL d   1     -45.761  13.674  22.285  0.00  0.00     0.062 A 
ATOM     10  C   UNL d   1     -45.812  12.892  22.029  0.00  0.00     0.105 A 
ATOM     11  O   UNL d   1     -47.728  14.801  23.263  0.00  0.00    -0.266 OA
ATOM     12  O   UNL d   1     -46.359  14.828  22.865  0.00  0.00    -0.286 OA
ATOM     13  C   UNL d   1     -45.042  14.084  22.214  0.00  0.00     0.005 A 
ATOM     14  C   UNL d   1     -45.146  12.512  21.698  0.00  0.00     0.025 A 
ATOM     15  C   UNL d   1     -44.384  13.705  21.887  0.00  0.00     0.000 A 
ATOM     16  C   UNL d   1     -44.436  12.922  21.630  0.00  0.00     0.002 A 
ENDROOT
BRANCH   2  17
ATOM     17  C   UNL d   1     -49.148  13.992  23.403  0.00  0.00     0.109 C 
BRANCH  17  18
ATOM     18  C   UNL d   1     -49.428  14.692  23.068  0.00  0.00     0.118 A 
ATOM     19  O   UNL d   1     -49.521  14.833  22.263  0.00  0.00    -0.304 OA
ATOM     20  C   UNL d   1     -49.812  15.593  22.176  0.00  0.00     0.123 A 
ATOM     21  C   UNL d   1     -49.899  15.922  22.927  0.00  0.00     0.029 A 
ATOM     22  C   UNL d   1     -49.662  15.363  23.474  0.00  0.00     0.028 A 
ENDBRANCH  17  18
ENDBRANCH   2  17
BRANCH   6  23
ATOM     23  C   UNL d   1     -49.276  12.415  22.893  0.00  0.00     0.035 A 
ATOM     24  C   UNL d   1     -49.537  12.152  23.630  0.00  0.00     0.003 A 
ATOM     25  C   UNL d   1     -50.247  11.745  23.698  0.00  0.00     0.000 A 
ATOM     26  C   UNL d   1     -50.702  11.598  23.023  0.00  0.00     0.000 A 
ATOM     27  C   UNL d   1     -50.440  11.861  22.286  0.00  0.00     0.000 A 
ATOM     28  C   UNL d   1     -49.729  12.270  22.213  0.00  0.00     0.003 A 
ENDBRANCH   6  23
TORSDOF 3
ENDMDL
MODEL 5
REMARK VINA RESULT:      -5.5      8.975     10.336
REMARK  3 active torsions:
REMARK  status: ('A' for Active; 'I' for Inactive)
REMARK    1  A    between atoms: C_11  and  N_2 
REMARK    2  A    between atoms: C_16  and  C_6 
REMARK    3  A    between atoms: C_12  and  C_11 
ROOT
ATOM      1  C   UNL d   1     -39.220  14.958  19.664  0.00  0.00     0.137 A 
ATOM      2  N   UNL d   1     -39.261  14.965  18.235  0.00  0.00    -0.256 N 
ATOM      3  C   UNL d   1     -38.682  14.328  19.649  0.00  0.00     0.192 A 
ATOM      4  C   UNL d   1     -39.510  15.276  18.956  0.00  0.00     0.272 A 
ATOM      5  N   UNL d   1     -38.433  14.016  18.931  0.00  0.00    -0.204 NA
ATOM      6  C   UNL d   1     -38.722  14.334  18.216  0.00  0.00     0.152 A 
ATOM      7  C   UNL d   1     -39.469  15.270  20.390  0.00  0.00     0.205 A 
ATOM      8  O   UNL d   1     -38.398  14.015  20.355  0.00  0.00    -0.289 OA
ATOM      9  C   UNL d   1     -39.186  14.958  21.088  0.00  0.00     0.062 A 
ATOM     10  C   UNL d   1     -38.650  14.331  21.078  0.00  0.00     0.105 A 
ATOM     11  O   UNL d   1     -40.045  15.904  18.976  0.00  0.00    -0.266 OA
ATOM     12  O   UNL d   1     -40.005  15.897  20.400  0.00  0.00    -0.286 OA
ATOM     13  C   UNL d   1     -39.437  15.273  21.814  0.00  0.00     0.005 A 
ATOM     14  C   UNL d   1     -38.361  14.012  21.793  0.00  0.00     0.025 A 
ATOM     15  C   UNL d   1     -39.148  14.955  22.521  0.00  0.00     0.000 A 
ATOM     16  C   UNL d   1     -38.612  14.327  22.510  0.00  0.00     0.002 A 
ENDROOT
BRANCH   2  17
ATOM     17  C   UNL d   1     -39.549  15.283  17.541  0.00  0.00     0.109 C 
BRANCH  17  18
ATOM     18  C   UNL d   1     -40.363  15.322  17.410  0.00  0.00     0.118 A 
ATOM     19  O   UNL d   1     -40.914  14.762  17.652  0.00  0.00    -0.304 OA
ATOM     20  C   UNL d   1     -41.652  15.018  17.409  0.00  0.00     0.123 A 
ATOM     21  C   UNL d   1     -41.558  15.737  17.017  0.00  0.00     0.029 A 
ATOM     22  C   UNL d   1     -40.763  15.921  17.020  0.00  0.00     0.028 A 
ENDBRANCH  17  18
ENDBRANCH   2  17
BRANCH   6  23
ATOM     23  C   UNL d   1     -38.471  14.019  17.494  0.00  0.00     0.035 A 
ATOM     24  C   UNL d   1     -38.189  14.513  16.897  0.00  0.00     0.003 A 
ATOM     25  C   UNL d   1     -37.940  14.200  16.181  0.00  0.00     0.000 A 
ATOM     26  C   UNL d   1     -37.971  13.382  16.058  0.00  0.00     0.000 A 
ATOM     27  C   UNL d   1     -38.253  12.888  16.655  0.00  0.00     0.000 A 
ATOM     28  C   UNL d   1     -38.504  13.198  17.375  0.00  0.00     0.003 A 
ENDBRANCH   6  23
TORSDOF 3
ENDMDL
