MODEL 1
REMARK VINA RESULT:      -8.7      0.000      0.000
REMARK  4 active torsions:
REMARK  status: ('A' for Active; 'I' for Inactive)
REMARK    1  A    between atoms: N_2  and  C_1 
REMARK       I    between atoms: C_4  and  N_2 
REMARK    2  A    between atoms: C_11  and  C_4 
REMARK    3  A    between atoms: C_7  and  C_5 
REMARK    4  A    between atoms: C_9  and  C_7 
REMARK       I    between atoms: N_13  and  C_9 
ROOT
ATOM      1  C   UNL d   1      52.925  31.925  53.509  0.00  0.00     0.197 A 
ATOM      2  N   UNL d   1      53.340  31.324  53.876  0.00  0.00    -0.220 NA
ATOM      3  C   UNL d   1      53.315  30.666  53.396  0.00  0.00     0.095 A 
ATOM      4  S   UNL d   1      52.639  31.639  52.791  0.00  0.00    -0.046 SA
ATOM      5  C   UNL d   1      52.880  30.859  52.719  0.00  0.00     0.058 A 
ENDROOT
BRANCH   1   6
ATOM      6  N   UNL d   1      52.811  32.685  53.800  0.00  0.00    -0.183 NA
ATOM      7  C   UNL d   1      53.387  33.267  53.684  0.00  0.00     0.281 C 
ATOM      8  O   UNL d   1      54.080  33.076  53.272  0.00  0.00    -0.265 OA
BRANCH   7   9
ATOM      9  C   UNL d   1      53.273  34.024  53.974  0.00  0.00     0.058 A 
ATOM     10  C   UNL d   1      52.886  34.583  53.507  0.00  0.00     0.005 A 
ATOM     11  C   UNL d   1      52.772  35.344  53.800  0.00  0.00     0.000 A 
ATOM     12  C   UNL d   1      53.040  35.546  54.547  0.00  0.00     0.000 A 
ATOM     13  C   UNL d   1      53.430  34.983  55.016  0.00  0.00     0.000 A 
ATOM     14  C   UNL d   1      53.544  34.218  54.722  0.00  0.00     0.005 A 
ENDBRANCH   7   9
ENDBRANCH   1   6
BRANCH   3  15
ATOM     15  C   UNL d   1      53.663  29.934  53.553  0.00  0.00     0.084 C 
BRANCH  15  16
ATOM     16  C   UNL d   1      53.227  29.344  53.936  0.00  0.00     0.306 C 
ATOM     17  O   UNL d   1      52.534  29.060  53.593  0.00  0.00    -0.263 OA
ATOM     18  N   UNL d   1      53.490  29.047  54.652  0.00  0.00    -0.053 NA
ATOM     19  O   UNL d   1      53.060  28.457  55.041  0.00  0.00    -0.058 OA
ENDBRANCH  15  16
ENDBRANCH   3  15
TORSDOF 4
ENDMDL
MODEL 2
REMARK VINA RESULT:      -8.4      1.738      4.669
REMARK  4 active torsions:
REMARK  status: ('A' for Active; 'I' for Inactive)
REMARK    1  A    between atoms: N_2  and  C_1 
REMARK       I    between atoms: C_4  and  N_2 
REMARK    2  A    between atoms: C_11  and  C_4 
REMARK    3  A    between atoms: C_7  and  C_5 
REMARK    4  A    between atoms: C_9  and  C_7 
REMARK       I    between atoms: N_13  and  C_9 
ROOT
ATOM      1  C   UNL d   1      52.569  33.158  53.575  0.00  0.00     0.197 A 
ATOM      2  N   UNL d   1      53.110  33.707  53.843  0.00  0.00    -0.220 NA
ATOM      3  C   UNL d   1      52.868  34.446  53.598  0.00  0.00     0.095 A 
ATOM      4  S   UNL d   1      51.983  33.557  53.157  0.00  0.00    -0.046 SA
ATOM      5  C   UNL d   1      52.165  34.355  53.170  0.00  0.00     0.058 A 
ENDROOT
BRANCH   1   6
ATOM      6  N   UNL d   1      52.600  32.345  53.697  0.00  0.00    -0.183 NA
ATOM      7  C   UNL d   1      53.033  31.862  53.184  0.00  0.00     0.281 C 
ATOM      8  O   UNL d   1      53.435  32.206  52.546  0.00  0.00    -0.265 OA
BRANCH   7   9
ATOM      9  C   UNL d   1      53.064  31.053  53.306  0.00  0.00     0.058 A 
ATOM     10  C   UNL d   1      53.618  30.744  53.833  0.00  0.00     0.005 A 
ATOM     11  C   UNL d   1      53.648  29.931  53.954  0.00  0.00     0.000 A 
ATOM     12  C   UNL d   1      53.135  29.431  53.557  0.00  0.00     0.000 A 
ATOM     13  C   UNL d   1      52.577  29.744  53.027  0.00  0.00     0.000 A 
ATOM     14  C   UNL d   1      52.547  30.562  52.905  0.00  0.00     0.005 A 
ENDBRANCH   7   9
ENDBRANCH   1   6
BRANCH   3  15
ATOM     15  C   UNL d   1      53.253  35.161  53.748  0.00  0.00     0.084 C 
BRANCH  15  16
ATOM     16  C   UNL d   1      53.140  35.546  54.471  0.00  0.00     0.306 C 
ATOM     17  O   UNL d   1      53.306  35.151  55.175  0.00  0.00    -0.263 OA
ATOM     18  N   UNL d   1      52.866  36.317  54.481  0.00  0.00    -0.053 NA
ATOM     19  O   UNL d   1      52.751  36.709  55.201  0.00  0.00    -0.058 OA
ENDBRANCH  15  16
ENDBRANCH   3  15
TORSDOF 4
ENDMDL
MODEL 3
REMARK VINA RESULT:      -8.4      1.590      1.906
REMARK  4 active torsions:
REMARK  status: ('A' for Active; 'I' for Inactive)
REMARK    1  A    between atoms: N_2  and  C_1 
REMARK       I    between atoms: C_4  and  N_2 
REMARK    2  A    between atoms: C_11  and  C_4 
REMARK    3  A    between atoms: C_7  and  C_5 
REMARK    4  A    between atoms: C_9  and  C_7 
REMARK       I    between atoms: N_13  and  C_9 
ROOT
ATOM      1  C   UNL d   1      52.892  31.844  53.046  0.00  0.00     0.197 A 
ATOM      2  N   UNL d   1      52.836  31.030  53.008  0.00  0.00    -0.220 NA
ATOM      3  C   UNL d   1      53.486  30.711  53.380  0.00  0.00     0.095 A 
ATOM      4  S   UNL d   1      53.586  32.035  53.447  0.00  0.00    -0.046 SA
ATOM      5  C   UNL d   1      53.955  31.335  53.655  0.00  0.00     0.058 A 
ENDROOT
BRANCH   1   6
ATOM      6  N   UNL d   1      52.353  32.384  52.739  0.00  0.00    -0.183 NA
ATOM      7  C   UNL d   1      52.020  32.963  53.226  0.00  0.00     0.281 C 
ATOM      8  O   UNL d   1      52.235  32.994  54.026  0.00  0.00    -0.265 OA
BRANCH   7   9
ATOM      9  C   UNL d   1      51.483  33.501  52.921  0.00  0.00     0.058 A 
ATOM     10  C   UNL d   1      50.738  33.570  53.269  0.00  0.00     0.005 A 
ATOM     11  C   UNL d   1      50.199  34.111  52.961  0.00  0.00     0.000 A 
ATOM     12  C   UNL d   1      50.398  34.576  52.317  0.00  0.00     0.000 A 
ATOM     13  C   UNL d   1      51.148  34.505  51.969  0.00  0.00     0.000 A 
ATOM     14  C   UNL d   1      51.690  33.962  52.278  0.00  0.00     0.005 A 
ENDBRANCH   7   9
ENDBRANCH   1   6
BRANCH   3  15
ATOM     15  C   UNL d   1      53.652  29.907  53.470  0.00  0.00     0.084 C 
BRANCH  15  16
ATOM     16  C   UNL d   1      53.138  29.426  53.904  0.00  0.00     0.306 C 
ATOM     17  O   UNL d   1      52.396  29.239  53.597  0.00  0.00    -0.263 OA
ATOM     18  N   UNL d   1      53.372  29.138  54.634  0.00  0.00    -0.053 NA
ATOM     19  O   UNL d   1      52.863  28.656  55.074  0.00  0.00    -0.058 OA
ENDBRANCH  15  16
ENDBRANCH   3  15
TORSDOF 4
ENDMDL
MODEL 4
REMARK VINA RESULT:      -8.2      2.681      3.560
REMARK  4 active torsions:
REMARK  status: ('A' for Active; 'I' for Inactive)
REMARK    1  A    between atoms: N_2  and  C_1 
REMARK       I    between atoms: C_4  and  N_2 
REMARK    2  A    between atoms: C_11  and  C_4 
REMARK    3  A    between atoms: C_7  and  C_5 
REMARK    4  A    between atoms: C_9  and  C_7 
REMARK       I    between atoms: N_13  and  C_9 
ROOT
ATOM      1  C   UNL d   1      52.644  32.981  53.552  0.00  0.00     0.197 A 
ATOM      2  N   UNL d   1      52.930  33.151  54.298  0.00  0.00    -0.220 NA
ATOM      3  C   UNL d   1      53.679  32.837  54.363  0.00  0.00     0.095 A 
ATOM      4  S   UNL d   1      53.222  32.556  53.146  0.00  0.00    -0.046 SA
ATOM      5  C   UNL d   1      53.863  32.466  53.646  0.00  0.00     0.058 A 
ENDROOT
BRANCH   1   6
ATOM      6  N   UNL d   1      51.909  33.194  53.252  0.00  0.00    -0.183 NA
ATOM      7  C   UNL d   1      51.807  33.925  52.880  0.00  0.00     0.281 C 
ATOM      8  O   UNL d   1      52.453  34.440  52.811  0.00  0.00    -0.265 OA
BRANCH   7   9
ATOM      9  C   UNL d   1      51.075  34.138  52.581  0.00  0.00     0.058 A 
ATOM     10  C   UNL d   1      50.492  34.413  53.097  0.00  0.00     0.005 A 
ATOM     11  C   UNL d   1      49.756  34.626  52.796  0.00  0.00     0.000 A 
ATOM     12  C   UNL d   1      49.602  34.568  51.994  0.00  0.00     0.000 A 
ATOM     13  C   UNL d   1      50.189  34.291  51.476  0.00  0.00     0.000 A 
ATOM     14  C   UNL d   1      50.929  34.076  51.778  0.00  0.00     0.005 A 
ENDBRANCH   7   9
ENDBRANCH   1   6
BRANCH   3  15
ATOM     15  C   UNL d   1      54.171  32.879  55.025  0.00  0.00     0.084 C 
BRANCH  15  16
ATOM     16  C   UNL d   1      54.529  33.597  55.227  0.00  0.00     0.306 C 
ATOM     17  O   UNL d   1      54.080  34.194  55.576  0.00  0.00    -0.263 OA
ATOM     18  N   UNL d   1      55.327  33.707  55.080  0.00  0.00    -0.053 NA
ATOM     19  O   UNL d   1      55.692  34.422  55.280  0.00  0.00    -0.058 OA
ENDBRANCH  15  16
ENDBRANCH   3  15
TORSDOF 4
ENDMDL
MODEL 5
REMARK VINA RESULT:      -7.6      2.432      4.687
REMARK  4 active torsions:
REMARK  status: ('A' for Active; 'I' for Inactive)
REMARK    1  A    between atoms: N_2  and  C_1 
REMARK       I    between atoms: C_4  and  N_2 
REMARK    2  A    between atoms: C_11  and  C_4 
REMARK    3  A    between atoms: C_7  and  C_5 
REMARK    4  A    between atoms: C_9  and  C_7 
REMARK       I    between atoms: N_13  and  C_9 
ROOT
ATOM      1  C   UNL d   1      51.893  33.170  53.334  0.00  0.00     0.197 A 
ATOM      2  N   UNL d   1      51.102  33.332  53.213  0.00  0.00    -0.220 NA
ATOM      3  C   UNL d   1      51.031  34.116  53.001  0.00  0.00     0.095 A 
ATOM      4  S   UNL d   1      52.321  33.861  53.196  0.00  0.00    -0.046 SA
ATOM      5  C   UNL d   1      51.789  34.447  52.989  0.00  0.00     0.058 A 
ENDROOT
BRANCH   1   6
ATOM      6  N   UNL d   1      52.213  32.446  53.556  0.00  0.00    -0.183 NA
ATOM      7  C   UNL d   1      52.592  31.969  52.997  0.00  0.00     0.281 C 
ATOM      8  O   UNL d   1      52.647  32.229  52.211  0.00  0.00    -0.265 OA
BRANCH   7   9
ATOM      9  C   UNL d   1      52.911  31.248  53.217  0.00  0.00     0.058 A 
ATOM     10  C   UNL d   1      53.599  31.231  53.672  0.00  0.00     0.005 A 
ATOM     11  C   UNL d   1      53.918  30.505  53.892  0.00  0.00     0.000 A 
ATOM     12  C   UNL d   1      53.558  29.806  53.664  0.00  0.00     0.000 A 
ATOM     13  C   UNL d   1      52.865  29.824  53.207  0.00  0.00     0.000 A 
ATOM     14  C   UNL d   1      52.544  30.554  52.985  0.00  0.00     0.005 A 
ENDBRANCH   7   9
ENDBRANCH   1   6
BRANCH   3  15
ATOM     15  C   UNL d   1      50.328  34.513  52.827  0.00  0.00     0.084 C 
BRANCH  15  16
ATOM     16  C   UNL d   1      50.015  34.483  52.062  0.00  0.00     0.306 C 
ATOM     17  O   UNL d   1      50.519  34.386  51.418  0.00  0.00    -0.263 OA
ATOM     18  N   UNL d   1      49.206  34.551  51.952  0.00  0.00    -0.053 NA
ATOM     19  O   UNL d   1      48.886  34.522  51.190  0.00  0.00    -0.058 OA
ENDBRANCH  15  16
ENDBRANCH   3  15
TORSDOF 4
ENDMDL
MODEL 6
REMARK VINA RESULT:      -7.3      2.828      4.413
REMARK  4 active torsions:
REMARK  status: ('A' for Active; 'I' for Inactive)
REMARK    1  A    between atoms: N_2  and  C_1 
REMARK       I    between atoms: C_4  and  N_2 
REMARK    2  A    between atoms: C_11  and  C_4 
REMARK    3  A    between atoms: C_7  and  C_5 
REMARK    4  A    between atoms: C_9  and  C_7 
REMARK       I    between atoms: N_13  and  C_9 
ROOT
ATOM      1  C   UNL d   1      51.896  34.194  53.033  0.00  0.00     0.197 A 
ATOM      2  N   UNL d   1      51.146  34.200  53.357  0.00  0.00    -0.220 NA
ATOM      3  C   UNL d   1      50.605  34.203  52.748  0.00  0.00     0.095 A 
ATOM      4  S   UNL d   1      51.822  34.193  52.213  0.00  0.00    -0.046 SA
ATOM      5  C   UNL d   1      51.023  34.199  52.034  0.00  0.00     0.058 A 
ENDROOT
BRANCH   1   6
ATOM      6  N   UNL d   1      52.606  34.189  53.450  0.00  0.00    -0.183 NA
ATOM      7  C   UNL d   1      52.933  33.475  53.707  0.00  0.00     0.281 C 
ATOM      8  O   UNL d   1      52.539  32.765  53.542  0.00  0.00    -0.265 OA
BRANCH   7   9
ATOM      9  C   UNL d   1      53.639  33.471  54.122  0.00  0.00     0.058 A 
ATOM     10  C   UNL d   1      53.668  33.805  54.875  0.00  0.00     0.005 A 
ATOM     11  C   UNL d   1      54.379  33.799  55.291  0.00  0.00     0.000 A 
ATOM     12  C   UNL d   1      55.051  33.466  54.962  0.00  0.00     0.000 A 
ATOM     13  C   UNL d   1      55.020  33.131  54.203  0.00  0.00     0.000 A 
ATOM     14  C   UNL d   1      54.306  33.136  53.785  0.00  0.00     0.005 A 
ENDBRANCH   7   9
ENDBRANCH   1   6
BRANCH   3  15
ATOM     15  C   UNL d   1      49.783  34.209  52.826  0.00  0.00     0.084 C 
BRANCH  15  16
ATOM     16  C   UNL d   1      49.358  34.901  52.669  0.00  0.00     0.306 C 
ATOM     17  O   UNL d   1      49.159  35.090  51.892  0.00  0.00    -0.263 OA
ATOM     18  N   UNL d   1      49.139  35.391  53.287  0.00  0.00    -0.053 NA
ATOM     19  O   UNL d   1      48.715  36.085  53.137  0.00  0.00    -0.058 OA
ENDBRANCH  15  16
ENDBRANCH   3  15
TORSDOF 4
ENDMDL
