MODEL 1
REMARK VINA RESULT:      -7.4      0.000      0.000
REMARK  10 active torsions:
REMARK  status: ('A' for Active; 'I' for Inactive)
REMARK    1  A    between atoms: C_11  and  C_1 
REMARK    2  A    between atoms: C_21  and  N_5 
REMARK    3  A    between atoms: N_20  and  C_8 
REMARK    4  A    between atoms: C_9  and  C_11 
REMARK    5  A    between atoms: C_25  and  N_20 
REMARK    6  A    between atoms: C_28  and  C_21 
REMARK    7  A    between atoms: C_22  and  C_25 
REMARK    8  A    between atoms: C_26  and  C_22 
REMARK    9  A    between atoms: O_24  and  C_26 
REMARK   10  A    between atoms: C_27  and  O_24 
ROOT
ATOM      1  C   UNL d   1      52.673  33.609  53.037  0.00  0.00     0.093 A 
ATOM      2  N   UNL d   1      53.448  34.181  54.104  0.00  0.00    -0.258 N 
ATOM      3  N   UNL d   1      53.281  32.754  54.031  0.00  0.00    -0.209 NA
ATOM      4  C   UNL d   1      53.596  33.417  54.413  0.00  0.00     0.152 A 
ATOM      5  C   UNL d   1      52.990  34.287  53.420  0.00  0.00     0.269 A 
ATOM      6  C   UNL d   1      52.819  32.843  53.343  0.00  0.00     0.169 A 
ATOM      7  C   UNL d   1      54.051  33.327  55.090  0.00  0.00     0.035 A 
ATOM      8  C   UNL d   1      53.763  34.844  54.486  0.00  0.00     0.084 A 
ATOM      9  O   UNL d   1      52.848  35.033  53.123  0.00  0.00    -0.266 OA
ATOM     10  C   UNL d   1      54.220  34.742  55.167  0.00  0.00     0.019 A 
ATOM     11  C   UNL d   1      54.364  33.988  55.468  0.00  0.00     0.005 A 
ATOM     12  C   UNL d   1      54.195  32.572  55.390  0.00  0.00     0.003 C 
ENDROOT
BRANCH   1  13
ATOM     13  C   UNL d   1      52.218  33.695  52.361  0.00  0.00     0.019 C 
BRANCH  13  14
ATOM     14  C   UNL d   1      51.443  33.971  52.424  0.00  0.00     0.088 A 
ATOM     15  C   UNL d   1      50.971  34.233  51.799  0.00  0.00     0.272 A 
ATOM     16  N   UNL d   1      50.238  34.460  52.107  0.00  0.00    -0.259 N 
ATOM     17  O   UNL d   1      51.192  34.265  51.001  0.00  0.00    -0.266 OA
ATOM     18  C   UNL d   1      50.261  34.335  52.930  0.00  0.00     0.153 A 
ATOM     19  S   UNL d   1      51.008  34.034  53.117  0.00  0.00    -0.053 SA
ATOM     20  S   UNL d   1      49.652  34.485  53.454  0.00  0.00    -0.052 SA
BRANCH  16  21
ATOM     21  C   UNL d   1      49.599  34.755  51.684  0.00  0.00     0.084 C 
BRANCH  21  22
ATOM     22  C   UNL d   1      49.183  34.257  51.166  0.00  0.00     0.019 C 
ATOM     23  C   UNL d   1      48.554  34.553  50.721  0.00  0.00     0.002 C 
ENDBRANCH  21  22
ENDBRANCH  16  21
ENDBRANCH  13  14
ENDBRANCH   1  13
BRANCH   6  24
ATOM     24  N   UNL d   1      52.506  32.182  52.964  0.00  0.00    -0.225 NA
BRANCH  24  25
ATOM     25  C   UNL d   1      52.935  31.486  52.923  0.00  0.00     0.103 C 
BRANCH  25  26
ATOM     26  C   UNL d   1      52.548  30.758  52.917  0.00  0.00     0.047 C 
BRANCH  26  27
ATOM     27  C   UNL d   1      52.972  30.066  53.044  0.00  0.00     0.124 C 
BRANCH  27  28
ATOM     28  O   UNL d   1      52.783  29.578  53.680  0.00  0.00    -0.303 OA
BRANCH  28  29
ATOM     29  C   UNL d   1      53.354  29.064  53.995  0.00  0.00     0.123 C 
ATOM     30  C   UNL d   1      53.310  28.836  54.786  0.00  0.00     0.029 C 
ENDBRANCH  28  29
ENDBRANCH  27  28
ENDBRANCH  26  27
ENDBRANCH  25  26
ENDBRANCH  24  25
ENDBRANCH   6  24
TORSDOF 10
ENDMDL
MODEL 2
REMARK VINA RESULT:      -5.9      1.400      4.338
REMARK  10 active torsions:
REMARK  status: ('A' for Active; 'I' for Inactive)
REMARK    1  A    between atoms: C_11  and  C_1 
REMARK    2  A    between atoms: C_21  and  N_5 
REMARK    3  A    between atoms: N_20  and  C_8 
REMARK    4  A    between atoms: C_9  and  C_11 
REMARK    5  A    between atoms: C_25  and  N_20 
REMARK    6  A    between atoms: C_28  and  C_21 
REMARK    7  A    between atoms: C_22  and  C_25 
REMARK    8  A    between atoms: C_26  and  C_22 
REMARK    9  A    between atoms: O_24  and  C_26 
REMARK   10  A    between atoms: C_27  and  O_24 
ROOT
ATOM      1  C   UNL d   1      53.292  32.754  53.285  0.00  0.00     0.093 A 
ATOM      2  N   UNL d   1      53.953  33.471  54.340  0.00  0.00    -0.258 N 
ATOM      3  N   UNL d   1      52.760  34.015  53.749  0.00  0.00    -0.209 NA
ATOM      4  C   UNL d   1      53.375  34.076  54.298  0.00  0.00     0.152 A 
ATOM      5  C   UNL d   1      53.920  32.810  53.841  0.00  0.00     0.269 A 
ATOM      6  C   UNL d   1      52.712  33.357  53.239  0.00  0.00     0.169 A 
ATOM      7  C   UNL d   1      53.420  34.725  54.798  0.00  0.00     0.035 A 
ATOM      8  C   UNL d   1      54.569  33.533  54.889  0.00  0.00     0.084 A 
ATOM      9  O   UNL d   1      54.485  32.223  53.886  0.00  0.00    -0.266 OA
ATOM     10  C   UNL d   1      54.605  34.191  55.389  0.00  0.00     0.019 A 
ATOM     11  C   UNL d   1      54.033  34.784  55.344  0.00  0.00     0.005 A 
ATOM     12  C   UNL d   1      52.849  35.319  54.753  0.00  0.00     0.003 C 
ENDROOT
BRANCH   1  13
ATOM     13  C   UNL d   1      53.244  32.107  52.784  0.00  0.00     0.019 C 
BRANCH  13  14
ATOM     14  C   UNL d   1      52.951  31.391  53.071  0.00  0.00     0.088 A 
ATOM     15  C   UNL d   1      53.381  30.690  53.146  0.00  0.00     0.272 A 
ATOM     16  N   UNL d   1      52.877  30.111  53.454  0.00  0.00    -0.259 N 
ATOM     17  O   UNL d   1      54.178  30.582  52.947  0.00  0.00    -0.266 OA
ATOM     18  C   UNL d   1      52.131  30.462  53.570  0.00  0.00     0.153 A 
ATOM     19  S   UNL d   1      52.186  31.251  53.330  0.00  0.00    -0.053 SA
ATOM     20  S   UNL d   1      51.467  30.089  53.866  0.00  0.00    -0.052 SA
BRANCH  16  21
ATOM     21  C   UNL d   1      53.071  29.330  53.620  0.00  0.00     0.084 C 
BRANCH  21  22
ATOM     22  C   UNL d   1      53.290  29.116  54.391  0.00  0.00     0.019 C 
ATOM     23  C   UNL d   1      53.596  28.364  54.542  0.00  0.00     0.002 C 
ENDBRANCH  21  22
ENDBRANCH  16  21
ENDBRANCH  13  14
ENDBRANCH   1  13
BRANCH   6  24
ATOM     24  N   UNL d   1      52.099  33.297  52.693  0.00  0.00    -0.225 NA
BRANCH  24  25
ATOM     25  C   UNL d   1      51.616  33.941  52.540  0.00  0.00     0.103 C 
BRANCH  25  26
ATOM     26  C   UNL d   1      51.020  33.888  51.974  0.00  0.00     0.047 C 
BRANCH  26  27
ATOM     27  C   UNL d   1      50.324  34.315  52.068  0.00  0.00     0.124 C 
BRANCH  27  28
ATOM     28  O   UNL d   1      49.804  34.401  51.435  0.00  0.00    -0.303 OA
BRANCH  28  29
ATOM     29  C   UNL d   1      49.035  34.684  51.565  0.00  0.00     0.123 C 
ATOM     30  C   UNL d   1      48.494  34.703  50.943  0.00  0.00     0.029 C 
ENDBRANCH  28  29
ENDBRANCH  27  28
ENDBRANCH  26  27
ENDBRANCH  25  26
ENDBRANCH  24  25
ENDBRANCH   6  24
TORSDOF 10
ENDMDL
