MODEL 1
REMARK VINA RESULT:      -6.6      0.000      0.000
REMARK  5 active torsions:
REMARK  status: ('A' for Active; 'I' for Inactive)
REMARK    1  A    between atoms: N_7  and  C_1 
REMARK    2  A    between atoms: C_4  and  C_3 
REMARK       I    between atoms: C_8  and  N_7 
REMARK    3  A    between atoms: C_15  and  C_8 
REMARK    4  A    between atoms: O_20  and  C_15 
REMARK    5  A    between atoms: C_22  and  O_20 
ROOT
ATOM      1  C   UNL d   1     -41.401-122.839 -50.879  0.00  0.00     0.204 A 
ATOM      2  S   UNL d   1     -41.654-122.576 -50.142  0.00  0.00    -0.031 SA
ATOM      3  C   UNL d   1     -41.534-123.194 -49.593  0.00  0.00     0.119 A 
ATOM      4  N   UNL d   1     -41.123-123.615 -50.798  0.00  0.00    -0.123 NA
ATOM      5  N   UNL d   1     -41.212-123.818 -50.003  0.00  0.00    -0.143 NA
ENDROOT
BRANCH   1   6
ATOM      6  N   UNL d   1     -41.397-122.449 -51.607  0.00  0.00    -0.248 N 
ATOM      7  C   UNL d   1     -41.609-122.909 -52.310  0.00  0.00     0.291 C 
ATOM      8  O   UNL d   1     -41.812-123.735 -52.227  0.00  0.00    -0.264 OA
ATOM      9  C   UNL d   1     -41.201-121.662 -51.662  0.00  0.00     0.104 C 
BRANCH   7  10
ATOM     10  C   UNL d   1     -41.614-122.546 -53.053  0.00  0.00     0.184 C 
BRANCH  10  11
ATOM     11  O   UNL d   1     -41.852-122.995 -53.718  0.00  0.00    -0.300 OA
BRANCH  11  12
ATOM     12  C   UNL d   1     -41.925-122.583 -54.438  0.00  0.00     0.100 A 
ATOM     13  C   UNL d   1     -42.607-122.180 -54.667  0.00  0.00     0.025 A 
ATOM     14  C   UNL d   1     -42.652-121.785 -55.377  0.00  0.00     0.002 A 
ATOM     15  C   UNL d   1     -42.008-121.765 -55.914  0.00  0.00     0.000 A 
ATOM     16  C   UNL d   1     -41.296-122.179 -55.686  0.00  0.00     0.002 A 
ATOM     17  C   UNL d   1     -41.256-122.591 -54.942  0.00  0.00     0.025 A 
ENDBRANCH  11  12
ENDBRANCH  10  11
ENDBRANCH   7  10
ENDBRANCH   1   6
BRANCH   3  18
ATOM     18  C   UNL d   1     -41.685-123.240 -48.783  0.00  0.00     0.081 A 
ATOM     19  C   UNL d   1     -41.340-123.242 -48.054  0.00  0.00    -0.017 A 
ATOM     20  C   UNL d   1     -41.798-123.306 -47.420  0.00  0.00    -0.008 A 
ATOM     21  C   UNL d   1     -41.408-123.304 -46.684  0.00  0.00    -0.001 A 
ATOM     22  C   UNL d   1     -42.574-123.360 -47.647  0.00  0.00    -0.022 A 
ATOM     23  C   UNL d   1     -41.946-123.323 -47.292  0.00  0.00    -0.008 A 
ATOM     24  C   UNL d   1     -41.599-123.266 -47.983  0.00  0.00    -0.017 A 
ATOM     25  C   UNL d   1     -42.889-123.390 -47.543  0.00  0.00    -0.022 A 
ATOM     26  C   UNL d   1     -43.031-123.368 -48.354  0.00  0.00     0.045 A 
ATOM     27  C   UNL d   1     -42.484-123.298 -48.959  0.00  0.00     0.023 A 
ENDBRANCH   3  18
TORSDOF 5
ENDMDL
MODEL 2
REMARK VINA RESULT:      -6.3      1.120      6.059
REMARK  5 active torsions:
REMARK  status: ('A' for Active; 'I' for Inactive)
REMARK    1  A    between atoms: N_7  and  C_1 
REMARK    2  A    between atoms: C_4  and  C_3 
REMARK       I    between atoms: C_8  and  N_7 
REMARK    3  A    between atoms: C_15  and  C_8 
REMARK    4  A    between atoms: O_20  and  C_15 
REMARK    5  A    between atoms: C_22  and  O_20 
ROOT
ATOM      1  C   UNL d   1     -41.483-122.665 -51.851  0.00  0.00     0.204 A 
ATOM      2  S   UNL d   1     -41.689-122.937 -52.599  0.00  0.00    -0.031 SA
ATOM      3  C   UNL d   1     -41.637-122.296 -53.130  0.00  0.00     0.119 A 
ATOM      4  N   UNL d   1     -41.302-121.859 -51.906  0.00  0.00    -0.123 NA
ATOM      5  N   UNL d   1     -41.402-121.648 -52.699  0.00  0.00    -0.143 NA
ENDROOT
BRANCH   1   6
ATOM      6  N   UNL d   1     -41.444-123.071 -51.132  0.00  0.00    -0.248 N 
ATOM      7  C   UNL d   1     -41.757-122.673 -50.428  0.00  0.00     0.291 C 
ATOM      8  O   UNL d   1     -42.089-121.889 -50.502  0.00  0.00    -0.264 OA
ATOM      9  C   UNL d   1     -41.124-123.817 -51.086  0.00  0.00     0.104 C 
BRANCH   7  10
ATOM     10  C   UNL d   1     -41.731-123.054 -49.696  0.00  0.00     0.184 C 
BRANCH  10  11
ATOM     11  O   UNL d   1     -42.318-122.870 -49.126  0.00  0.00    -0.300 OA
BRANCH  11  12
ATOM     12  C   UNL d   1     -42.149-123.079 -48.338  0.00  0.00     0.100 A 
ATOM     13  C   UNL d   1     -41.406-122.992 -47.992  0.00  0.00     0.025 A 
ATOM     14  C   UNL d   1     -41.267-123.204 -47.218  0.00  0.00     0.002 A 
ATOM     15  C   UNL d   1     -41.872-123.522 -46.732  0.00  0.00     0.000 A 
ATOM     16  C   UNL d   1     -42.646-123.615 -47.081  0.00  0.00     0.002 A 
ATOM     17  C   UNL d   1     -42.784-123.391 -47.890  0.00  0.00     0.025 A 
ENDBRANCH  11  12
ENDBRANCH  10  11
ENDBRANCH   7  10
ENDBRANCH   1   6
BRANCH   3  18
ATOM     18  C   UNL d   1     -41.778-122.247 -53.942  0.00  0.00     0.081 A 
ATOM     19  C   UNL d   1     -42.116-121.797 -54.519  0.00  0.00    -0.017 A 
ATOM     20  C   UNL d   1     -42.078-122.046 -55.262  0.00  0.00    -0.008 A 
ATOM     21  C   UNL d   1     -42.438-121.557 -55.832  0.00  0.00    -0.001 A 
ATOM     22  C   UNL d   1     -41.680-122.751 -55.295  0.00  0.00    -0.022 A 
ATOM     23  C   UNL d   1     -42.046-122.143 -55.430  0.00  0.00    -0.008 A 
ATOM     24  C   UNL d   1     -42.021-122.000 -54.668  0.00  0.00    -0.017 A 
ATOM     25  C   UNL d   1     -41.568-122.994 -55.493  0.00  0.00    -0.022 A 
ATOM     26  C   UNL d   1     -41.298-123.291 -54.774  0.00  0.00     0.045 A 
ATOM     27  C   UNL d   1     -41.383-122.960 -54.030  0.00  0.00     0.023 A 
ENDBRANCH   3  18
TORSDOF 5
ENDMDL
