MODEL 1
REMARK VINA RESULT:      23.6      0.000      0.000
REMARK  3 active torsions:
REMARK  status: ('A' for Active; 'I' for Inactive)
REMARK    1  A    between atoms: C_7  and  C_1 
REMARK       I    between atoms: C_6  and  N_9 
REMARK       I    between atoms: N_8  and  C_6 
REMARK    2  A    between atoms: N_9  and  C_7 
REMARK    3  A    between atoms: C_11  and  N_8 
ROOT
ATOM      1  C   UNL d   1      46.426 -19.390  44.207  0.00  0.00     0.369 C 
ATOM      2  N   UNL d   1      46.537 -19.854  43.527  0.00  0.00    -0.191 NA
ATOM      3  N   UNL d   1      46.342 -18.576  44.146  0.00  0.00    -0.189 NA
ATOM      4  O   UNL d   1      46.399 -19.751  44.951  0.00  0.00    -0.242 OA
ENDROOT
BRANCH   3   5
ATOM      5  C   UNL d   1      46.232 -18.121  44.822  0.00  0.00     0.107 C 
BRANCH   5   6
ATOM      6  C   UNL d   1      45.991 -17.326  44.751  0.00  0.00     0.058 A 
ATOM      7  C   UNL d   1      45.209 -17.057  44.730  0.00  0.00     0.104 A 
ATOM      8  N   UNL d   1      45.222 -16.232  44.655  0.00  0.00    -0.165 NA
ATOM      9  C   UNL d   1      44.533 -17.529  44.775  0.00  0.00     0.023 C 
ATOM     10  N   UNL d   1      46.015 -15.994  44.630  0.00  0.00    -0.225 N 
ATOM     11  C   UNL d   1      46.487 -16.667  44.689  0.00  0.00     0.104 A 
ATOM     12  C   UNL d   1      46.281 -15.224  44.560  0.00  0.00     0.121 C 
ENDBRANCH   5   6
ENDBRANCH   3   5
BRANCH   2  13
ATOM     13  C   UNL d   1      46.562 -19.488  42.796  0.00  0.00     0.086 A 
ATOM     14  C   UNL d   1      46.623 -18.668  42.737  0.00  0.00     0.020 A 
ATOM     15  C   UNL d   1      46.647 -18.316  41.989  0.00  0.00     0.013 A 
ATOM     16  C   UNL d   1      46.611 -18.770  41.309  0.00  0.00     0.058 A 
ATOM     17  C   UNL d   1      46.551 -19.583  41.377  0.00  0.00     0.013 A 
ATOM     18 CL   UNL d   1      46.635 -18.416  40.564  0.00  0.00    -0.082 Cl
ATOM     19  C   UNL d   1      46.526 -19.951  42.106  0.00  0.00     0.020 A 
ENDBRANCH   2  13
TORSDOF 3
ENDMDL
MODEL 2
REMARK VINA RESULT:      24.5      1.631      3.537
REMARK  3 active torsions:
REMARK  status: ('A' for Active; 'I' for Inactive)
REMARK    1  A    between atoms: C_7  and  C_1 
REMARK       I    between atoms: C_6  and  N_9 
REMARK       I    between atoms: N_8  and  C_6 
REMARK    2  A    between atoms: N_9  and  C_7 
REMARK    3  A    between atoms: C_11  and  N_8 
ROOT
ATOM      1  C   UNL d   1      46.025 -19.103  44.137  0.00  0.00     0.369 C 
ATOM      2  N   UNL d   1      46.025 -18.583  44.784  0.00  0.00    -0.191 NA
ATOM      3  N   UNL d   1      45.977 -18.813  43.370  0.00  0.00    -0.189 NA
ATOM      4  O   UNL d   1      46.074 -19.919  44.264  0.00  0.00    -0.242 OA
ENDROOT
BRANCH   3   5
ATOM      5  C   UNL d   1      45.978 -19.332  42.732  0.00  0.00     0.107 C 
BRANCH   5   6
ATOM      6  C   UNL d   1      46.150 -19.048  41.968  0.00  0.00     0.058 A 
ATOM      7  C   UNL d   1      46.455 -19.495  41.342  0.00  0.00     0.104 A 
ATOM      8  N   UNL d   1      46.540 -18.995  40.686  0.00  0.00    -0.165 NA
ATOM      9  C   UNL d   1      46.643 -20.298  41.367  0.00  0.00     0.023 C 
ATOM     10  N   UNL d   1      46.286 -18.240  40.911  0.00  0.00    -0.225 N 
ATOM     11  C   UNL d   1      46.046 -18.272  41.699  0.00  0.00     0.104 A 
ATOM     12  C   UNL d   1      46.276 -17.577  40.432  0.00  0.00     0.121 C 
ENDBRANCH   5   6
ENDBRANCH   3   5
BRANCH   2  13
ATOM     13  C   UNL d   1      45.976 -17.778  44.647  0.00  0.00     0.086 A 
ATOM     14  C   UNL d   1      46.621 -17.286  44.795  0.00  0.00     0.020 A 
ATOM     15  C   UNL d   1      46.553 -16.474  44.651  0.00  0.00     0.013 A 
ATOM     16  C   UNL d   1      45.856 -16.155  44.365  0.00  0.00     0.058 A 
ATOM     17  C   UNL d   1      45.221 -16.650  44.222  0.00  0.00     0.013 A 
ATOM     18 CL   UNL d   1      45.791 -15.344  44.223  0.00  0.00    -0.082 Cl
ATOM     19  C   UNL d   1      45.267 -17.454  44.357  0.00  0.00     0.020 A 
ENDBRANCH   2  13
TORSDOF 3
ENDMDL
MODEL 3
REMARK VINA RESULT:      25.1      3.972      5.535
REMARK  3 active torsions:
REMARK  status: ('A' for Active; 'I' for Inactive)
REMARK    1  A    between atoms: C_7  and  C_1 
REMARK       I    between atoms: C_6  and  N_9 
REMARK       I    between atoms: N_8  and  C_6 
REMARK    2  A    between atoms: N_9  and  C_7 
REMARK    3  A    between atoms: C_11  and  N_8 
ROOT
ATOM      1  C   UNL d   1      44.260 -13.262  44.608  0.00  0.00     0.369 C 
ATOM      2  N   UNL d   1      44.226 -14.016  44.955  0.00  0.00    -0.191 NA
ATOM      3  N   UNL d   1      44.896 -13.052  44.132  0.00  0.00    -0.189 NA
ATOM      4  O   UNL d   1      43.651 -12.719  44.743  0.00  0.00    -0.242 OA
ENDROOT
BRANCH   3   5
ATOM      5  C   UNL d   1      44.925 -12.304  43.791  0.00  0.00     0.107 C 
BRANCH   5   6
ATOM      6  C   UNL d   1      45.117 -12.225  42.984  0.00  0.00     0.058 A 
ATOM      7  C   UNL d   1      45.878 -12.141  42.673  0.00  0.00     0.104 A 
ATOM      8  N   UNL d   1      45.815 -12.080  41.848  0.00  0.00    -0.165 NA
ATOM      9  C   UNL d   1      46.579 -12.120  43.107  0.00  0.00     0.023 C 
ATOM     10  N   UNL d   1      45.012 -12.129  41.654  0.00  0.00    -0.225 N 
ATOM     11  C   UNL d   1      44.582 -12.218  42.351  0.00  0.00     0.104 A 
ATOM     12  C   UNL d   1      44.700 -12.094  40.899  0.00  0.00     0.121 C 
ENDBRANCH   5   6
ENDBRANCH   3   5
BRANCH   2  13
ATOM     13  C   UNL d   1      44.834 -14.546  44.816  0.00  0.00     0.086 A 
ATOM     14  C   UNL d   1      45.619 -14.330  44.946  0.00  0.00     0.020 A 
ATOM     15  C   UNL d   1      46.219 -14.880  44.799  0.00  0.00     0.013 A 
ATOM     16  C   UNL d   1      46.045 -15.632  44.529  0.00  0.00     0.058 A 
ATOM     17  C   UNL d   1      45.263 -15.837  44.403  0.00  0.00     0.013 A 
ATOM     18 CL   UNL d   1      46.647 -16.178  44.384  0.00  0.00    -0.082 Cl
ATOM     19  C   UNL d   1      44.655 -15.310  44.540  0.00  0.00     0.020 A 
ENDBRANCH   2  13
TORSDOF 3
ENDMDL
MODEL 4
REMARK VINA RESULT:      26.4      7.057      7.849
REMARK  3 active torsions:
REMARK  status: ('A' for Active; 'I' for Inactive)
REMARK    1  A    between atoms: C_7  and  C_1 
REMARK       I    between atoms: C_6  and  N_9 
REMARK       I    between atoms: N_8  and  C_6 
REMARK    2  A    between atoms: N_9  and  C_7 
REMARK    3  A    between atoms: C_11  and  N_8 
ROOT
ATOM      1  C   UNL d   1      44.794 -16.461  37.023  0.00  0.00     0.369 C 
ATOM      2  N   UNL d   1      45.581 -16.271  37.205  0.00  0.00    -0.191 NA
ATOM      3  N   UNL d   1      44.285 -15.886  36.732  0.00  0.00    -0.189 NA
ATOM      4  O   UNL d   1      44.520 -17.234  37.133  0.00  0.00    -0.242 OA
ENDROOT
BRANCH   3   5
ATOM      5  C   UNL d   1      43.506 -16.079  36.552  0.00  0.00     0.107 C 
BRANCH   5   6
ATOM      6  C   UNL d   1      42.888 -15.572  36.792  0.00  0.00     0.058 A 
ATOM      7  C   UNL d   1      42.080 -15.714  36.693  0.00  0.00     0.104 A 
ATOM      8  N   UNL d   1      41.664 -15.070  37.009  0.00  0.00    -0.165 NA
ATOM      9  C   UNL d   1      41.745 -16.381  36.341  0.00  0.00     0.023 C 
ATOM     10  N   UNL d   1      42.221 -14.532  37.303  0.00  0.00    -0.225 N 
ATOM     11  C   UNL d   1      42.973 -14.840  37.170  0.00  0.00     0.104 A 
ATOM     12  C   UNL d   1      42.051 -13.818  37.664  0.00  0.00     0.121 C 
ENDBRANCH   5   6
ENDBRANCH   3   5
BRANCH   2  13
ATOM     13  C   UNL d   1      45.843 -15.504  37.092  0.00  0.00     0.086 A 
ATOM     14  C   UNL d   1      46.302 -15.309  36.436  0.00  0.00     0.020 A 
ATOM     15  C   UNL d   1      46.558 -14.528  36.339  0.00  0.00     0.013 A 
ATOM     16  C   UNL d   1      46.360 -13.950  36.883  0.00  0.00     0.058 A 
ATOM     17  C   UNL d   1      45.904 -14.153  37.531  0.00  0.00     0.013 A 
ATOM     18 CL   UNL d   1      46.617 -13.171  36.783  0.00  0.00    -0.082 Cl
ATOM     19  C   UNL d   1      45.641 -14.917  37.647  0.00  0.00     0.020 A 
ENDBRANCH   2  13
TORSDOF 3
ENDMDL
