MODEL 1
REMARK VINA RESULT:      -4.2      0.000      0.000
REMARK  3 active torsions:
REMARK  status: ('A' for Active; 'I' for Inactive)
REMARK    1  A    between atoms: N_2  and  C_1 
REMARK    2  A    between atoms: C_5  and  C_4 
REMARK       I    between atoms: N_6  and  C_5 
REMARK    3  A    between atoms: C_9  and  N_6 
ROOT
ATOM      1  C   UNL d   1     -41.454-121.563 -51.252  0.00  0.00     0.285 C 
ATOM      2  N   UNL d   1     -41.817-121.611 -50.512  0.00  0.00    -0.205 NA
ATOM      3  O   UNL d   1     -41.149-120.865 -51.525  0.00  0.00    -0.265 OA
ENDROOT
BRANCH   1   4
ATOM      4  C   UNL d   1     -41.393-122.226 -51.731  0.00  0.00     0.089 A 
ATOM      5  S   UNL d   1     -41.589-122.242 -52.505  0.00  0.00    -0.059 SA
ATOM      6  C   UNL d   1     -41.464-122.979 -52.818  0.00  0.00     0.156 A 
ATOM      7  C   UNL d   1     -41.167-123.462 -52.192  0.00  0.00     0.031 A 
ATOM      8  C   UNL d   1     -41.123-122.988 -51.512  0.00  0.00     0.014 A 
BRANCH   6   9
ATOM      9  N   UNL d   1     -41.602-123.194 -53.582  0.00  0.00    -0.107 N 
ATOM     10  O   UNL d   1     -42.182-123.723 -53.845  0.00  0.00    -0.531 OA
ATOM     11  O   UNL d   1     -41.182-122.913 -54.199  0.00  0.00    -0.531 OA
ENDBRANCH   6   9
ENDBRANCH   1   4
BRANCH   2  12
ATOM     12  C   UNL d   1     -42.117-122.323 -50.255  0.00  0.00     0.112 A 
ATOM     13  C   UNL d   1     -42.934-122.437 -50.227  0.00  0.00     0.158 A 
ATOM     14  F   UNL d   1     -43.454-121.830 -50.458  0.00  0.00    -0.203 F 
ATOM     15  C   UNL d   1     -43.234-123.148 -49.970  0.00  0.00     0.031 A 
ATOM     16  C   UNL d   1     -42.721-123.752 -49.740  0.00  0.00     0.002 A 
ATOM     17  C   UNL d   1     -41.917-123.651 -49.764  0.00  0.00     0.002 A 
ATOM     18  C   UNL d   1     -41.604-122.927 -50.024  0.00  0.00     0.021 A 
ENDBRANCH   2  12
TORSDOF 3
ENDMDL
MODEL 2
REMARK VINA RESULT:      -4.1      1.765      3.014
REMARK  3 active torsions:
REMARK  status: ('A' for Active; 'I' for Inactive)
REMARK    1  A    between atoms: N_2  and  C_1 
REMARK    2  A    between atoms: C_5  and  C_4 
REMARK       I    between atoms: N_6  and  C_5 
REMARK    3  A    between atoms: C_9  and  N_6 
ROOT
ATOM      1  C   UNL d   1     -41.334-121.518 -52.117  0.00  0.00     0.285 C 
ATOM      2  N   UNL d   1     -41.344-121.605 -52.939  0.00  0.00    -0.205 NA
ATOM      3  O   UNL d   1     -41.137-120.814 -51.772  0.00  0.00    -0.265 OA
ENDROOT
BRANCH   1   4
ATOM      4  C   UNL d   1     -41.525-122.149 -51.629  0.00  0.00     0.089 A 
ATOM      5  S   UNL d   1     -42.144-122.156 -51.124  0.00  0.00    -0.059 SA
ATOM      6  C   UNL d   1     -42.180-122.859 -50.724  0.00  0.00     0.156 A 
ATOM      7  C   UNL d   1     -41.534-123.329 -50.998  0.00  0.00     0.031 A 
ATOM      8  C   UNL d   1     -41.125-122.882 -51.566  0.00  0.00     0.014 A 
BRANCH   6   9
ATOM      9  N   UNL d   1     -42.732-123.057 -50.172  0.00  0.00    -0.107 N 
ATOM     10  O   UNL d   1     -43.028-123.817 -50.024  0.00  0.00    -0.531 OA
ATOM     11  O   UNL d   1     -43.073-122.527 -49.683  0.00  0.00    -0.531 OA
ENDBRANCH   6   9
ENDBRANCH   1   4
BRANCH   2  12
ATOM     12  C   UNL d   1     -41.544-122.322 -53.267  0.00  0.00     0.112 A 
ATOM     13  C   UNL d   1     -42.170-122.366 -53.804  0.00  0.00     0.158 A 
ATOM     14  F   UNL d   1     -42.597-121.684 -54.013  0.00  0.00    -0.203 F 
ATOM     15  C   UNL d   1     -42.370-123.083 -54.132  0.00  0.00     0.031 A 
ATOM     16  C   UNL d   1     -41.948-123.762 -53.926  0.00  0.00     0.002 A 
ATOM     17  C   UNL d   1     -41.333-123.730 -53.400  0.00  0.00     0.002 A 
ATOM     18  C   UNL d   1     -41.123-123.001 -53.061  0.00  0.00     0.021 A 
ENDBRANCH   2  12
TORSDOF 3
ENDMDL
