MODEL 1
REMARK VINA RESULT:      57.8      0.000      0.000
REMARK  4 active torsions:
REMARK  status: ('A' for Active; 'I' for Inactive)
REMARK    1  A    between atoms: N_2  and  S_1 
REMARK    2  A    between atoms: C_4  and  S_1 
REMARK    3  A    between atoms: C_3  and  C_9 
REMARK       I    between atoms: N_5  and  C_3 
REMARK    4  A    between atoms: C_6  and  N_5 
ROOT
ATOM      1  C   UNL d   1     -56.141-100.156 -44.050  0.00  0.00     0.104 A 
ATOM      2  C   UNL d   1     -55.342-101.068 -43.294  0.00  0.00     0.059 A 
ATOM      3  C   UNL d   1     -56.057-100.680 -43.412  0.00  0.00     0.018 A 
ATOM      4  C   UNL d   1     -55.510-100.027 -44.563  0.00  0.00     0.013 A 
ATOM      5  C   UNL d   1     -54.711-100.939 -43.808  0.00  0.00     0.005 A 
ATOM      6  C   UNL d   1     -54.798-100.413 -44.448  0.00  0.00     0.001 A 
ENDROOT
BRANCH   1   7
ATOM      7  S   UNL d   1     -56.852 -99.771 -44.165  0.00  0.00     0.271 S 
ATOM      8  O   UNL d   1     -57.069-100.413 -43.730  0.00  0.00    -0.200 OA
ATOM      9  O   UNL d   1     -56.674 -99.098 -44.613  0.00  0.00    -0.200 OA
BRANCH   7  10
ATOM     10  N   UNL d   1     -57.608 -99.457 -44.228  0.00  0.00    -0.229 N 
ATOM     11  C   UNL d   1     -58.008 -99.277 -43.513  0.00  0.00     0.092 A 
ATOM     12  C   UNL d   1     -58.677 -98.997 -43.457  0.00  0.00     0.020 A 
ATOM     13  C   UNL d   1     -59.284 -98.756 -44.018  0.00  0.00     0.002 A 
ATOM     14  C   UNL d   1     -59.320 -98.755 -44.762  0.00  0.00     0.002 A 
ATOM     15  C   UNL d   1     -58.716 -99.017 -45.288  0.00  0.00     0.020 A 
ATOM     16  C   UNL d   1     -57.924 -99.342 -45.042  0.00  0.00     0.092 A 
ENDBRANCH   7  10
ENDBRANCH   1   7
BRANCH   2  17
ATOM     17  C   UNL d   1     -55.258-101.591 -42.657  0.00  0.00     0.281 C 
ATOM     18  N   UNL d   1     -55.182-101.287 -41.892  0.00  0.00    -0.187 NA
ATOM     19  O   UNL d   1     -55.252-102.398 -42.797  0.00  0.00    -0.265 OA
BRANCH  18  20
ATOM     20  C   UNL d   1     -55.098-101.809 -41.265  0.00  0.00     0.194 A 
ATOM     21  N   UNL d   1     -55.380-101.699 -40.496  0.00  0.00    -0.106 NA
ATOM     22  O   UNL d   1     -55.172-102.359 -40.053  0.00  0.00    -0.207 OA
ATOM     23  C   UNL d   1     -54.760-102.880 -40.547  0.00  0.00     0.153 A 
ATOM     24  C   UNL d   1     -54.714-102.544 -41.290  0.00  0.00     0.070 A 
ENDBRANCH  18  20
ENDBRANCH   2  17
TORSDOF 4
ENDMDL
