MODEL 1
REMARK VINA RESULT:      -2.8      0.000      0.000
REMARK  3 active torsions:
REMARK  status: ('A' for Active; 'I' for Inactive)
REMARK    1  A    between atoms: N_2  and  S_1 
REMARK    2  A    between atoms: C_5  and  S_1 
REMARK    3  A    between atoms: S_9  and  C_3 
ROOT
ATOM      1  S   UNL d   1      30.565  16.198 -24.836  0.00  0.00     0.273 S 
ATOM      2  O   UNL d   1      31.039  15.558 -25.053  0.00  0.00    -0.200 OA
ATOM      3  O   UNL d   1      30.044  15.627 -25.097  0.00  0.00    -0.200 OA
ENDROOT
BRANCH   1   4
ATOM      4  N   UNL d   1      29.909  16.681 -24.694  0.00  0.00    -0.208 N 
ATOM      5  C   UNL d   1      29.272  16.497 -24.196  0.00  0.00     0.185 A 
ATOM      6  N   UNL d   1      28.741  17.129 -24.214  0.00  0.00    -0.219 NA
ATOM      7  C   UNL d   1      29.052  17.702 -24.724  0.00  0.00     0.121 A 
ATOM      8  C   UNL d   1      29.769  17.431 -25.021  0.00  0.00     0.114 A 
BRANCH   5   9
ATOM      9  S   UNL d   1      29.184  15.799 -23.756  0.00  0.00    -0.075 SA
ATOM     10  C   UNL d   1      28.507  15.685 -23.303  0.00  0.00     0.077 C 
ENDBRANCH   5   9
ENDBRANCH   1   4
BRANCH   1  11
ATOM     11  C   UNL d   1      31.106  16.762 -24.577  0.00  0.00     0.104 A 
ATOM     12  C   UNL d   1      31.360  17.344 -25.097  0.00  0.00     0.013 A 
ATOM     13  C   UNL d   1      31.902  17.907 -24.833  0.00  0.00     0.001 A 
ATOM     14  C   UNL d   1      32.185  17.884 -24.057  0.00  0.00     0.000 A 
ATOM     15  C   UNL d   1      31.923  17.294 -23.542  0.00  0.00     0.001 A 
ATOM     16  C   UNL d   1      32.726  18.447 -23.797  0.00  0.00     0.000 C 
ATOM     17  C   UNL d   1      31.381  16.732 -23.806  0.00  0.00     0.013 A 
ENDBRANCH   1  11
TORSDOF 3
ENDMDL
MODEL 2
REMARK VINA RESULT:      -2.6      1.215      2.863
REMARK  3 active torsions:
REMARK  status: ('A' for Active; 'I' for Inactive)
REMARK    1  A    between atoms: N_2  and  S_1 
REMARK    2  A    between atoms: C_5  and  S_1 
REMARK    3  A    between atoms: S_9  and  C_3 
ROOT
ATOM      1  S   UNL d   1      31.010  16.143 -24.651  0.00  0.00     0.273 S 
ATOM      2  O   UNL d   1      30.914  15.453 -25.095  0.00  0.00    -0.200 OA
ATOM      3  O   UNL d   1      31.734  16.016 -25.006  0.00  0.00    -0.200 OA
ENDROOT
BRANCH   1   4
ATOM      4  N   UNL d   1      31.339  16.818 -24.304  0.00  0.00    -0.208 N 
ATOM      5  C   UNL d   1      32.013  16.834 -23.822  0.00  0.00     0.185 A 
ATOM      6  N   UNL d   1      32.147  17.616 -23.595  0.00  0.00    -0.219 NA
ATOM      7  C   UNL d   1      31.556  18.081 -23.937  0.00  0.00     0.121 A 
ATOM      8  C   UNL d   1      31.056  17.595 -24.374  0.00  0.00     0.114 A 
BRANCH   5   9
ATOM      9  S   UNL d   1      32.472  16.178 -23.606  0.00  0.00    -0.075 SA
ATOM     10  C   UNL d   1      33.171  16.289 -23.186  0.00  0.00     0.077 C 
ENDBRANCH   5   9
ENDBRANCH   1   4
BRANCH   1  11
ATOM     11  C   UNL d   1      30.272  16.255 -24.303  0.00  0.00     0.104 A 
ATOM     12  C   UNL d   1      30.094  15.862 -23.606  0.00  0.00     0.013 A 
ATOM     13  C   UNL d   1      29.353  15.977 -23.260  0.00  0.00     0.001 A 
ATOM     14  C   UNL d   1      28.801  16.480 -23.613  0.00  0.00     0.000 A 
ATOM     15  C   UNL d   1      28.991  16.871 -24.314  0.00  0.00     0.001 A 
ATOM     16  C   UNL d   1      28.063  16.593 -23.265  0.00  0.00     0.000 C 
ATOM     17  C   UNL d   1      29.731  16.756 -24.659  0.00  0.00     0.013 A 
ENDBRANCH   1  11
TORSDOF 3
ENDMDL
MODEL 3
REMARK VINA RESULT:      -2.5      1.237      1.758
REMARK  3 active torsions:
REMARK  status: ('A' for Active; 'I' for Inactive)
REMARK    1  A    between atoms: N_2  and  S_1 
REMARK    2  A    between atoms: C_5  and  S_1 
REMARK    3  A    between atoms: S_9  and  C_3 
ROOT
ATOM      1  S   UNL d   1      32.397  16.621 -24.089  0.00  0.00     0.273 S 
ATOM      2  O   UNL d   1      33.069  16.176 -23.909  0.00  0.00    -0.200 OA
ATOM      3  O   UNL d   1      32.206  15.854 -24.292  0.00  0.00    -0.200 OA
ENDROOT
BRANCH   1   4
ATOM      4  N   UNL d   1      31.640  16.838 -24.340  0.00  0.00    -0.208 N 
ATOM      5  C   UNL d   1      30.928  16.514 -24.066  0.00  0.00     0.185 A 
ATOM      6  N   UNL d   1      30.307  16.888 -24.461  0.00  0.00    -0.219 NA
ATOM      7  C   UNL d   1      30.638  17.443 -24.977  0.00  0.00     0.121 A 
ATOM      8  C   UNL d   1      31.457  17.416 -24.906  0.00  0.00     0.114 A 
BRANCH   5   9
ATOM      9  S   UNL d   1      30.853  15.917 -23.495  0.00  0.00    -0.075 SA
ATOM     10  C   UNL d   1      30.106  15.638 -23.291  0.00  0.00     0.077 C 
ENDBRANCH   5   9
ENDBRANCH   1   4
BRANCH   1  11
ATOM     11  C   UNL d   1      32.609  17.388 -23.878  0.00  0.00     0.104 A 
ATOM     12  C   UNL d   1      32.915  17.891 -24.449  0.00  0.00     0.013 A 
ATOM     13  C   UNL d   1      33.126  18.660 -24.233  0.00  0.00     0.001 A 
ATOM     14  C   UNL d   1      33.029  18.916 -23.454  0.00  0.00     0.000 A 
ATOM     15  C   UNL d   1      32.720  18.402 -22.887  0.00  0.00     0.001 A 
ATOM     16  C   UNL d   1      33.241  19.684 -23.242  0.00  0.00     0.000 C 
ATOM     17  C   UNL d   1      32.510  17.634 -23.103  0.00  0.00     0.013 A 
ENDBRANCH   1  11
TORSDOF 3
ENDMDL
MODEL 4
REMARK VINA RESULT:      -2.4      1.613      2.926
REMARK  3 active torsions:
REMARK  status: ('A' for Active; 'I' for Inactive)
REMARK    1  A    between atoms: N_2  and  S_1 
REMARK    2  A    between atoms: C_5  and  S_1 
REMARK    3  A    between atoms: S_9  and  C_3 
ROOT
ATOM      1  S   UNL d   1      31.906  16.144 -24.057  0.00  0.00     0.273 S 
ATOM      2  O   UNL d   1      32.277  15.453 -23.798  0.00  0.00    -0.200 OA
ATOM      3  O   UNL d   1      32.706  16.297 -24.114  0.00  0.00    -0.200 OA
ENDROOT
BRANCH   1   4
ATOM      4  N   UNL d   1      31.776  16.908 -24.343  0.00  0.00    -0.208 N 
ATOM      5  C   UNL d   1      32.080  17.607 -24.015  0.00  0.00     0.185 A 
ATOM      6  N   UNL d   1      31.815  18.241 -24.471  0.00  0.00    -0.219 NA
ATOM      7  C   UNL d   1      31.348  17.933 -25.080  0.00  0.00     0.121 A 
ATOM      8  C   UNL d   1      31.321  17.115 -25.006  0.00  0.00     0.114 A 
BRANCH   5   9
ATOM      9  S   UNL d   1      32.565  17.657 -23.344  0.00  0.00    -0.075 SA
ATOM     10  C   UNL d   1      32.839  18.391 -23.093  0.00  0.00     0.077 C 
ENDBRANCH   5   9
ENDBRANCH   1   4
BRANCH   1  11
ATOM     11  C   UNL d   1      31.104  15.970 -23.993  0.00  0.00     0.104 A 
ATOM     12  C   UNL d   1      30.700  15.691 -24.650  0.00  0.00     0.013 A 
ATOM     13  C   UNL d   1      29.896  15.518 -24.581  0.00  0.00     0.001 A 
ATOM     14  C   UNL d   1      29.505  15.626 -23.861  0.00  0.00     0.000 A 
ATOM     15  C   UNL d   1      29.921  15.908 -23.206  0.00  0.00     0.001 A 
ATOM     16  C   UNL d   1      28.702  15.453 -23.796  0.00  0.00     0.000 C 
ATOM     17  C   UNL d   1      30.725  16.080 -23.276  0.00  0.00     0.013 A 
ENDBRANCH   1  11
TORSDOF 3
ENDMDL
