MODEL 1
REMARK VINA RESULT:      43.8      0.000      0.000
REMARK  5 active torsions:
REMARK  status: ('A' for Active; 'I' for Inactive)
REMARK    1  A    between atoms: C_3  and  C_1 
REMARK    2  A    between atoms: C_5  and  C_3 
REMARK    3  A    between atoms: N_8  and  C_5 
REMARK    4  A    between atoms: C_19  and  N_11 
REMARK    5  A    between atoms: C_18  and  C_19 
ROOT
ATOM      1  C   UNL d   1      46.594 -18.970  41.381  0.00  0.00     0.110 C 
ATOM      2  C   UNL d   1      46.620 -19.604  40.856  0.00  0.00     0.105 C 
ATOM      3  N   UNL d   1      46.645 -20.240  40.344  0.00  0.00    -0.191 NA
ENDROOT
BRANCH   1   4
ATOM      4  C   UNL d   1      46.538 -19.106  42.193  0.00  0.00     0.122 A 
ATOM      5  N   UNL d   1      46.645 -18.547  42.790  0.00  0.00    -0.238 NA
ATOM      6  C   UNL d   1      46.539 -18.922  43.520  0.00  0.00     0.088 A 
ATOM      7  C   UNL d   1      46.577 -18.643  44.293  0.00  0.00     0.020 A 
ATOM      8  C   UNL d   1      46.365 -19.715  43.374  0.00  0.00     0.049 A 
ATOM      9  C   UNL d   1      46.441 -19.166  44.920  0.00  0.00     0.002 A 
ATOM     10  C   UNL d   1      46.267 -19.959  44.775  0.00  0.00     0.001 A 
ATOM     11  C   UNL d   1      46.229 -20.237  44.000  0.00  0.00     0.008 A 
ATOM     12  S   UNL d   1      46.364 -19.833  42.553  0.00  0.00    -0.066 SA
ENDBRANCH   1   4
BRANCH   1  13
ATOM     13  C   UNL d   1      46.624 -18.199  41.093  0.00  0.00     0.093 C 
BRANCH  13  14
ATOM     14  N   UNL d   1      46.132 -17.970  40.472  0.00  0.00    -0.299 N 
ATOM     15  C   UNL d   1      46.408 -18.006  39.699  0.00  0.00     0.100 A 
ATOM     16  C   UNL d   1      45.915 -17.776  39.074  0.00  0.00     0.100 A 
ATOM     17  N   UNL d   1      45.144 -17.510  39.233  0.00  0.00    -0.300 N 
ATOM     18  C   UNL d   1      44.874 -17.477  40.012  0.00  0.00     0.100 A 
ATOM     19  C   UNL d   1      45.363 -17.705  40.631  0.00  0.00     0.100 A 
BRANCH  17  20
ATOM     20  C   UNL d   1      44.649 -17.281  38.614  0.00  0.00     0.080 C 
BRANCH  20  21
ATOM     21  C   UNL d   1      44.861 -16.651  38.130  0.00  0.00     0.020 A 
ATOM     22  C   UNL d   1      45.630 -16.374  38.138  0.00  0.00     0.028 A 
ATOM     23  C   UNL d   1      45.845 -15.744  37.655  0.00  0.00     0.119 A 
ATOM     24  O   UNL d   1      46.571 -15.356  37.552  0.00  0.00    -0.300 OA
ATOM     25  C   UNL d   1      45.286 -15.393  37.164  0.00  0.00     0.119 A 
ATOM     26  C   UNL d   1      46.454 -14.758  36.989  0.00  0.00     0.304 A 
ATOM     27  O   UNL d   1      45.663 -14.782  36.751  0.00  0.00    -0.300 OA
ATOM     28  C   UNL d   1      44.510 -15.673  37.155  0.00  0.00     0.026 A 
ATOM     29  C   UNL d   1      44.294 -16.307  37.642  0.00  0.00     0.004 A 
ENDBRANCH  20  21
ENDBRANCH  17  20
ENDBRANCH  13  14
ENDBRANCH   1  13
TORSDOF 5
ENDMDL
