MODEL 1
REMARK VINA RESULT:       1.3      0.000      0.000
REMARK  7 active torsions:
REMARK  status: ('A' for Active; 'I' for Inactive)
REMARK    1  A    between atoms: C_5  and  C_1 
REMARK    2  A    between atoms: N_6  and  C_2 
REMARK    3  A    between atoms: C_7  and  C_5 
REMARK    4  A    between atoms: C_8  and  C_5 
REMARK       I    between atoms: N_13  and  C_7 
REMARK    5  A    between atoms: C_17  and  N_13 
REMARK    6  A    between atoms: C_23  and  C_17 
REMARK    7  A    between atoms: C_18  and  C_23 
ROOT
ATOM      1  C   UNL d   1     -41.777-122.720 -49.957  0.00  0.00     0.117 A 
ATOM      2  C   UNL d   1     -42.566-122.554 -49.783  0.00  0.00     0.145 A 
ATOM      3  N   UNL d   1     -42.873-122.744 -49.040  0.00  0.00    -0.230 NA
ATOM      4  N   UNL d   1     -41.295-123.078 -49.387  0.00  0.00    -0.241 NA
ATOM      5  C   UNL d   1     -42.393-123.100 -48.474  0.00  0.00     0.100 A 
ATOM      6  C   UNL d   1     -41.604-123.266 -48.648  0.00  0.00     0.099 A 
ATOM      7  C   UNL d   1     -42.701-123.289 -47.735  0.00  0.00     0.021 A 
ATOM      8  C   UNL d   1     -41.123-123.622 -48.082  0.00  0.00     0.021 A 
ATOM      9  C   UNL d   1     -42.220-123.647 -47.161  0.00  0.00     0.002 A 
ATOM     10  C   UNL d   1     -41.431-123.814 -47.335  0.00  0.00     0.002 A 
ENDROOT
BRANCH   1  11
ATOM     11  C   UNL d   1     -41.632-122.471 -50.727  0.00  0.00     0.099 C 
BRANCH  11  12
ATOM     12  C   UNL d   1     -41.412-122.890 -51.416  0.00  0.00     0.282 C 
ATOM     13  O   UNL d   1     -41.263-123.708 -51.378  0.00  0.00    -0.265 OA
ATOM     14  N   UNL d   1     -41.343-122.486 -52.137  0.00  0.00    -0.206 NA
BRANCH  14  15
ATOM     15  C   UNL d   1     -41.123-122.906 -52.822  0.00  0.00     0.102 C 
BRANCH  15  16
ATOM     16  C   UNL d   1     -41.607-123.293 -53.371  0.00  0.00     0.021 C 
BRANCH  16  17
ATOM     17  C   UNL d   1     -41.747-122.958 -54.108  0.00  0.00     0.002 A 
ATOM     18  C   UNL d   1     -42.379-123.225 -54.554  0.00  0.00     0.000 A 
ATOM     19  C   UNL d   1     -42.521-122.887 -55.296  0.00  0.00     0.000 A 
ATOM     20  C   UNL d   1     -42.031-122.289 -55.581  0.00  0.00     0.000 A 
ATOM     21  C   UNL d   1     -41.397-122.032 -55.117  0.00  0.00     0.000 A 
ATOM     22  C   UNL d   1     -41.258-122.365 -54.386  0.00  0.00     0.000 A 
ENDBRANCH  16  17
ENDBRANCH  15  16
ENDBRANCH  14  15
ENDBRANCH  11  12
BRANCH  11  23
ATOM     23  C   UNL d   1     -41.708-121.674 -50.887  0.00  0.00     0.129 C 
ATOM     24  N   UNL d   1     -41.186-121.042 -50.976  0.00  0.00    -0.146 N 
ENDBRANCH  11  23
ENDBRANCH   1  11
BRANCH   2  25
ATOM     25  N   UNL d   1     -42.907-122.202 -50.446  0.00  0.00    -0.188 NA
ATOM     26  C   UNL d   1     -43.717-122.175 -50.575  0.00  0.00     0.083 A 
ATOM     27  C   UNL d   1     -43.611-121.636 -51.530  0.00  0.00     0.136 A 
ATOM     28  O   UNL d   1     -44.090-121.424 -51.957  0.00  0.00    -0.301 OA
ATOM     29  C   UNL d   1     -43.216-121.476 -51.779  0.00  0.00     0.136 A 
ATOM     30  C   UNL d   1     -43.343-121.978 -50.891  0.00  0.00     0.083 A 
ENDBRANCH   2  25
TORSDOF 7
ENDMDL
MODEL 2
REMARK VINA RESULT:       1.8      1.319      5.191
REMARK  7 active torsions:
REMARK  status: ('A' for Active; 'I' for Inactive)
REMARK    1  A    between atoms: C_5  and  C_1 
REMARK    2  A    between atoms: N_6  and  C_2 
REMARK    3  A    between atoms: C_7  and  C_5 
REMARK    4  A    between atoms: C_8  and  C_5 
REMARK       I    between atoms: N_13  and  C_7 
REMARK    5  A    between atoms: C_17  and  N_13 
REMARK    6  A    between atoms: C_23  and  C_17 
REMARK    7  A    between atoms: C_18  and  C_23 
ROOT
ATOM      1  C   UNL d   1     -42.261-122.570 -53.334  0.00  0.00     0.117 A 
ATOM      2  C   UNL d   1     -41.985-121.796 -53.412  0.00  0.00     0.145 A 
ATOM      3  N   UNL d   1     -42.000-121.425 -54.151  0.00  0.00    -0.230 NA
ATOM      4  N   UNL d   1     -42.551-122.973 -53.996  0.00  0.00    -0.241 NA
ATOM      5  C   UNL d   1     -42.289-121.827 -54.808  0.00  0.00     0.100 A 
ATOM      6  C   UNL d   1     -42.564-122.601 -54.730  0.00  0.00     0.099 A 
ATOM      7  C   UNL d   1     -42.302-121.457 -55.542  0.00  0.00     0.021 A 
ATOM      8  C   UNL d   1     -42.853-123.004 -55.387  0.00  0.00     0.021 A 
ATOM      9  C   UNL d   1     -42.593-121.859 -56.208  0.00  0.00     0.002 A 
ATOM     10  C   UNL d   1     -42.868-122.633 -56.130  0.00  0.00     0.002 A 
ENDROOT
BRANCH   1  11
ATOM     11  C   UNL d   1     -42.178-122.787 -52.546  0.00  0.00     0.099 C 
BRANCH  11  12
ATOM     12  C   UNL d   1     -42.715-122.777 -51.905  0.00  0.00     0.282 C 
ATOM     13  O   UNL d   1     -43.404-122.311 -51.946  0.00  0.00    -0.265 OA
ATOM     14  N   UNL d   1     -42.557-123.233 -51.231  0.00  0.00    -0.206 NA
BRANCH  14  15
ATOM     15  C   UNL d   1     -43.094-123.221 -50.594  0.00  0.00     0.102 C 
BRANCH  15  16
ATOM     16  C   UNL d   1     -43.202-123.782 -49.995  0.00  0.00     0.021 C 
BRANCH  16  17
ATOM     17  C   UNL d   1     -43.059-123.584 -49.211  0.00  0.00     0.002 A 
ATOM     18  C   UNL d   1     -42.320-123.729 -48.891  0.00  0.00     0.000 A 
ATOM     19  C   UNL d   1     -42.176-123.529 -48.101  0.00  0.00     0.000 A 
ATOM     20  C   UNL d   1     -42.771-123.189 -47.643  0.00  0.00     0.000 A 
ATOM     21  C   UNL d   1     -43.511-123.049 -47.983  0.00  0.00     0.000 A 
ATOM     22  C   UNL d   1     -43.652-123.246 -48.762  0.00  0.00     0.000 A 
ENDBRANCH  16  17
ENDBRANCH  15  16
ENDBRANCH  14  15
ENDBRANCH  11  12
BRANCH  11  23
ATOM     23  C   UNL d   1     -41.450-123.069 -52.306  0.00  0.00     0.129 C 
ATOM     24  N   UNL d   1     -41.133-123.815 -52.151  0.00  0.00    -0.146 N 
ENDBRANCH  11  23
ENDBRANCH   1  11
BRANCH   2  25
ATOM     25  N   UNL d   1     -41.733-121.536 -52.671  0.00  0.00    -0.188 NA
ATOM     26  C   UNL d   1     -41.627-120.745 -52.483  0.00  0.00     0.083 A 
ATOM     27  C   UNL d   1     -41.309-120.967 -51.451  0.00  0.00     0.136 A 
ATOM     28  O   UNL d   1     -41.127-120.542 -50.959  0.00  0.00    -0.301 OA
ATOM     29  C   UNL d   1     -41.254-121.391 -51.205  0.00  0.00     0.136 A 
ATOM     30  C   UNL d   1     -41.548-121.157 -52.162  0.00  0.00     0.083 A 
ENDBRANCH   2  25
TORSDOF 7
ENDMDL
