MODEL 1
REMARK VINA RESULT:      -4.3      0.000      0.000
REMARK  4 active torsions:
REMARK  status: ('A' for Active; 'I' for Inactive)
REMARK    1  A    between atoms: N_2  and  S_1 
REMARK    2  A    between atoms: N_3  and  S_1 
REMARK    3  A    between atoms: C_8  and  N_3 
REMARK    4  A    between atoms: C_6  and  C_8 
ROOT
ATOM      1  S   UNL d   1      57.791  -0.055  30.659  0.00  0.00     0.351 S 
ATOM      2  O   UNL d   1      57.965   0.682  30.990  0.00  0.00    -0.180 OA
ATOM      3  O   UNL d   1      57.618  -0.788  30.331  0.00  0.00    -0.180 OA
ENDROOT
BRANCH   1   4
ATOM      4  N   UNL d   1      58.501  -0.028  30.238  0.00  0.00    -0.211 N 
ATOM      5  C   UNL d   1      59.002   0.620  30.338  0.00  0.00     0.120 C 
ATOM      6  C   UNL d   1      59.708   0.645  29.917  0.00  0.00     0.142 C 
ATOM      7  O   UNL d   1      59.860   0.092  29.325  0.00  0.00    -0.300 OA
ATOM      8  C   UNL d   1      59.304  -0.488  29.153  0.00  0.00     0.142 C 
ATOM      9  C   UNL d   1      58.595  -0.514  29.575  0.00  0.00     0.120 C 
ENDBRANCH   1   4
BRANCH   1  10
ATOM     10  N   UNL d   1      57.074  -0.140  31.051  0.00  0.00    -0.144 NA
BRANCH  10  11
ATOM     11  C   UNL d   1      57.052  -0.363  31.855  0.00  0.00     0.121 C 
BRANCH  11  12
ATOM     12  C   UNL d   1      56.318  -0.479  32.244  0.00  0.00     0.185 C 
ATOM     13  O   UNL d   1      56.025   0.124  32.794  0.00  0.00    -0.321 OA
ATOM     14  C   UNL d   1      55.444  -0.234  33.254  0.00  0.00     0.117 C 
ATOM     15  C   UNL d   1      55.534  -1.053  33.201  0.00  0.00     0.025 C 
ATOM     16  C   UNL d   1      56.177  -1.203  32.703  0.00  0.00     0.012 C 
ENDBRANCH  11  12
ENDBRANCH  10  11
ENDBRANCH   1  10
TORSDOF 4
ENDMDL
MODEL 2
REMARK VINA RESULT:      -4.2      0.937      4.002
REMARK  4 active torsions:
REMARK  status: ('A' for Active; 'I' for Inactive)
REMARK    1  A    between atoms: N_2  and  S_1 
REMARK    2  A    between atoms: N_3  and  S_1 
REMARK    3  A    between atoms: C_8  and  N_3 
REMARK    4  A    between atoms: C_6  and  C_8 
ROOT
ATOM      1  S   UNL d   1      56.961  -0.369  31.435  0.00  0.00     0.351 S 
ATOM      2  O   UNL d   1      56.933   0.454  31.498  0.00  0.00    -0.180 OA
ATOM      3  O   UNL d   1      56.988  -1.188  31.371  0.00  0.00    -0.180 OA
ENDROOT
BRANCH   1   4
ATOM      4  N   UNL d   1      56.541  -0.433  32.144  0.00  0.00    -0.211 N 
ATOM      5  C   UNL d   1      56.301  -1.180  32.401  0.00  0.00     0.120 C 
ATOM      6  C   UNL d   1      55.883  -1.243  33.105  0.00  0.00     0.142 C 
ATOM      7  O   UNL d   1      55.612  -0.565  33.491  0.00  0.00    -0.300 OA
ATOM      8  C   UNL d   1      55.760   0.176  33.169  0.00  0.00     0.142 C 
ATOM      9  C   UNL d   1      56.179   0.240  32.461  0.00  0.00     0.120 C 
ENDBRANCH   1   4
BRANCH   1  10
ATOM     10  N   UNL d   1      57.379  -0.370  30.728  0.00  0.00    -0.144 NA
BRANCH  10  11
ATOM     11  C   UNL d   1      58.025   0.145  30.614  0.00  0.00     0.121 C 
BRANCH  11  12
ATOM     12  C   UNL d   1      58.518   0.067  29.941  0.00  0.00     0.185 C 
ATOM     13  O   UNL d   1      59.370  -0.060  30.046  0.00  0.00    -0.321 OA
ATOM     14  C   UNL d   1      59.729   0.121  29.327  0.00  0.00     0.117 C 
ATOM     15  C   UNL d   1      59.206   0.577  28.880  0.00  0.00     0.025 C 
ATOM     16  C   UNL d   1      58.517   0.680  29.325  0.00  0.00     0.012 C 
ENDBRANCH  11  12
ENDBRANCH  10  11
ENDBRANCH   1  10
TORSDOF 4
ENDMDL
