MODEL 1
REMARK VINA RESULT:      56.7      0.000      0.000
REMARK  8 active torsions:
REMARK  status: ('A' for Active; 'I' for Inactive)
REMARK    1  A    between atoms: S_5  and  C_2 
REMARK       I    between atoms: C_3  and  N_9 
REMARK    2  A    between atoms: C_16  and  C_3 
REMARK       I    between atoms: C_4  and  N_8 
REMARK    3  A    between atoms: C_17  and  C_4 
REMARK    4  A    between atoms: C_10  and  S_5 
REMARK    5  A    between atoms: S_11  and  C_6 
REMARK    6  A    between atoms: N_8  and  C_10 
REMARK    7  A    between atoms: N_9  and  C_12 
REMARK    8  A    between atoms: C_12  and  S_11 
ROOT
ATOM      1  N   UNL d   1     -48.466  28.972  35.360  0.00  0.00    -0.214 NA
ATOM      2  C   UNL d   1     -48.496  28.269  34.929  0.00  0.00     0.196 A 
ATOM      3  C   UNL d   1     -47.752  29.193  35.708  0.00  0.00     0.116 A 
ATOM      4  N   UNL d   1     -47.826  27.782  34.840  0.00  0.00    -0.220 NA
ATOM      5  C   UNL d   1     -47.083  28.734  35.635  0.00  0.00     0.047 A 
ATOM      6  C   UNL d   1     -47.112  28.031  35.205  0.00  0.00     0.103 A 
ENDROOT
BRANCH   2   7
ATOM      7  S   UNL d   1     -49.197  27.999  34.557  0.00  0.00    -0.027 SA
BRANCH   7   8
ATOM      8  C   UNL d   1     -49.232  27.263  34.216  0.00  0.00     0.141 C 
BRANCH   8   9
ATOM      9  N   UNL d   1     -50.005  26.920  34.126  0.00  0.00    -0.199 NA
ATOM     10  C   UNL d   1     -50.083  26.215  33.664  0.00  0.00     0.280 C 
ATOM     11  O   UNL d   1     -49.417  25.877  33.313  0.00  0.00    -0.265 OA
BRANCH  10  12
ATOM     12  C   UNL d   1     -50.813  25.851  33.551  0.00  0.00     0.058 A 
ATOM     13  C   UNL d   1     -51.515  26.284  33.566  0.00  0.00     0.005 A 
ATOM     14  C   UNL d   1     -52.238  25.894  33.450  0.00  0.00     0.000 A 
ATOM     15  C   UNL d   1     -52.257  25.084  33.321  0.00  0.00     0.000 A 
ATOM     16  C   UNL d   1     -51.570  24.657  33.306  0.00  0.00     0.000 A 
ATOM     17  C   UNL d   1     -50.835  25.045  33.423  0.00  0.00     0.005 A 
ENDBRANCH  10  12
ENDBRANCH   8   9
ENDBRANCH   7   8
ENDBRANCH   2   7
BRANCH   3  18
ATOM     18  S   UNL d   1     -47.713  29.900  36.143  0.00  0.00    -0.047 SA
BRANCH  18  19
ATOM     19  C   UNL d   1     -47.260  30.529  35.860  0.00  0.00     0.139 C 
BRANCH  19  20
ATOM     20  N   UNL d   1     -47.539  30.989  35.240  0.00  0.00    -0.199 NA
ATOM     21  C   UNL d   1     -47.320  31.778  35.187  0.00  0.00     0.280 C 
ATOM     22  O   UNL d   1     -46.816  32.106  35.764  0.00  0.00    -0.265 OA
BRANCH  21  23
ATOM     23  C   UNL d   1     -47.599  32.242  34.565  0.00  0.00     0.058 A 
ATOM     24  C   UNL d   1     -47.240  32.962  34.391  0.00  0.00     0.005 A 
ATOM     25  C   UNL d   1     -47.500  33.443  33.775  0.00  0.00     0.000 A 
ATOM     26  C   UNL d   1     -48.142  33.203  33.311  0.00  0.00     0.000 A 
ATOM     27  C   UNL d   1     -48.529  32.473  33.466  0.00  0.00     0.000 A 
ATOM     28  C   UNL d   1     -48.245  32.003  34.098  0.00  0.00     0.005 A 
ENDBRANCH  21  23
ENDBRANCH  19  20
ENDBRANCH  18  19
ENDBRANCH   3  18
TORSDOF 8
ENDMDL
