MODEL 1
REMARK VINA RESULT:      78.9      0.000      0.000
REMARK  5 active torsions:
REMARK  status: ('A' for Active; 'I' for Inactive)
REMARK    1  A    between atoms: N_3  and  C_1 
REMARK    2  A    between atoms: C_12  and  N_2 
REMARK       I    between atoms: C_6  and  N_3 
REMARK    3  A    between atoms: C_8  and  C_6 
REMARK    4  A    between atoms: C_16  and  C_12 
REMARK    5  A    between atoms: O_22  and  C_16 
ROOT
ATOM      1  C   UNL d   1      59.422  49.640  51.403  0.00  0.00     0.183 A 
ATOM      2  N   UNL d   1      59.449  49.647  50.582  0.00  0.00    -0.280 N 
ATOM      3  S   UNL d   1      58.634  49.560  51.632  0.00  0.00    -0.048 SA
ATOM      4  C   UNL d   1      58.170  49.517  50.946  0.00  0.00     0.051 A 
ATOM      5  C   UNL d   1      58.677  49.571  50.294  0.00  0.00     0.072 A 
ATOM      6  C   UNL d   1      57.357  49.437  50.832  0.00  0.00     0.038 A 
ATOM      7  C   UNL d   1      58.369  49.545  49.529  0.00  0.00     0.020 A 
ATOM      8  C   UNL d   1      57.050  49.410  50.067  0.00  0.00     0.141 A 
ATOM      9  C   UNL d   1      57.556  49.464  49.415  0.00  0.00     0.031 A 
ATOM     10  F   UNL d   1      56.244  49.330  49.957  0.00  0.00    -0.204 F 
ENDROOT
BRANCH   1  11
ATOM     11  N   UNL d   1      60.076  49.703  51.906  0.00  0.00    -0.183 NA
ATOM     12  C   UNL d   1      60.491  49.023  52.119  0.00  0.00     0.287 C 
ATOM     13  O   UNL d   1      60.252  48.288  51.831  0.00  0.00    -0.265 OA
BRANCH  12  14
ATOM     14  C   UNL d   1      61.135  49.077  52.614  0.00  0.00     0.088 A 
ATOM     15  S   UNL d   1      61.737  48.512  52.703  0.00  0.00    -0.071 SA
ATOM     16  C   UNL d   1      62.268  48.790  53.253  0.00  0.00     0.087 A 
ATOM     17 CL   UNL d   1      62.950  48.421  53.518  0.00  0.00    -0.075 Cl
ATOM     18  C   UNL d   1      62.004  49.519  53.503  0.00  0.00     0.019 A 
ATOM     19  C   UNL d   1      61.310  49.692  53.110  0.00  0.00     0.013 A 
ENDBRANCH  12  14
ENDBRANCH   1  11
BRANCH   2  20
ATOM     20  C   UNL d   1      59.856  49.692  49.868  0.00  0.00     0.151 C 
BRANCH  20  21
ATOM     21  C   UNL d   1      60.514  49.223  49.748  0.00  0.00     0.314 C 
ATOM     22  O   UNL d   1      61.210  49.397  50.142  0.00  0.00    -0.257 OA
BRANCH  21  23
ATOM     23  O   UNL d   1      60.481  48.590  49.241  0.00  0.00    -0.295 OA
ATOM     24  C   UNL d   1      60.725  47.854  49.488  0.00  0.00     0.185 C 
ENDBRANCH  21  23
ENDBRANCH  20  21
ENDBRANCH   2  20
TORSDOF 5
ENDMDL
MODEL 2
REMARK VINA RESULT:      79.3      2.457      4.219
REMARK  5 active torsions:
REMARK  status: ('A' for Active; 'I' for Inactive)
REMARK    1  A    between atoms: N_3  and  C_1 
REMARK    2  A    between atoms: C_12  and  N_2 
REMARK       I    between atoms: C_6  and  N_3 
REMARK    3  A    between atoms: C_8  and  C_6 
REMARK    4  A    between atoms: C_16  and  C_12 
REMARK    5  A    between atoms: O_22  and  C_16 
ROOT
ATOM      1  C   UNL d   1      60.036  48.297  50.560  0.00  0.00     0.183 A 
ATOM      2  N   UNL d   1      60.768  48.416  50.915  0.00  0.00    -0.280 N 
ATOM      3  S   UNL d   1      60.096  47.637  50.069  0.00  0.00    -0.048 SA
ATOM      4  C   UNL d   1      60.871  47.346  50.121  0.00  0.00     0.051 A 
ATOM      5  C   UNL d   1      61.288  47.830  50.647  0.00  0.00     0.072 A 
ATOM      6  C   UNL d   1      61.248  46.708  49.760  0.00  0.00     0.038 A 
ATOM      7  C   UNL d   1      62.081  47.675  50.811  0.00  0.00     0.020 A 
ATOM      8  C   UNL d   1      62.041  46.552  49.924  0.00  0.00     0.141 A 
ATOM      9  C   UNL d   1      62.458  47.036  50.450  0.00  0.00     0.031 A 
ATOM     10  F   UNL d   1      62.411  45.918  49.564  0.00  0.00    -0.204 F 
ENDROOT
BRANCH   1  11
ATOM     11  N   UNL d   1      59.363  48.761  50.679  0.00  0.00    -0.183 NA
ATOM     12  C   UNL d   1      58.615  48.425  50.586  0.00  0.00     0.287 C 
ATOM     13  O   UNL d   1      58.546  47.630  50.374  0.00  0.00    -0.265 OA
BRANCH  12  14
ATOM     14  C   UNL d   1      57.948  48.876  50.701  0.00  0.00     0.088 A 
ATOM     15  S   UNL d   1      57.503  48.928  51.401  0.00  0.00    -0.071 SA
ATOM     16  C   UNL d   1      56.885  49.441  51.271  0.00  0.00     0.087 A 
ATOM     17 CL   UNL d   1      56.302  49.662  51.804  0.00  0.00    -0.075 Cl
ATOM     18  C   UNL d   1      56.941  49.705  50.502  0.00  0.00     0.019 A 
ATOM     19  C   UNL d   1      57.593  49.357  50.156  0.00  0.00     0.013 A 
ENDBRANCH  12  14
ENDBRANCH   1  11
BRANCH   2  20
ATOM     20  C   UNL d   1      61.274  48.827  51.416  0.00  0.00     0.151 C 
BRANCH  20  21
ATOM     21  C   UNL d   1      60.971  49.214  52.069  0.00  0.00     0.314 C 
ATOM     22  O   UNL d   1      60.324  49.706  51.981  0.00  0.00    -0.257 OA
BRANCH  21  23
ATOM     23  O   UNL d   1      61.309  49.112  52.800  0.00  0.00    -0.295 OA
ATOM     24  C   UNL d   1      61.872  49.635  53.068  0.00  0.00     0.185 C 
ENDBRANCH  21  23
ENDBRANCH  20  21
ENDBRANCH   2  20
TORSDOF 5
ENDMDL
