MODEL 1
REMARK VINA RESULT:      41.4      0.000      0.000
REMARK  3 active torsions:
REMARK  status: ('A' for Active; 'I' for Inactive)
REMARK    1  A    between atoms: N_2  and  S_1 
REMARK    2  A    between atoms: N_4  and  S_1 
REMARK    3  A    between atoms: C_9  and  N_3 
ROOT
ATOM      1  N   UNL d   1      14.588  14.521  -1.724  0.00  0.00    -0.213 N 
ATOM      2  N   UNL d   1      13.984  13.604  -2.949  0.00  0.00    -0.301 N 
ATOM      3  C   UNL d   1      14.441  13.730  -1.605  0.00  0.00     0.112 A 
ATOM      4  C   UNL d   1      14.436  14.888  -2.469  0.00  0.00     0.112 A 
ATOM      5  C   UNL d   1      14.139  13.270  -2.220  0.00  0.00     0.100 A 
ATOM      6  C   UNL d   1      14.134  14.429  -3.084  0.00  0.00     0.100 A 
ENDROOT
BRANCH   2   7
ATOM      7  C   UNL d   1      13.679  13.142  -3.567  0.00  0.00     0.064 A 
ATOM      8  C   UNL d   1      13.591  13.482  -4.318  0.00  0.00     0.018 A 
ATOM      9  C   UNL d   1      13.287  13.023  -4.938  0.00  0.00     0.013 A 
ATOM     10  C   UNL d   1      13.076  12.239  -4.809  0.00  0.00     0.058 A 
ATOM     11  C   UNL d   1      13.168  11.906  -4.050  0.00  0.00     0.013 A 
ATOM     12 CL   UNL d   1      12.772  11.780  -5.429  0.00  0.00    -0.082 Cl
ATOM     13  C   UNL d   1      13.469  12.360  -3.435  0.00  0.00     0.018 A 
ENDBRANCH   2   7
BRANCH   1  14
ATOM     14  S   UNL d   1      14.897  14.990  -1.097  0.00  0.00     0.337 S 
ATOM     15  O   UNL d   1      15.342  15.667  -1.265  0.00  0.00    -0.181 OA
ATOM     16  O   UNL d   1      14.755  14.772  -0.307  0.00  0.00    -0.181 OA
BRANCH  14  17
ATOM     17  N   UNL d   1      15.280  15.571  -0.641  0.00  0.00    -0.213 N 
ATOM     18  C   UNL d   1      15.784  15.350  -0.034  0.00  0.00     0.113 C 
ATOM     19  C   UNL d   1      15.149  16.378  -0.802  0.00  0.00     0.113 C 
ENDBRANCH  14  17
ENDBRANCH   1  14
TORSDOF 3
ENDMDL
MODEL 2
REMARK VINA RESULT:      42.5      2.669      4.464
REMARK  3 active torsions:
REMARK  status: ('A' for Active; 'I' for Inactive)
REMARK    1  A    between atoms: N_2  and  S_1 
REMARK    2  A    between atoms: N_4  and  S_1 
REMARK    3  A    between atoms: C_9  and  N_3 
ROOT
ATOM      1  N   UNL d   1      13.607  13.716  -3.621  0.00  0.00    -0.213 N 
ATOM      2  N   UNL d   1      14.279  14.891  -2.687  0.00  0.00    -0.301 N 
ATOM      3  C   UNL d   1      13.922  13.527  -2.896  0.00  0.00     0.112 A 
ATOM      4  C   UNL d   1      13.616  14.509  -3.911  0.00  0.00     0.112 A 
ATOM      5  C   UNL d   1      14.259  14.117  -2.427  0.00  0.00     0.100 A 
ATOM      6  C   UNL d   1      13.954  15.099  -3.443  0.00  0.00     0.100 A 
ENDROOT
BRANCH   2   7
ATOM      7  C   UNL d   1      14.619  15.484  -2.216  0.00  0.00     0.064 A 
ATOM      8  C   UNL d   1      14.916  15.283  -1.468  0.00  0.00     0.018 A 
ATOM      9  C   UNL d   1      15.256  15.872  -0.995  0.00  0.00     0.013 A 
ATOM     10  C   UNL d   1      15.297  16.649  -1.264  0.00  0.00     0.058 A 
ATOM     11  C   UNL d   1      14.995  16.840  -2.018  0.00  0.00     0.013 A 
ATOM     12 CL   UNL d   1      15.637  17.238  -0.790  0.00  0.00    -0.082 Cl
ATOM     13  C   UNL d   1      14.658  16.257  -2.487  0.00  0.00     0.018 A 
ENDBRANCH   2   7
BRANCH   1  14
ATOM     14  S   UNL d   1      13.263  13.114  -4.099  0.00  0.00     0.337 S 
ATOM     15  O   UNL d   1      13.403  12.317  -3.928  0.00  0.00    -0.181 OA
ATOM     16  O   UNL d   1      12.781  13.321  -4.744  0.00  0.00    -0.181 OA
BRANCH  14  17
ATOM     17  N   UNL d   1      13.027  12.390  -4.434  0.00  0.00    -0.213 N 
ATOM     18  C   UNL d   1      12.770  11.779  -3.952  0.00  0.00     0.113 C 
ATOM     19  C   UNL d   1      13.052  12.287  -5.260  0.00  0.00     0.113 C 
ENDBRANCH  14  17
ENDBRANCH   1  14
TORSDOF 3
ENDMDL
MODEL 3
REMARK VINA RESULT:      44.2      2.956      4.575
REMARK  3 active torsions:
REMARK  status: ('A' for Active; 'I' for Inactive)
REMARK    1  A    between atoms: N_2  and  S_1 
REMARK    2  A    between atoms: N_4  and  S_1 
REMARK    3  A    between atoms: C_9  and  N_3 
ROOT
ATOM      1  N   UNL d   1      14.688  13.693  -0.754  0.00  0.00    -0.213 N 
ATOM      2  N   UNL d   1      15.072  15.292  -0.779  0.00  0.00    -0.301 N 
ATOM      3  C   UNL d   1      14.591  14.123  -1.436  0.00  0.00     0.112 A 
ATOM      4  C   UNL d   1      14.984  14.050  -0.048  0.00  0.00     0.112 A 
ATOM      5  C   UNL d   1      14.784  14.925  -1.449  0.00  0.00     0.100 A 
ATOM      6  C   UNL d   1      15.177  14.852  -0.060  0.00  0.00     0.100 A 
ENDROOT
BRANCH   2   7
ATOM      7  C   UNL d   1      15.266  16.099  -0.791  0.00  0.00     0.064 A 
ATOM      8  C   UNL d   1      15.839  16.383  -0.264  0.00  0.00     0.018 A 
ATOM      9  C   UNL d   1      16.035  17.189  -0.273  0.00  0.00     0.013 A 
ATOM     10  C   UNL d   1      15.665  17.700  -0.801  0.00  0.00     0.058 A 
ATOM     11  C   UNL d   1      15.090  17.403  -1.327  0.00  0.00     0.013 A 
ATOM     12 CL   UNL d   1      15.862  18.506  -0.810  0.00  0.00    -0.082 Cl
ATOM     13  C   UNL d   1      14.895  16.606  -1.318  0.00  0.00     0.018 A 
ENDBRANCH   2   7
BRANCH   1  14
ATOM     14  S   UNL d   1      14.491  12.874  -0.741  0.00  0.00     0.337 S 
ATOM     15  O   UNL d   1      13.699  12.637  -0.768  0.00  0.00    -0.181 OA
ATOM     16  O   UNL d   1      15.094  12.303  -0.701  0.00  0.00    -0.181 OA
BRANCH  14  17
ATOM     17  N   UNL d   1      14.095  12.142  -0.739  0.00  0.00    -0.213 N 
ATOM     18  C   UNL d   1      13.909  11.779  -0.029  0.00  0.00     0.113 C 
ATOM     19  C   UNL d   1      13.890  11.780  -1.460  0.00  0.00     0.113 C 
ENDBRANCH  14  17
ENDBRANCH   1  14
TORSDOF 3
ENDMDL
