MODEL 1
REMARK VINA RESULT:      -9.2      0.000      0.000
REMARK  5 active torsions:
REMARK  status: ('A' for Active; 'I' for Inactive)
REMARK    1  A    between atoms: N_19  and  C_6 
REMARK    2  A    between atoms: N_15  and  C_21 
REMARK    3  A    between atoms: C_25  and  N_19 
REMARK    4  A    between atoms: C_21  and  C_22 
REMARK    5  A    between atoms: C_22  and  C_25 
ROOT
ATOM      1  N   UNL d   1      51.895  33.395  53.053  0.00  0.00    -0.183 N 
ATOM      2  C   UNL d   1      52.628  33.224  53.391  0.00  0.00     0.169 A 
ATOM      3  C   UNL d   1      52.916  32.464  53.396  0.00  0.00     0.073 A 
ATOM      4  C   UNL d   1      52.466  31.875  53.060  0.00  0.00     0.185 A 
ATOM      5  N   UNL d   1      51.733  32.045  52.722  0.00  0.00    -0.142 NA
ATOM      6  C   UNL d   1      51.624  34.161  53.058  0.00  0.00     0.218 A 
ATOM      7  N   UNL d   1      53.071  33.824  53.725  0.00  0.00    -0.226 NA
ATOM      8  C   UNL d   1      53.641  32.295  53.730  0.00  0.00     0.007 A 
ATOM      9  N   UNL d   1      52.744  31.099  53.057  0.00  0.00    -0.225 NA
ATOM     10  C   UNL d   1      52.058  34.758  53.388  0.00  0.00     0.071 A 
ATOM     11  C   UNL d   1      53.929  31.534  53.734  0.00  0.00     0.019 A 
ATOM     12  C   UNL d   1      52.791  34.587  53.726  0.00  0.00     0.087 A 
ATOM     13  C   UNL d   1      53.477  30.928  53.394  0.00  0.00     0.083 A 
ATOM     14  C   UNL d   1      54.084  32.898  54.065  0.00  0.00     0.000 C 
ATOM     15  C   UNL d   1      53.249  35.213  54.072  0.00  0.00     0.021 C 
ATOM     16  C   UNL d   1      53.757  30.169  53.395  0.00  0.00     0.021 C 
ENDROOT
BRANCH   6  17
ATOM     17  N   UNL d   1      50.866  34.329  52.707  0.00  0.00    -0.380 NA
BRANCH  17  18
ATOM     18  C   UNL d   1      50.137  34.466  52.301  0.00  0.00     0.164 C 
BRANCH  18  19
ATOM     19  C   UNL d   1      49.524  34.902  52.675  0.00  0.00     0.054 C 
BRANCH  19  20
ATOM     20  C   UNL d   1      48.800  35.032  52.277  0.00  0.00     0.084 C 
BRANCH  20  21
ATOM     21  N   UNL d   1      48.254  35.612  52.561  0.00  0.00    -0.285 N 
ATOM     22  C   UNL d   1      48.241  35.951  53.327  0.00  0.00     0.183 A 
ATOM     23  N   UNL d   1      47.594  36.507  53.357  0.00  0.00    -0.222 NA
ATOM     24  C   UNL d   1      47.210  36.505  52.603  0.00  0.00     0.120 A 
ATOM     25  C   UNL d   1      47.619  35.947  52.103  0.00  0.00     0.102 A 
ENDBRANCH  20  21
ENDBRANCH  19  20
ENDBRANCH  18  19
ENDBRANCH  17  18
ENDBRANCH   6  17
TORSDOF 5
ENDMDL
MODEL 2
REMARK VINA RESULT:      -8.5      1.143      2.356
REMARK  5 active torsions:
REMARK  status: ('A' for Active; 'I' for Inactive)
REMARK    1  A    between atoms: N_19  and  C_6 
REMARK    2  A    between atoms: N_15  and  C_21 
REMARK    3  A    between atoms: C_25  and  N_19 
REMARK    4  A    between atoms: C_21  and  C_22 
REMARK    5  A    between atoms: C_22  and  C_25 
ROOT
ATOM      1  N   UNL d   1      52.301  33.635  53.703  0.00  0.00    -0.183 N 
ATOM      2  C   UNL d   1      52.952  33.135  53.790  0.00  0.00     0.169 A 
ATOM      3  C   UNL d   1      53.596  33.366  54.228  0.00  0.00     0.073 A 
ATOM      4  C   UNL d   1      53.587  34.100  54.579  0.00  0.00     0.185 A 
ATOM      5  N   UNL d   1      52.936  34.600  54.493  0.00  0.00    -0.142 NA
ATOM      6  C   UNL d   1      51.666  33.386  53.261  0.00  0.00     0.218 A 
ATOM      7  N   UNL d   1      52.950  32.401  53.432  0.00  0.00    -0.226 NA
ATOM      8  C   UNL d   1      54.240  32.872  54.314  0.00  0.00     0.007 A 
ATOM      9  N   UNL d   1      54.232  34.349  55.027  0.00  0.00    -0.225 NA
ATOM     10  C   UNL d   1      51.660  32.661  52.905  0.00  0.00     0.071 A 
ATOM     11  C   UNL d   1      54.885  33.104  54.753  0.00  0.00     0.019 A 
ATOM     12  C   UNL d   1      52.311  32.161  52.992  0.00  0.00     0.087 A 
ATOM     13  C   UNL d   1      54.883  33.849  55.114  0.00  0.00     0.083 A 
ATOM     14  C   UNL d   1      54.237  32.135  53.955  0.00  0.00     0.000 C 
ATOM     15  C   UNL d   1      52.306  31.398  52.620  0.00  0.00     0.021 C 
ATOM     16  C   UNL d   1      55.521  34.086  55.552  0.00  0.00     0.021 C 
ENDROOT
BRANCH   6  17
ATOM     17  N   UNL d   1      50.998  33.908  53.176  0.00  0.00    -0.380 NA
BRANCH  17  18
ATOM     18  C   UNL d   1      50.357  34.459  53.149  0.00  0.00     0.164 C 
BRANCH  18  19
ATOM     19  C   UNL d   1      49.836  34.464  52.490  0.00  0.00     0.054 C 
BRANCH  19  20
ATOM     20  C   UNL d   1      49.202  35.009  52.462  0.00  0.00     0.084 C 
BRANCH  20  21
ATOM     21  N   UNL d   1      48.636  34.973  51.834  0.00  0.00    -0.285 N 
ATOM     22  C   UNL d   1      48.687  34.503  51.142  0.00  0.00     0.183 A 
ATOM     23  N   UNL d   1      47.990  34.651  50.673  0.00  0.00    -0.222 NA
ATOM     24  C   UNL d   1      47.511  35.216  51.082  0.00  0.00     0.120 A 
ATOM     25  C   UNL d   1      47.911  35.420  51.808  0.00  0.00     0.102 A 
ENDBRANCH  20  21
ENDBRANCH  19  20
ENDBRANCH  18  19
ENDBRANCH  17  18
ENDBRANCH   6  17
TORSDOF 5
ENDMDL
