MODEL 1
REMARK VINA RESULT:     136.0      0.000      0.000
REMARK  5 active torsions:
REMARK  status: ('A' for Active; 'I' for Inactive)
REMARK    1  A    between atoms: N_8  and  C_1 
REMARK    2  A    between atoms: S_2  and  C_7 
REMARK    3  A    between atoms: N_9  and  S_2 
REMARK    4  A    between atoms: C_17  and  N_5 
REMARK       I    between atoms: C_10  and  N_8 
REMARK    5  A    between atoms: C_12  and  C_10 
ROOT
ATOM      1  N   UNL d   1     -55.359-101.289 -42.409  0.00  0.00    -0.202 NA
ATOM      2  C   UNL d   1     -55.005-101.971 -42.087  0.00  0.00     0.279 C 
ATOM      3  O   UNL d   1     -54.717-102.561 -42.590  0.00  0.00    -0.265 OA
ENDROOT
BRANCH   2   4
ATOM      4  C   UNL d   1     -54.943-102.052 -41.276  0.00  0.00     0.059 A 
ATOM      5  C   UNL d   1     -55.001-101.390 -40.783  0.00  0.00     0.019 A 
ATOM      6  C   UNL d   1     -54.939-101.476 -39.965  0.00  0.00     0.115 A 
ATOM      7  C   UNL d   1     -54.819-102.225 -39.640  0.00  0.00     0.070 A 
ATOM      8  C   UNL d   1     -54.761-102.879 -40.128  0.00  0.00     0.012 A 
ATOM      9 CL   UNL d   1     -54.756-102.311 -38.823  0.00  0.00    -0.082 Cl
ATOM     10  C   UNL d   1     -54.823-102.801 -40.952  0.00  0.00     0.006 A 
BRANCH   6  11
ATOM     11  S   UNL d   1     -54.998-100.811 -39.476  0.00  0.00     0.272 S 
ATOM     12  O   UNL d   1     -55.212-101.301 -38.844  0.00  0.00    -0.200 OA
ATOM     13  O   UNL d   1     -54.785-100.323 -40.104  0.00  0.00    -0.200 OA
BRANCH  11  14
ATOM     14  N   UNL d   1     -55.058-100.152 -38.986  0.00  0.00    -0.229 N 
ATOM     15  C   UNL d   1     -55.387 -99.464 -39.279  0.00  0.00     0.092 A 
ATOM     16  C   UNL d   1     -55.447 -98.802 -38.786  0.00  0.00     0.020 A 
ATOM     17  C   UNL d   1     -55.177 -98.840 -38.008  0.00  0.00     0.003 A 
ATOM     18  C   UNL d   1     -54.847 -99.540 -37.722  0.00  0.00     0.020 A 
ATOM     19  C   UNL d   1     -54.787-100.197 -38.212  0.00  0.00     0.092 A 
ENDBRANCH  11  14
ENDBRANCH   6  11
ENDBRANCH   2   4
BRANCH   1  20
ATOM     20  C   UNL d   1     -55.419-101.211 -43.222  0.00  0.00     0.160 A 
ATOM     21  C   UNL d   1     -55.638-101.800 -43.760  0.00  0.00     0.298 A 
ATOM     22  N   UNL d   1     -55.622-101.477 -44.511  0.00  0.00    -0.209 N 
ATOM     23  O   UNL d   1     -55.835-102.572 -43.567  0.00  0.00    -0.263 OA
ATOM     24  N   UNL d   1     -55.394-100.687 -44.443  0.00  0.00    -0.238 N 
ATOM     25  C   UNL d   1     -55.268-100.520 -43.651  0.00  0.00     0.104 A 
ATOM     26  C   UNL d   1     -55.308-100.160 -45.061  0.00  0.00     0.120 C 
ATOM     27  C   UNL d   1     -55.035 -99.803 -43.337  0.00  0.00     0.022 C 
BRANCH  22  28
ATOM     28  C   UNL d   1     -55.802-101.869 -45.204  0.00  0.00     0.085 A 
ATOM     29  C   UNL d   1     -56.582-102.041 -45.381  0.00  0.00     0.019 A 
ATOM     30  C   UNL d   1     -56.760-102.435 -46.078  0.00  0.00     0.002 A 
ATOM     31  C   UNL d   1     -56.169-102.656 -46.594  0.00  0.00     0.000 A 
ATOM     32  C   UNL d   1     -55.381-102.481 -46.410  0.00  0.00     0.002 A 
ATOM     33  C   UNL d   1     -55.203-102.086 -45.713  0.00  0.00     0.019 A 
ENDBRANCH  22  28
ENDBRANCH   1  20
TORSDOF 5
ENDMDL
