MODEL 1
REMARK VINA RESULT:      -8.0      0.000      0.000
REMARK  2 active torsions:
REMARK  status: ('A' for Active; 'I' for Inactive)
REMARK    1  A    between atoms: C_2  and  S_1 
REMARK    2  A    between atoms: C_7  and  C_3 
ROOT
ATOM      1  C   UNL d   1      52.813  34.071  53.749  0.00  0.00     0.117 A 
ATOM      2  C   UNL d   1      53.773  33.057  54.078  0.00  0.00     0.076 A 
ATOM      3  C   UNL d   1      53.149  33.331  53.609  0.00  0.00     0.021 A 
ATOM      4  C   UNL d   1      53.097  34.546  54.358  0.00  0.00     0.071 A 
ATOM      5  C   UNL d   1      54.058  33.531  54.688  0.00  0.00     0.065 A 
ATOM      6  C   UNL d   1      53.719  34.279  54.829  0.00  0.00     0.024 A 
ATOM      7 CL   UNL d   1      54.679  33.264  55.158  0.00  0.00    -0.082 Cl
ATOM      8 CL   UNL d   1      52.762  35.285  54.498  0.00  0.00    -0.082 Cl
ENDROOT
BRANCH   1   9
ATOM      9  S   UNL d   1      52.189  34.337  53.275  0.00  0.00     0.303 S 
ATOM     10  O   UNL d   1      52.713  34.774  52.821  0.00  0.00    -0.197 OA
ATOM     11  O   UNL d   1      51.647  33.896  53.732  0.00  0.00    -0.197 OA
ATOM     12  N   UNL d   1      51.560  34.598  52.807  0.00  0.00    -0.043 N 
ENDBRANCH   1   9
BRANCH   2  13
ATOM     13  C   UNL d   1      54.107  32.316  53.935  0.00  0.00     0.212 C 
ATOM     14  O   UNL d   1      53.814  31.648  54.317  0.00  0.00    -0.644 OA
ATOM     15  O   UNL d   1      54.738  32.247  53.406  0.00  0.00    -0.644 OA
ENDBRANCH   2  13
TORSDOF 2
ENDMDL
MODEL 2
REMARK VINA RESULT:      -7.9      1.343      2.659
REMARK  2 active torsions:
REMARK  status: ('A' for Active; 'I' for Inactive)
REMARK    1  A    between atoms: C_2  and  S_1 
REMARK    2  A    between atoms: C_7  and  C_3 
ROOT
ATOM      1  C   UNL d   1      53.674  33.043  54.025  0.00  0.00     0.117 A 
ATOM      2  C   UNL d   1      52.868  34.177  53.674  0.00  0.00     0.076 A 
ATOM      3  C   UNL d   1      53.122  33.404  53.529  0.00  0.00     0.021 A 
ATOM      4  C   UNL d   1      53.977  33.452  54.672  0.00  0.00     0.071 A 
ATOM      5  C   UNL d   1      53.171  34.587  54.321  0.00  0.00     0.065 A 
ATOM      6  C   UNL d   1      53.728  34.223  54.822  0.00  0.00     0.024 A 
ATOM      7 CL   UNL d   1      52.922  35.357  54.471  0.00  0.00    -0.082 Cl
ATOM      8 CL   UNL d   1      54.528  33.092  55.168  0.00  0.00    -0.082 Cl
ENDROOT
BRANCH   1   9
ATOM      9  S   UNL d   1      53.923  32.269  53.873  0.00  0.00     0.303 S 
ATOM     10  O   UNL d   1      53.303  31.976  54.320  0.00  0.00    -0.197 OA
ATOM     11  O   UNL d   1      54.558  32.558  53.414  0.00  0.00    -0.197 OA
ATOM     12  N   UNL d   1      54.178  31.499  53.715  0.00  0.00    -0.043 N 
ENDBRANCH   1   9
BRANCH   2  13
ATOM     13  C   UNL d   1      52.316  34.534  53.175  0.00  0.00     0.212 C 
ATOM     14  O   UNL d   1      51.514  34.504  53.354  0.00  0.00    -0.644 OA
ATOM     15  O   UNL d   1      52.574  34.925  52.494  0.00  0.00    -0.644 OA
ENDBRANCH   2  13
TORSDOF 2
ENDMDL
MODEL 3
REMARK VINA RESULT:      -7.9      1.973      2.491
REMARK  2 active torsions:
REMARK  status: ('A' for Active; 'I' for Inactive)
REMARK    1  A    between atoms: C_2  and  S_1 
REMARK    2  A    between atoms: C_7  and  C_3 
ROOT
ATOM      1  C   UNL d   1      53.749  33.098  54.282  0.00  0.00     0.117 A 
ATOM      2  C   UNL d   1      52.997  32.218  53.435  0.00  0.00     0.076 A 
ATOM      3  C   UNL d   1      53.665  32.374  53.896  0.00  0.00     0.021 A 
ATOM      4  C   UNL d   1      53.166  33.674  54.211  0.00  0.00     0.071 A 
ATOM      5  C   UNL d   1      52.412  32.794  53.364  0.00  0.00     0.065 A 
ATOM      6  C   UNL d   1      52.497  33.525  53.754  0.00  0.00     0.024 A 
ATOM      7 CL   UNL d   1      51.744  32.645  52.906  0.00  0.00    -0.082 Cl
ATOM      8 CL   UNL d   1      53.250  34.397  54.597  0.00  0.00    -0.082 Cl
ENDROOT
BRANCH   1   9
ATOM      9  S   UNL d   1      54.422  33.246  54.742  0.00  0.00     0.303 S 
ATOM     10  O   UNL d   1      54.023  32.999  55.413  0.00  0.00    -0.197 OA
ATOM     11  O   UNL d   1      54.836  33.499  54.062  0.00  0.00    -0.197 OA
ATOM     12  N   UNL d   1      55.098  33.396  55.192  0.00  0.00    -0.043 N 
ENDBRANCH   1   9
BRANCH   2  13
ATOM     13  C   UNL d   1      52.916  31.493  53.050  0.00  0.00     0.212 C 
ATOM     14  O   UNL d   1      52.951  31.452  52.229  0.00  0.00    -0.644 OA
ATOM     15  O   UNL d   1      52.800  30.805  53.494  0.00  0.00    -0.644 OA
ENDBRANCH   2  13
TORSDOF 2
ENDMDL
MODEL 4
REMARK VINA RESULT:      -7.8      1.767      2.119
REMARK  2 active torsions:
REMARK  status: ('A' for Active; 'I' for Inactive)
REMARK    1  A    between atoms: C_2  and  S_1 
REMARK    2  A    between atoms: C_7  and  C_3 
ROOT
ATOM      1  C   UNL d   1      53.030  32.426  53.572  0.00  0.00     0.117 A 
ATOM      2  C   UNL d   1      53.867  33.178  54.463  0.00  0.00     0.076 A 
ATOM      3  C   UNL d   1      53.722  32.498  54.016  0.00  0.00     0.021 A 
ATOM      4  C   UNL d   1      52.475  33.034  53.571  0.00  0.00     0.071 A 
ATOM      5  C   UNL d   1      53.312  33.787  54.462  0.00  0.00     0.065 A 
ATOM      6  C   UNL d   1      52.613  33.715  54.014  0.00  0.00     0.024 A 
ATOM      7 CL   UNL d   1      53.450  34.467  54.905  0.00  0.00    -0.082 Cl
ATOM      8 CL   UNL d   1      51.784  32.963  53.128  0.00  0.00    -0.082 Cl
ENDROOT
BRANCH   1   9
ATOM      9  S   UNL d   1      52.893  31.742  53.128  0.00  0.00     0.303 S 
ATOM     10  O   UNL d   1      53.078  32.145  52.440  0.00  0.00    -0.197 OA
ATOM     11  O   UNL d   1      52.702  31.322  53.824  0.00  0.00    -0.197 OA
ATOM     12  N   UNL d   1      52.754  31.053  52.692  0.00  0.00    -0.043 N 
ENDBRANCH   1   9
BRANCH   2  13
ATOM     13  C   UNL d   1      54.560  33.246  54.905  0.00  0.00     0.212 C 
ATOM     14  O   UNL d   1      54.566  33.042  55.702  0.00  0.00    -0.644 OA
ATOM     15  O   UNL d   1      55.250  33.520  54.543  0.00  0.00    -0.644 OA
ENDBRANCH   2  13
TORSDOF 2
ENDMDL
