MODEL 1
REMARK VINA RESULT:      29.9      0.000      0.000
REMARK  7 active torsions:
REMARK  status: ('A' for Active; 'I' for Inactive)
REMARK    1  A    between atoms: C_3  and  N_1 
REMARK       I    between atoms: C_2  and  N_8 
REMARK    2  A    between atoms: O_16  and  C_2 
REMARK    3  A    between atoms: C_7  and  C_5 
REMARK    4  A    between atoms: C_12  and  C_7 
REMARK    5  A    between atoms: N_8  and  C_14 
REMARK    6  A    between atoms: S_11  and  C_12 
REMARK    7  A    between atoms: C_15  and  S_11 
ROOT
ATOM      1  S   UNL d   1      14.329  12.672  -1.018  0.00  0.00    -0.083 SA
ENDROOT
BRANCH   1   2
ATOM      2  C   UNL d   1      14.270  12.483  -1.815  0.00  0.00     0.077 C 
BRANCH   2   3
ATOM      3  C   UNL d   1      13.552  12.221  -2.125  0.00  0.00     0.202 C 
ATOM      4  O   UNL d   1      13.030  11.798  -1.653  0.00  0.00    -0.286 OA
BRANCH   3   5
ATOM      5  C   UNL d   1      13.360  12.384  -2.911  0.00  0.00     0.041 A 
ATOM      6  C   UNL d   1      13.462  13.140  -3.209  0.00  0.00     0.027 A 
ATOM      7  C   UNL d   1      13.270  13.303  -3.994  0.00  0.00     0.127 A 
ATOM      8  C   UNL d   1      12.974  12.701  -4.481  0.00  0.00     0.024 A 
ATOM      9  C   UNL d   1      12.873  11.941  -4.177  0.00  0.00     0.002 A 
ATOM     10  C   UNL d   1      13.064  11.782  -3.398  0.00  0.00     0.003 A 
BRANCH   7  11
ATOM     11  N   UNL d   1      13.372  14.064  -4.298  0.00  0.00    -0.114 N 
ATOM     12  O   UNL d   1      12.769  14.543  -4.597  0.00  0.00    -0.532 OA
ATOM     13  O   UNL d   1      14.094  14.440  -4.340  0.00  0.00    -0.532 OA
ENDBRANCH   7  11
ENDBRANCH   3   5
ENDBRANCH   2   3
ENDBRANCH   1   2
BRANCH   1  14
ATOM     14  C   UNL d   1      14.612  13.416  -0.788  0.00  0.00     0.030 A 
ATOM     15  C   UNL d   1      14.138  14.103  -0.863  0.00  0.00     0.008 A 
ATOM     16  C   UNL d   1      14.420  14.844  -0.634  0.00  0.00     0.020 A 
ATOM     17  C   UNL d   1      15.182  14.916  -0.326  0.00  0.00     0.087 A 
ATOM     18  C   UNL d   1      15.659  14.253  -0.246  0.00  0.00     0.020 A 
ATOM     19  C   UNL d   1      15.378  13.512  -0.475  0.00  0.00     0.008 A 
BRANCH  17  20
ATOM     20  N   UNL d   1      15.465  15.660  -0.096  0.00  0.00    -0.186 NA
ATOM     21  C   UNL d   1      15.356  16.310  -0.586  0.00  0.00     0.388 C 
ATOM     22  O   UNL d   1      14.966  16.224  -1.308  0.00  0.00    -0.236 OA
BRANCH  21  23
ATOM     23  O   UNL d   1      15.638  17.051  -0.357  0.00  0.00    -0.281 OA
ATOM     24  C   UNL d   1      15.672  17.665  -0.908  0.00  0.00     0.186 C 
ENDBRANCH  21  23
ENDBRANCH  17  20
ENDBRANCH   1  14
TORSDOF 7
ENDMDL
MODEL 2
REMARK VINA RESULT:      32.1      2.039      4.051
REMARK  7 active torsions:
REMARK  status: ('A' for Active; 'I' for Inactive)
REMARK    1  A    between atoms: C_3  and  N_1 
REMARK       I    between atoms: C_2  and  N_8 
REMARK    2  A    between atoms: O_16  and  C_2 
REMARK    3  A    between atoms: C_7  and  C_5 
REMARK    4  A    between atoms: C_12  and  C_7 
REMARK    5  A    between atoms: N_8  and  C_14 
REMARK    6  A    between atoms: S_11  and  C_12 
REMARK    7  A    between atoms: C_15  and  S_11 
ROOT
ATOM      1  S   UNL d   1      13.093  12.165  -3.640  0.00  0.00    -0.083 SA
ENDROOT
BRANCH   1   2
ATOM      2  C   UNL d   1      13.151  12.181  -2.821  0.00  0.00     0.077 C 
BRANCH   2   3
ATOM      3  C   UNL d   1      13.876  12.035  -2.456  0.00  0.00     0.202 C 
ATOM      4  O   UNL d   1      14.517  11.780  -2.902  0.00  0.00    -0.286 OA
BRANCH   3   5
ATOM      5  C   UNL d   1      13.956  12.146  -1.642  0.00  0.00     0.041 A 
ATOM      6  C   UNL d   1      14.559  12.616  -1.350  0.00  0.00     0.027 A 
ATOM      7  C   UNL d   1      14.639  12.727  -0.537  0.00  0.00     0.127 A 
ATOM      8  C   UNL d   1      14.107  12.361  -0.016  0.00  0.00     0.024 A 
ATOM      9  C   UNL d   1      13.501  11.889  -0.314  0.00  0.00     0.002 A 
ATOM     10  C   UNL d   1      13.424  11.780  -1.121  0.00  0.00     0.003 A 
BRANCH   7  11
ATOM     11  N   UNL d   1      15.246  13.200  -0.238  0.00  0.00    -0.114 N 
ATOM     12  O   UNL d   1      16.017  12.946  -0.083  0.00  0.00    -0.532 OA
ATOM     13  O   UNL d   1      15.155  13.990  -0.058  0.00  0.00    -0.532 OA
ENDBRANCH   7  11
ENDBRANCH   3   5
ENDBRANCH   2   3
ENDBRANCH   1   2
BRANCH   1  14
ATOM     14  C   UNL d   1      13.163  12.866  -4.075  0.00  0.00     0.030 A 
ATOM     15  C   UNL d   1      13.523  12.875  -4.831  0.00  0.00     0.008 A 
ATOM     16  C   UNL d   1      13.593  13.574  -5.264  0.00  0.00     0.020 A 
ATOM     17  C   UNL d   1      13.304  14.281  -4.951  0.00  0.00     0.087 A 
ATOM     18  C   UNL d   1      12.948  14.290  -4.211  0.00  0.00     0.020 A 
ATOM     19  C   UNL d   1      12.878  13.591  -3.779  0.00  0.00     0.008 A 
BRANCH  17  20
ATOM     20  N   UNL d   1      13.374  14.983  -5.386  0.00  0.00    -0.186 NA
ATOM     21  C   UNL d   1      13.719  15.645  -5.044  0.00  0.00     0.388 C 
ATOM     22  O   UNL d   1      13.996  15.614  -4.267  0.00  0.00    -0.236 OA
BRANCH  21  23
ATOM     23  O   UNL d   1      13.789  16.344  -5.477  0.00  0.00    -0.281 OA
ATOM     24  C   UNL d   1      14.532  16.595  -5.734  0.00  0.00     0.186 C 
ENDBRANCH  21  23
ENDBRANCH  17  20
ENDBRANCH   1  14
TORSDOF 7
ENDMDL
