MODEL 1
REMARK VINA RESULT:      -8.7      0.000      0.000
REMARK  5 active torsions:
REMARK  status: ('A' for Active; 'I' for Inactive)
REMARK    1  A    between atoms: C_8  and  C_1 
REMARK    2  A    between atoms: C_7  and  O_11 
REMARK    3  A    between atoms: C_9  and  C_7 
REMARK    4  A    between atoms: O_11  and  C_15 
REMARK    5  A    between atoms: O_23  and  C_18 
ROOT
ATOM      1  C   UNL d   1      52.943  34.019  53.845  0.00  0.00     0.064 A 
ATOM      2  C   UNL d   1      52.266  33.544  53.822  0.00  0.00     0.199 A 
ATOM      3  C   UNL d   1      52.971  34.718  53.407  0.00  0.00     0.103 A 
ATOM      4  C   UNL d   1      51.622  33.768  53.362  0.00  0.00     0.062 A 
ATOM      5  C   UNL d   1      51.650  34.467  52.923  0.00  0.00     0.105 A 
ATOM      6  O   UNL d   1      52.322  34.940  52.945  0.00  0.00    -0.307 OA
ATOM      7  C   UNL d   1      51.004  34.690  52.463  0.00  0.00     0.050 A 
ATOM      8  C   UNL d   1      50.949  33.293  53.340  0.00  0.00     0.007 A 
ATOM      9  O   UNL d   1      52.239  32.846  54.261  0.00  0.00    -0.286 OA
ATOM     10  C   UNL d   1      50.324  34.208  52.443  0.00  0.00     0.105 A 
ATOM     11  C   UNL d   1      50.297  33.516  52.878  0.00  0.00     0.025 A 
ATOM     12  C   UNL d   1      53.644  35.192  53.429  0.00  0.00     0.027 C 
ENDROOT
BRANCH   1  13
ATOM     13  C   UNL d   1      53.588  33.788  54.310  0.00  0.00     0.027 A 
ATOM     14  C   UNL d   1      54.155  33.268  54.012  0.00  0.00     0.094 A 
ATOM     15  C   UNL d   1      54.793  33.042  54.479  0.00  0.00     0.024 A 
ATOM     16  C   UNL d   1      54.870  33.337  55.252  0.00  0.00     0.002 A 
ATOM     17  C   UNL d   1      54.299  33.863  55.552  0.00  0.00     0.000 A 
ATOM     18  C   UNL d   1      53.659  34.089  55.085  0.00  0.00     0.002 A 
BRANCH  14  19
ATOM     19  O   UNL d   1      54.076  32.978  53.250  0.00  0.00    -0.328 OA
ATOM     20  C   UNL d   1      54.623  32.431  52.964  0.00  0.00     0.181 C 
ENDBRANCH  14  19
ENDBRANCH   1  13
BRANCH  10  21
ATOM     21  O   UNL d   1      49.675  34.437  51.978  0.00  0.00    -0.271 OA
BRANCH  21  22
ATOM     22  C   UNL d   1      49.089  34.917  52.312  0.00  0.00     0.323 C 
ATOM     23  O   UNL d   1      49.171  35.203  53.082  0.00  0.00    -0.257 OA
BRANCH  22  24
ATOM     24  C   UNL d   1      48.415  35.110  51.869  0.00  0.00     0.163 A 
ATOM     25  O   UNL d   1      48.244  34.840  51.109  0.00  0.00    -0.300 OA
ATOM     26  C   UNL d   1      47.521  35.171  50.883  0.00  0.00     0.123 A 
ATOM     27  C   UNL d   1      47.247  35.642  51.499  0.00  0.00     0.029 A 
ATOM     28  C   UNL d   1      47.802  35.606  52.113  0.00  0.00     0.032 A 
ENDBRANCH  22  24
ENDBRANCH  21  22
ENDBRANCH  10  21
TORSDOF 5
ENDMDL
MODEL 2
REMARK VINA RESULT:      -7.5      0.756      1.599
REMARK  5 active torsions:
REMARK  status: ('A' for Active; 'I' for Inactive)
REMARK    1  A    between atoms: C_8  and  C_1 
REMARK    2  A    between atoms: C_7  and  O_11 
REMARK    3  A    between atoms: C_9  and  C_7 
REMARK    4  A    between atoms: O_11  and  C_15 
REMARK    5  A    between atoms: O_23  and  C_18 
ROOT
ATOM      1  C   UNL d   1      52.735  33.291  53.461  0.00  0.00     0.064 A 
ATOM      2  C   UNL d   1      52.500  34.015  53.138  0.00  0.00     0.199 A 
ATOM      3  C   UNL d   1      52.177  32.694  53.582  0.00  0.00     0.103 A 
ATOM      4  C   UNL d   1      51.712  34.140  52.938  0.00  0.00     0.062 A 
ATOM      5  C   UNL d   1      51.155  33.544  53.059  0.00  0.00     0.105 A 
ATOM      6  O   UNL d   1      51.386  32.823  53.380  0.00  0.00    -0.307 OA
ATOM      7  C   UNL d   1      50.366  33.670  52.858  0.00  0.00     0.050 A 
ATOM      8  C   UNL d   1      51.480  34.863  52.616  0.00  0.00     0.007 A 
ATOM      9  O   UNL d   1      53.058  34.612  53.017  0.00  0.00    -0.286 OA
ATOM     10  C   UNL d   1      50.134  34.402  52.533  0.00  0.00     0.105 A 
ATOM     11  C   UNL d   1      50.686  34.993  52.413  0.00  0.00     0.025 A 
ATOM     12  C   UNL d   1      52.410  31.973  53.903  0.00  0.00     0.027 C 
ENDROOT
BRANCH   1  13
ATOM     13  C   UNL d   1      53.529  33.171  53.660  0.00  0.00     0.027 A 
ATOM     14  C   UNL d   1      53.821  33.420  54.390  0.00  0.00     0.094 A 
ATOM     15  C   UNL d   1      54.612  33.298  54.582  0.00  0.00     0.024 A 
ATOM     16  C   UNL d   1      55.119  32.924  54.042  0.00  0.00     0.002 A 
ATOM     17  C   UNL d   1      54.825  32.672  53.304  0.00  0.00     0.000 A 
ATOM     18  C   UNL d   1      54.034  32.794  53.112  0.00  0.00     0.002 A 
BRANCH  14  19
ATOM     19  O   UNL d   1      53.318  33.790  54.921  0.00  0.00    -0.328 OA
ATOM     20  C   UNL d   1      53.622  34.096  55.624  0.00  0.00     0.181 C 
ENDBRANCH  14  19
ENDBRANCH   1  13
BRANCH  10  21
ATOM     21  O   UNL d   1      49.337  34.525  52.332  0.00  0.00    -0.271 OA
BRANCH  21  22
ATOM     22  C   UNL d   1      48.924  35.147  52.687  0.00  0.00     0.323 C 
ATOM     23  O   UNL d   1      49.201  35.491  53.385  0.00  0.00    -0.257 OA
BRANCH  22  24
ATOM     24  C   UNL d   1      48.225  35.428  52.339  0.00  0.00     0.163 A 
ATOM     25  O   UNL d   1      47.948  35.231  51.588  0.00  0.00    -0.300 OA
ATOM     26  C   UNL d   1      47.238  35.635  51.470  0.00  0.00     0.123 A 
ATOM     27  C   UNL d   1      47.076  36.080  52.142  0.00  0.00     0.029 A 
ATOM     28  C   UNL d   1      47.689  35.953  52.685  0.00  0.00     0.032 A 
ENDBRANCH  22  24
ENDBRANCH  21  22
ENDBRANCH  10  21
TORSDOF 5
ENDMDL
MODEL 3
REMARK VINA RESULT:      -5.7      1.568      6.471
REMARK  5 active torsions:
REMARK  status: ('A' for Active; 'I' for Inactive)
REMARK    1  A    between atoms: C_8  and  C_1 
REMARK    2  A    between atoms: C_7  and  O_11 
REMARK    3  A    between atoms: C_9  and  C_7 
REMARK    4  A    between atoms: O_11  and  C_15 
REMARK    5  A    between atoms: O_23  and  C_18 
ROOT
ATOM      1  C   UNL d   1      46.805  35.840  52.185  0.00  0.00     0.064 A 
ATOM      2  C   UNL d   1      47.226  35.323  51.696  0.00  0.00     0.199 A 
ATOM      3  C   UNL d   1      47.179  36.194  52.830  0.00  0.00     0.103 A 
ATOM      4  C   UNL d   1      48.017  35.161  51.854  0.00  0.00     0.062 A 
ATOM      5  C   UNL d   1      48.392  35.515  52.499  0.00  0.00     0.105 A 
ATOM      6  O   UNL d   1      47.974  36.030  52.986  0.00  0.00    -0.307 OA
ATOM      7  C   UNL d   1      49.184  35.353  52.655  0.00  0.00     0.050 A 
ATOM      8  C   UNL d   1      48.435  34.646  51.366  0.00  0.00     0.007 A 
ATOM      9  O   UNL d   1      46.852  34.969  51.052  0.00  0.00    -0.286 OA
ATOM     10  C   UNL d   1      49.604  34.831  52.160  0.00  0.00     0.105 A 
ATOM     11  C   UNL d   1      49.234  34.480  51.521  0.00  0.00     0.025 A 
ATOM     12  C   UNL d   1      46.760  36.709  53.318  0.00  0.00     0.027 C 
ENDROOT
BRANCH   1  13
ATOM     13  C   UNL d   1      46.008  35.998  52.022  0.00  0.00     0.027 A 
ATOM     14  C   UNL d   1      45.410  35.621  52.446  0.00  0.00     0.094 A 
ATOM     15  C   UNL d   1      44.621  35.783  52.278  0.00  0.00     0.024 A 
ATOM     16  C   UNL d   1      44.424  36.326  51.682  0.00  0.00     0.002 A 
ATOM     17  C   UNL d   1      45.028  36.708  51.254  0.00  0.00     0.000 A 
ATOM     18  C   UNL d   1      45.818  36.546  51.422  0.00  0.00     0.002 A 
BRANCH  14  19
ATOM     19  O   UNL d   1      45.608  35.084  53.033  0.00  0.00    -0.328 OA
ATOM     20  C   UNL d   1      45.016  34.780  53.521  0.00  0.00     0.181 C 
ENDBRANCH  14  19
ENDBRANCH   1  13
BRANCH  10  21
ATOM     21  O   UNL d   1      50.403  34.670  52.322  0.00  0.00    -0.271 OA
BRANCH  21  22
ATOM     22  C   UNL d   1      50.593  34.075  52.864  0.00  0.00     0.323 C 
ATOM     23  O   UNL d   1      49.999  33.607  53.198  0.00  0.00    -0.257 OA
BRANCH  22  24
ATOM     24  C   UNL d   1      51.385  33.946  53.074  0.00  0.00     0.163 A 
ATOM     25  O   UNL d   1      51.972  34.524  53.111  0.00  0.00    -0.300 OA
ATOM     26  C   UNL d   1      52.673  34.152  53.343  0.00  0.00     0.123 A 
ATOM     27  C   UNL d   1      52.521  33.351  53.447  0.00  0.00     0.029 A 
ATOM     28  C   UNL d   1      51.720  33.220  53.281  0.00  0.00     0.032 A 
ENDBRANCH  22  24
ENDBRANCH  21  22
ENDBRANCH  10  21
TORSDOF 5
ENDMDL
