MODEL 1
REMARK VINA RESULT:      -8.0      0.000      0.000
REMARK  6 active torsions:
REMARK  status: ('A' for Active; 'I' for Inactive)
REMARK       I    between atoms: N_2  and  C_1 
REMARK    1  A    between atoms: C_14  and  C_1 
REMARK    2  A    between atoms: C_6  and  N_2 
REMARK    3  A    between atoms: C_4  and  O_13 
REMARK    4  A    between atoms: O_13  and  C_18 
REMARK    5  A    between atoms: C_19  and  C_14 
REMARK    6  A    between atoms: C_18  and  C_19 
ROOT
ATOM      1  C   UNL d   1      50.689  34.151  52.920  0.00  0.00     0.078 C 
ENDROOT
BRANCH   1   2
ATOM      2  C   UNL d   1      51.447  34.043  52.619  0.00  0.00     0.328 C 
ATOM      3  N   UNL d   1      52.087  33.897  53.134  0.00  0.00    -0.365 NA
ATOM      4  O   UNL d   1      51.578  34.079  51.806  0.00  0.00    -0.251 OA
BRANCH   3   5
ATOM      5  C   UNL d   1      52.716  33.754  53.638  0.00  0.00     0.135 A 
ATOM      6  C   UNL d   1      52.978  34.359  54.154  0.00  0.00     0.033 A 
ATOM      7  C   UNL d   1      53.614  34.205  54.661  0.00  0.00     0.009 A 
ATOM      8  C   UNL d   1      53.986  33.468  54.660  0.00  0.00     0.035 A 
ATOM      9  C   UNL d   1      53.727  32.872  54.151  0.00  0.00     0.009 A 
ATOM     10 BR   UNL d   1      54.618  33.335  55.172  0.00  0.00    -0.049 Br
ATOM     11  C   UNL d   1      53.087  33.017  53.637  0.00  0.00     0.033 A 
ENDBRANCH   3   5
ENDBRANCH   1   2
BRANCH   1  12
ATOM     12  C   UNL d   1      50.096  34.460  52.451  0.00  0.00     0.033 C 
BRANCH  12  13
ATOM     13  C   UNL d   1      49.453  34.844  52.781  0.00  0.00     0.123 C 
BRANCH  13  14
ATOM     14  O   UNL d   1      48.838  35.112  52.311  0.00  0.00    -0.305 OA
BRANCH  14  15
ATOM     15  C   UNL d   1      48.271  35.621  52.620  0.00  0.00     0.100 A 
ATOM     16  C   UNL d   1      47.595  35.821  52.173  0.00  0.00     0.023 A 
ATOM     17  C   UNL d   1      47.499  35.505  51.421  0.00  0.00     0.002 C 
ATOM     18  C   UNL d   1      47.028  36.331  52.486  0.00  0.00     0.002 A 
ATOM     19  C   UNL d   1      47.125  36.648  53.241  0.00  0.00     0.000 A 
ATOM     20  C   UNL d   1      47.790  36.459  53.695  0.00  0.00     0.002 A 
ATOM     21  C   UNL d   1      48.367  35.940  53.380  0.00  0.00     0.025 A 
ENDBRANCH  14  15
ENDBRANCH  13  14
ENDBRANCH  12  13
ENDBRANCH   1  12
TORSDOF 6
ENDMDL
MODEL 2
REMARK VINA RESULT:      -8.0      2.161      5.712
REMARK  6 active torsions:
REMARK  status: ('A' for Active; 'I' for Inactive)
REMARK       I    between atoms: N_2  and  C_1 
REMARK    1  A    between atoms: C_14  and  C_1 
REMARK    2  A    between atoms: C_6  and  N_2 
REMARK    3  A    between atoms: C_4  and  O_13 
REMARK    4  A    between atoms: O_13  and  C_18 
REMARK    5  A    between atoms: C_19  and  C_14 
REMARK    6  A    between atoms: C_18  and  C_19 
ROOT
ATOM      1  C   UNL d   1      50.678  34.333  52.972  0.00  0.00     0.078 C 
ENDROOT
BRANCH   1   2
ATOM      2  C   UNL d   1      50.156  34.463  52.348  0.00  0.00     0.328 C 
ATOM      3  N   UNL d   1      49.456  34.900  52.471  0.00  0.00    -0.365 NA
ATOM      4  O   UNL d   1      50.323  34.161  51.600  0.00  0.00    -0.251 OA
BRANCH   3   5
ATOM      5  C   UNL d   1      48.768  35.328  52.590  0.00  0.00     0.135 A 
ATOM      6  C   UNL d   1      48.214  35.400  51.967  0.00  0.00     0.033 A 
ATOM      7  C   UNL d   1      47.521  35.835  52.097  0.00  0.00     0.009 A 
ATOM      8  C   UNL d   1      47.378  36.193  52.827  0.00  0.00     0.035 A 
ATOM      9  C   UNL d   1      47.925  36.122  53.440  0.00  0.00     0.009 A 
ATOM     10 BR   UNL d   1      46.682  36.622  52.936  0.00  0.00    -0.049 Br
ATOM     11  C   UNL d   1      48.625  35.686  53.320  0.00  0.00     0.033 A 
ENDBRANCH   3   5
ENDBRANCH   1   2
BRANCH   1  12
ATOM     12  C   UNL d   1      51.368  33.912  52.855  0.00  0.00     0.033 C 
BRANCH  12  13
ATOM     13  C   UNL d   1      51.935  33.857  53.443  0.00  0.00     0.123 C 
BRANCH  13  14
ATOM     14  O   UNL d   1      52.484  33.250  53.442  0.00  0.00    -0.305 OA
BRANCH  14  15
ATOM     15  C   UNL d   1      53.120  33.264  53.963  0.00  0.00     0.100 A 
ATOM     16  C   UNL d   1      53.627  32.605  54.026  0.00  0.00     0.023 A 
ATOM     17  C   UNL d   1      53.489  31.941  53.563  0.00  0.00     0.002 C 
ATOM     18  C   UNL d   1      54.264  32.622  54.549  0.00  0.00     0.002 A 
ATOM     19  C   UNL d   1      54.404  33.289  55.014  0.00  0.00     0.000 A 
ATOM     20  C   UNL d   1      53.908  33.949  54.961  0.00  0.00     0.002 A 
ATOM     21  C   UNL d   1      53.260  33.934  54.430  0.00  0.00     0.025 A 
ENDBRANCH  14  15
ENDBRANCH  13  14
ENDBRANCH  12  13
ENDBRANCH   1  12
TORSDOF 6
ENDMDL
MODEL 3
REMARK VINA RESULT:      -5.2     10.256     11.085
REMARK  6 active torsions:
REMARK  status: ('A' for Active; 'I' for Inactive)
REMARK       I    between atoms: N_2  and  C_1 
REMARK    1  A    between atoms: C_14  and  C_1 
REMARK    2  A    between atoms: C_6  and  N_2 
REMARK    3  A    between atoms: C_4  and  O_13 
REMARK    4  A    between atoms: O_13  and  C_18 
REMARK    5  A    between atoms: C_19  and  C_14 
REMARK    6  A    between atoms: C_18  and  C_19 
ROOT
ATOM      1  C   UNL d   1      44.872  30.232  60.059  0.00  0.00     0.078 C 
ENDROOT
BRANCH   1   2
ATOM      2  C   UNL d   1      44.623  30.944  60.388  0.00  0.00     0.328 C 
ATOM      3  N   UNL d   1      44.561  31.025  61.216  0.00  0.00    -0.365 NA
ATOM      4  O   UNL d   1      44.434  31.581  59.901  0.00  0.00    -0.251 OA
BRANCH   3   5
ATOM      5  C   UNL d   1      44.499  31.106  62.029  0.00  0.00     0.135 A 
ATOM      6  C   UNL d   1      44.527  31.869  62.371  0.00  0.00     0.033 A 
ATOM      7  C   UNL d   1      44.464  31.941  63.194  0.00  0.00     0.009 A 
ATOM      8  C   UNL d   1      44.375  31.273  63.670  0.00  0.00     0.035 A 
ATOM      9  C   UNL d   1      44.348  30.521  63.332  0.00  0.00     0.009 A 
ATOM     10 BR   UNL d   1      44.314  31.365  64.488  0.00  0.00    -0.049 Br
ATOM     11  C   UNL d   1      44.410  30.438  62.505  0.00  0.00     0.033 A 
ENDBRANCH   3   5
ENDBRANCH   1   2
BRANCH   1  12
ATOM     12  C   UNL d   1      44.521  29.942  59.381  0.00  0.00     0.033 C 
BRANCH  12  13
ATOM     13  C   UNL d   1      44.807  29.271  59.010  0.00  0.00     0.123 C 
BRANCH  13  14
ATOM     14  O   UNL d   1      44.731  29.174  58.201  0.00  0.00    -0.305 OA
BRANCH  14  15
ATOM     15  C   UNL d   1      44.980  28.478  57.841  0.00  0.00     0.100 A 
ATOM     16  C   UNL d   1      44.832  28.346  57.031  0.00  0.00     0.023 A 
ATOM     17  C   UNL d   1      44.434  28.916  56.593  0.00  0.00     0.002 C 
ATOM     18  C   UNL d   1      45.083  27.648  56.672  0.00  0.00     0.002 A 
ATOM     19  C   UNL d   1      45.483  27.075  57.111  0.00  0.00     0.000 A 
ATOM     20  C   UNL d   1      45.637  27.193  57.916  0.00  0.00     0.002 A 
ATOM     21  C   UNL d   1      45.382  27.902  58.282  0.00  0.00     0.025 A 
ENDBRANCH  14  15
ENDBRANCH  13  14
ENDBRANCH  12  13
ENDBRANCH   1  12
TORSDOF 6
ENDMDL
MODEL 4
REMARK VINA RESULT:      -5.2     10.414     11.218
REMARK  6 active torsions:
REMARK  status: ('A' for Active; 'I' for Inactive)
REMARK       I    between atoms: N_2  and  C_1 
REMARK    1  A    between atoms: C_14  and  C_1 
REMARK    2  A    between atoms: C_6  and  N_2 
REMARK    3  A    between atoms: C_4  and  O_13 
REMARK    4  A    between atoms: O_13  and  C_18 
REMARK    5  A    between atoms: C_19  and  C_14 
REMARK    6  A    between atoms: C_18  and  C_19 
ROOT
ATOM      1  C   UNL d   1      44.992  26.977  56.633  0.00  0.00     0.078 C 
ENDROOT
BRANCH   1   2
ATOM      2  C   UNL d   1      45.313  27.477  57.201  0.00  0.00     0.328 C 
ATOM      3  N   UNL d   1      45.138  28.293  57.190  0.00  0.00    -0.365 NA
ATOM      4  O   UNL d   1      45.810  27.175  57.785  0.00  0.00    -0.251 OA
BRANCH   3   5
ATOM      5  C   UNL d   1      44.967  29.093  57.181  0.00  0.00     0.135 A 
ATOM      6  C   UNL d   1      44.808  29.473  56.452  0.00  0.00     0.033 A 
ATOM      7  C   UNL d   1      44.636  30.283  56.452  0.00  0.00     0.009 A 
ATOM      8  C   UNL d   1      44.621  30.711  57.157  0.00  0.00     0.035 A 
ATOM      9  C   UNL d   1      44.778  30.337  57.875  0.00  0.00     0.009 A 
ATOM     10 BR   UNL d   1      44.448  31.518  57.136  0.00  0.00    -0.049 Br
ATOM     11  C   UNL d   1      44.953  29.522  57.886  0.00  0.00     0.033 A 
ENDBRANCH   3   5
ENDBRANCH   1   2
BRANCH   1  12
ATOM     12  C   UNL d   1      45.078  26.167  56.696  0.00  0.00     0.033 C 
BRANCH  12  13
ATOM     13  C   UNL d   1      44.839  25.668  56.092  0.00  0.00     0.123 C 
BRANCH  13  14
ATOM     14  O   UNL d   1      44.975  24.862  56.135  0.00  0.00    -0.305 OA
BRANCH  14  15
ATOM     15  C   UNL d   1      44.810  24.378  55.491  0.00  0.00     0.100 A 
ATOM     16  C   UNL d   1      44.971  23.560  55.527  0.00  0.00     0.023 A 
ATOM     17  C   UNL d   1      45.295  23.240  56.210  0.00  0.00     0.002 C 
ATOM     18  C   UNL d   1      44.805  23.077  54.880  0.00  0.00     0.002 A 
ATOM     19  C   UNL d   1      44.479  23.399  54.193  0.00  0.00     0.000 A 
ATOM     20  C   UNL d   1      44.315  24.208  54.144  0.00  0.00     0.002 A 
ATOM     21  C   UNL d   1      44.483  24.701  54.801  0.00  0.00     0.025 A 
ENDBRANCH  14  15
ENDBRANCH  13  14
ENDBRANCH  12  13
ENDBRANCH   1  12
TORSDOF 6
ENDMDL
MODEL 5
REMARK VINA RESULT:      -5.2     10.138     10.659
REMARK  6 active torsions:
REMARK  status: ('A' for Active; 'I' for Inactive)
REMARK       I    between atoms: N_2  and  C_1 
REMARK    1  A    between atoms: C_14  and  C_1 
REMARK    2  A    between atoms: C_6  and  N_2 
REMARK    3  A    between atoms: C_4  and  O_13 
REMARK    4  A    between atoms: O_13  and  C_18 
REMARK    5  A    between atoms: C_19  and  C_14 
REMARK    6  A    between atoms: C_18  and  C_19 
ROOT
ATOM      1  C   UNL d   1      44.799  27.100  56.852  0.00  0.00     0.078 C 
ENDROOT
BRANCH   1   2
ATOM      2  C   UNL d   1      44.699  26.310  57.061  0.00  0.00     0.328 C 
ATOM      3  N   UNL d   1      44.694  25.717  56.473  0.00  0.00    -0.365 NA
ATOM      4  O   UNL d   1      44.603  26.101  57.852  0.00  0.00    -0.251 OA
BRANCH   3   5
ATOM      5  C   UNL d   1      44.689  25.135  55.898  0.00  0.00     0.135 A 
ATOM      6  C   UNL d   1      45.061  24.401  56.050  0.00  0.00     0.033 A 
ATOM      7  C   UNL d   1      45.051  23.818  55.462  0.00  0.00     0.009 A 
ATOM      8  C   UNL d   1      44.681  23.956  54.737  0.00  0.00     0.035 A 
ATOM      9  C   UNL d   1      44.314  24.680  54.588  0.00  0.00     0.009 A 
ATOM     10 BR   UNL d   1      44.681  23.362  54.164  0.00  0.00    -0.049 Br
ATOM     11  C   UNL d   1      44.319  25.273  55.173  0.00  0.00     0.033 A 
ENDBRANCH   3   5
ENDBRANCH   1   2
BRANCH   1  12
ATOM     12  C   UNL d   1      44.907  27.671  57.425  0.00  0.00     0.033 C 
BRANCH  12  13
ATOM     13  C   UNL d   1      44.875  28.468  57.240  0.00  0.00     0.123 C 
BRANCH  13  14
ATOM     14  O   UNL d   1      45.026  29.037  57.809  0.00  0.00    -0.305 OA
BRANCH  14  15
ATOM     15  C   UNL d   1      44.908  29.834  57.641  0.00  0.00     0.100 A 
ATOM     16  C   UNL d   1      45.026  30.410  58.232  0.00  0.00     0.023 A 
ATOM     17  C   UNL d   1      45.260  30.179  58.984  0.00  0.00     0.002 C 
ATOM     18  C   UNL d   1      44.907  31.208  58.060  0.00  0.00     0.002 A 
ATOM     19  C   UNL d   1      44.672  31.441  57.304  0.00  0.00     0.000 A 
ATOM     20  C   UNL d   1      44.552  30.879  56.709  0.00  0.00     0.002 A 
ATOM     21  C   UNL d   1      44.672  30.068  56.881  0.00  0.00     0.025 A 
ENDBRANCH  14  15
ENDBRANCH  13  14
ENDBRANCH  12  13
ENDBRANCH   1  12
TORSDOF 6
ENDMDL
