MODEL 1
REMARK VINA RESULT:      37.1      0.000      0.000
REMARK  2 active torsions:
REMARK  status: ('A' for Active; 'I' for Inactive)
REMARK    1  A    between atoms: C_2  and  N_1 
REMARK    2  A    between atoms: N_8  and  C_3 
REMARK       I    between atoms: C_12  and  N_8 
ROOT
ATOM      1  N   UNL d   1     -51.592  25.294  33.484  0.00  0.00    -0.189 N 
ATOM      2  C   UNL d   1     -51.130  24.617  33.598  0.00  0.00     0.171 A 
ATOM      3  N   UNL d   1     -52.384  25.062  33.410  0.00  0.00    -0.162 NA
ATOM      4  C   UNL d   1     -51.640  23.966  33.593  0.00  0.00     0.060 A 
ATOM      5  C   UNL d   1     -52.408  24.237  33.478  0.00  0.00     0.105 A 
ATOM      6  C   UNL d   1     -53.088  23.766  33.438  0.00  0.00     0.023 C 
ENDROOT
BRANCH   1   7
ATOM      7  C   UNL d   1     -51.351  26.069  33.446  0.00  0.00     0.197 A 
ATOM      8  N   UNL d   1     -51.911  26.675  33.466  0.00  0.00    -0.221 NA
ATOM      9  C   UNL d   1     -51.498  27.401  33.418  0.00  0.00     0.090 A 
ATOM     10  C   UNL d   1     -51.738  28.176  33.412  0.00  0.00     0.020 A 
ATOM     11  C   UNL d   1     -50.693  27.211  33.369  0.00  0.00     0.050 A 
ATOM     12  C   UNL d   1     -51.187  28.790  33.357  0.00  0.00     0.002 A 
ATOM     13  C   UNL d   1     -50.397  28.601  33.309  0.00  0.00     0.001 A 
ATOM     14  C   UNL d   1     -50.142  27.816  33.314  0.00  0.00     0.008 A 
ATOM     15  S   UNL d   1     -50.615  26.394  33.387  0.00  0.00    -0.047 SA
ENDBRANCH   1   7
BRANCH   2  16
ATOM     16  N   UNL d   1     -50.308  24.592  33.698  0.00  0.00    -0.189 NA
ATOM     17  C   UNL d   1     -49.918  23.894  33.559  0.00  0.00     0.281 C 
ATOM     18  O   UNL d   1     -49.097  23.865  33.658  0.00  0.00    -0.265 OA
ATOM     19  C   UNL d   1     -50.313  23.216  33.324  0.00  0.00     0.068 C 
ENDBRANCH   2  16
TORSDOF 2
ENDMDL
