MODEL 1
REMARK VINA RESULT:      -4.8      0.000      0.000
REMARK  3 active torsions:
REMARK  status: ('A' for Active; 'I' for Inactive)
REMARK    1  A    between atoms: C_9  and  N_1 
REMARK    2  A    between atoms: C_2  and  C_9 
REMARK    3  A    between atoms: S_13  and  C_5 
ROOT
ATOM      1  N   UNL d   1     -41.205-122.480 -51.963  0.00  0.00    -0.265 N 
ATOM      2  C   UNL d   1     -41.231-121.657 -52.055  0.00  0.00     0.296 A 
ATOM      3  S   UNL d   1     -41.267-121.500 -52.862  0.00  0.00    -0.025 SA
ATOM      4  C   UNL d   1     -41.225-122.831 -52.702  0.00  0.00     0.074 A 
ATOM      5  C   UNL d   1     -41.263-122.231 -53.264  0.00  0.00     0.050 A 
ATOM      6  O   UNL d   1     -41.223-121.101 -51.449  0.00  0.00    -0.259 OA
ATOM      7  C   UNL d   1     -41.213-123.624 -52.948  0.00  0.00     0.018 A 
ATOM      8  C   UNL d   1     -41.289-122.416 -54.071  0.00  0.00     0.008 A 
ATOM      9  C   UNL d   1     -41.239-123.813 -53.753  0.00  0.00     0.002 A 
ATOM     10  C   UNL d   1     -41.277-123.198 -54.310  0.00  0.00     0.001 A 
ENDROOT
BRANCH   1  11
ATOM     11  C   UNL d   1     -41.166-122.885 -51.245  0.00  0.00     0.123 C 
BRANCH  11  12
ATOM     12  C   UNL d   1     -41.828-122.950 -50.770  0.00  0.00     0.189 A 
ATOM     13  N   UNL d   1     -41.797-123.395 -50.084  0.00  0.00    -0.265 N 
ATOM     14  C   UNL d   1     -42.537-123.359 -49.725  0.00  0.00     0.197 A 
ATOM     15  C   UNL d   1     -41.148-123.812 -49.791  0.00  0.00     0.103 C 
ATOM     16  N   UNL d   1     -43.025-122.890 -50.191  0.00  0.00    -0.122 NA
ATOM     17  N   UNL d   1     -42.583-122.638 -50.838  0.00  0.00    -0.126 NA
BRANCH  14  18
ATOM     18  S   UNL d   1     -42.755-123.728 -49.020  0.00  0.00    -0.074 SA
ATOM     19  C   UNL d   1     -43.548-123.768 -48.794  0.00  0.00     0.077 C 
ENDBRANCH  14  18
ENDBRANCH  11  12
ENDBRANCH   1  11
TORSDOF 3
ENDMDL
MODEL 2
REMARK VINA RESULT:      -4.6      1.418      3.666
REMARK  3 active torsions:
REMARK  status: ('A' for Active; 'I' for Inactive)
REMARK    1  A    between atoms: C_9  and  N_1 
REMARK    2  A    between atoms: C_2  and  C_9 
REMARK    3  A    between atoms: S_13  and  C_5 
ROOT
ATOM      1  N   UNL d   1     -41.323-122.151 -51.862  0.00  0.00    -0.265 N 
ATOM      2  C   UNL d   1     -41.312-121.368 -51.592  0.00  0.00     0.296 A 
ATOM      3  S   UNL d   1     -41.523-121.377 -50.796  0.00  0.00    -0.025 SA
ATOM      4  C   UNL d   1     -41.538-122.642 -51.243  0.00  0.00     0.074 A 
ATOM      5  C   UNL d   1     -41.663-122.171 -50.581  0.00  0.00     0.050 A 
ATOM      6  O   UNL d   1     -41.123-120.704 -52.040  0.00  0.00    -0.259 OA
ATOM      7  C   UNL d   1     -41.639-123.464 -51.188  0.00  0.00     0.018 A 
ATOM      8  C   UNL d   1     -41.889-122.514 -49.862  0.00  0.00     0.008 A 
ATOM      9  C   UNL d   1     -41.865-123.811 -50.472  0.00  0.00     0.002 A 
ATOM     10  C   UNL d   1     -41.989-123.324 -49.810  0.00  0.00     0.001 A 
ENDROOT
BRANCH   1  11
ATOM     11  C   UNL d   1     -41.147-122.401 -52.629  0.00  0.00     0.123 C 
BRANCH  11  12
ATOM     12  C   UNL d   1     -41.612-122.165 -53.257  0.00  0.00     0.189 A 
ATOM     13  N   UNL d   1     -41.585-122.579 -53.964  0.00  0.00    -0.265 N 
ATOM     14  C   UNL d   1     -42.107-122.219 -54.489  0.00  0.00     0.197 A 
ATOM     15  C   UNL d   1     -41.123-123.241 -54.135  0.00  0.00     0.103 C 
ATOM     16  N   UNL d   1     -42.457-121.581 -54.104  0.00  0.00    -0.122 NA
ATOM     17  N   UNL d   1     -42.148-121.551 -53.342  0.00  0.00    -0.126 NA
BRANCH  14  18
ATOM     18  S   UNL d   1     -42.256-122.453 -55.265  0.00  0.00    -0.074 SA
ATOM     19  C   UNL d   1     -42.649-121.949 -55.788  0.00  0.00     0.077 C 
ENDBRANCH  14  18
ENDBRANCH  11  12
ENDBRANCH   1  11
TORSDOF 3
ENDMDL
MODEL 3
REMARK VINA RESULT:      -3.5      1.388      1.931
REMARK  3 active torsions:
REMARK  status: ('A' for Active; 'I' for Inactive)
REMARK    1  A    between atoms: C_9  and  N_1 
REMARK    2  A    between atoms: C_2  and  C_9 
REMARK    3  A    between atoms: S_13  and  C_5 
ROOT
ATOM      1  N   UNL d   1     -41.571-122.497 -53.226  0.00  0.00    -0.265 N 
ATOM      2  C   UNL d   1     -41.391-123.298 -53.335  0.00  0.00     0.296 A 
ATOM      3  S   UNL d   1     -41.529-123.478 -54.126  0.00  0.00    -0.025 SA
ATOM      4  C   UNL d   1     -41.818-122.182 -53.940  0.00  0.00     0.074 A 
ATOM      5  C   UNL d   1     -41.795-122.782 -54.502  0.00  0.00     0.050 A 
ATOM      6  O   UNL d   1     -41.123-123.817 -52.755  0.00  0.00    -0.259 OA
ATOM      7  C   UNL d   1     -42.066-121.421 -54.162  0.00  0.00     0.018 A 
ATOM      8  C   UNL d   1     -42.016-122.630 -55.285  0.00  0.00     0.008 A 
ATOM      9  C   UNL d   1     -42.288-121.264 -54.943  0.00  0.00     0.002 A 
ATOM     10  C   UNL d   1     -42.259-121.879 -55.501  0.00  0.00     0.001 A 
ENDROOT
BRANCH   1  11
ATOM     11  C   UNL d   1     -41.514-122.080 -52.516  0.00  0.00     0.123 C 
BRANCH  11  12
ATOM     12  C   UNL d   1     -41.861-122.371 -51.836  0.00  0.00     0.189 A 
ATOM     13  N   UNL d   1     -41.745-121.988 -51.121  0.00  0.00    -0.265 N 
ATOM     14  C   UNL d   1     -42.157-122.402 -50.542  0.00  0.00     0.197 A 
ATOM     15  C   UNL d   1     -41.299-121.307 -50.990  0.00  0.00     0.103 C 
ATOM     16  N   UNL d   1     -42.527-123.043 -50.901  0.00  0.00    -0.122 NA
ATOM     17  N   UNL d   1     -42.342-123.021 -51.702  0.00  0.00    -0.126 NA
BRANCH  14  18
ATOM     18  S   UNL d   1     -42.195-122.212 -49.741  0.00  0.00    -0.074 SA
ATOM     19  C   UNL d   1     -42.593-122.703 -49.210  0.00  0.00     0.077 C 
ENDBRANCH  14  18
ENDBRANCH  11  12
ENDBRANCH   1  11
TORSDOF 3
ENDMDL
