MODEL 1
REMARK VINA RESULT:      18.2      0.000      0.000
REMARK  3 active torsions:
REMARK  status: ('A' for Active; 'I' for Inactive)
REMARK    1  A    between atoms: C_6  and  C_16 
REMARK    2  A    between atoms: S_14  and  C_8 
REMARK    3  A    between atoms: C_16  and  S_14 
ROOT
ATOM      1  C   UNL d   1      46.070 -17.659  43.914  0.00  0.00     0.141 A 
ATOM      2  O   UNL d   1      46.209 -18.076  44.613  0.00  0.00    -0.303 OA
ATOM      3  C   UNL d   1      46.129 -18.190  43.285  0.00  0.00     0.110 A 
ATOM      4  C   UNL d   1      46.305 -18.934  43.595  0.00  0.00     0.043 A 
ATOM      5  C   UNL d   1      45.898 -16.864  43.769  0.00  0.00     0.137 A 
ATOM      6  C   UNL d   1      46.354 -18.863  44.415  0.00  0.00     0.102 A 
ATOM      7  N   UNL d   1      45.784 -16.602  42.995  0.00  0.00    -0.215 NA
ATOM      8  N   UNL d   1      46.016 -17.928  42.511  0.00  0.00    -0.222 NA
ATOM      9  C   UNL d   1      45.843 -17.133  42.366  0.00  0.00     0.200 A 
ATOM     10  C   UNL d   1      46.426 -19.667  43.236  0.00  0.00     0.004 A 
ATOM     11  C   UNL d   1      46.525 -19.526  44.877  0.00  0.00     0.025 A 
ATOM     12  C   UNL d   1      46.596 -20.330  43.698  0.00  0.00     0.000 A 
ATOM     13  C   UNL d   1      46.646 -20.259  44.519  0.00  0.00     0.002 A 
ENDROOT
BRANCH   5  14
ATOM     14  S   UNL d   1      45.839 -16.334  44.398  0.00  0.00    -0.062 SA
BRANCH  14  15
ATOM     15  C   UNL d   1      45.206 -15.806  44.434  0.00  0.00     0.076 C 
BRANCH  15  16
ATOM     16  C   UNL d   1      45.349 -14.995  44.475  0.00  0.00     0.169 A 
ATOM     17  N   UNL d   1      46.013 -14.634  44.807  0.00  0.00    -0.225 NA
ATOM     18  C   UNL d   1      45.928 -13.818  44.728  0.00  0.00     0.101 A 
ATOM     19  C   UNL d   1      46.410 -13.188  44.953  0.00  0.00     0.021 A 
ATOM     20  C   UNL d   1      45.210 -13.672  44.348  0.00  0.00     0.101 A 
ATOM     21  C   UNL d   1      46.175 -12.412  44.798  0.00  0.00     0.002 A 
ATOM     22  C   UNL d   1      45.458 -12.266  44.419  0.00  0.00     0.002 A 
ATOM     23  C   UNL d   1      44.976 -12.897  44.193  0.00  0.00     0.021 A 
ATOM     24  N   UNL d   1      44.853 -14.399  44.191  0.00  0.00    -0.225 NA
ENDBRANCH  15  16
ENDBRANCH  14  15
ENDBRANCH   5  14
TORSDOF 3
ENDMDL
