MODEL 1
REMARK VINA RESULT:      -8.2      0.000      0.000
REMARK  1 active torsions:
REMARK  status: ('A' for Active; 'I' for Inactive)
REMARK       I    between atoms: N_3  and  C_1 
REMARK       I    between atoms: N_5  and  C_1 
REMARK       I    between atoms: C_2  and  N_4 
REMARK    1  A    between atoms: C_6  and  C_2 
ROOT
ATOM      1  C   UNL d   1     -46.073  12.391  23.075  0.00  0.00     0.340 C 
ATOM      2  C   UNL d   1     -49.361  12.104  23.176  0.00  0.00     0.265 C 
ATOM      3  N   UNL d   1     -46.890  12.365  23.191  0.00  0.00    -0.254 N 
ATOM      4  N   UNL d   1     -48.524  12.190  23.158  0.00  0.00    -0.269 N 
ATOM      5  N   UNL d   1     -45.597  11.767  23.330  0.00  0.00    -0.253 N 
ATOM      6  O   UNL d   1     -45.734  13.049  22.699  0.00  0.00    -0.245 OA
ATOM      7  C   UNL d   1     -47.370  12.976  22.911  0.00  0.00     0.104 A 
ATOM      8  C   UNL d   1     -47.241  11.667  23.476  0.00  0.00     0.104 A 
ATOM      9  C   UNL d   1     -48.205  12.887  22.883  0.00  0.00     0.102 A 
ATOM     10  C   UNL d   1     -48.061  11.578  23.465  0.00  0.00     0.102 A 
ATOM     11  O   UNL d   1     -49.705  11.406  23.459  0.00  0.00    -0.267 OA
ATOM     12  O   UNL d   1     -44.677  10.397  23.576  0.00  0.00    -0.300 OA
ATOM     13  C   UNL d   1     -45.974  10.987  23.443  0.00  0.00     0.111 C 
ATOM     14  C   UNL d   1     -44.818  11.670  22.951  0.00  0.00     0.111 C 
ATOM     15  C   UNL d   1     -44.341  11.050  23.204  0.00  0.00     0.142 C 
ATOM     16  C   UNL d   1     -45.493  10.363  23.697  0.00  0.00     0.142 C 
ENDROOT
BRANCH   2  17
ATOM     17  C   UNL d   1     -49.842  12.712  22.888  0.00  0.00     0.057 C 
ATOM     18  C   UNL d   1     -50.256  13.190  23.436  0.00  0.00     0.011 C 
ATOM     19  C   UNL d   1     -50.771  13.782  23.157  0.00  0.00     0.035 C 
ATOM     20 BR   UNL d   1     -51.063  14.354  23.687  0.00  0.00    -0.049 Br
ATOM     21  C   UNL d   1     -50.988  13.799  22.361  0.00  0.00     0.007 C 
ATOM     22  C   UNL d   1     -50.692  13.224  21.840  0.00  0.00     0.001 C 
ATOM     23  C   UNL d   1     -50.179  12.635  22.118  0.00  0.00     0.005 C 
ENDBRANCH   2  17
TORSDOF 1
ENDMDL
MODEL 2
REMARK VINA RESULT:      -6.8      1.367      1.948
REMARK  1 active torsions:
REMARK  status: ('A' for Active; 'I' for Inactive)
REMARK       I    between atoms: N_3  and  C_1 
REMARK       I    between atoms: N_5  and  C_1 
REMARK       I    between atoms: C_2  and  N_4 
REMARK    1  A    between atoms: C_6  and  C_2 
ROOT
ATOM      1  C   UNL d   1     -46.448  11.341  23.289  0.00  0.00     0.340 C 
ATOM      2  C   UNL d   1     -47.877  14.243  22.629  0.00  0.00     0.265 C 
ATOM      3  N   UNL d   1     -46.831  12.026  23.033  0.00  0.00    -0.254 N 
ATOM      4  N   UNL d   1     -47.523  13.497  22.789  0.00  0.00    -0.269 N 
ATOM      5  N   UNL d   1     -45.644  11.234  23.138  0.00  0.00    -0.253 N 
ATOM      6  O   UNL d   1     -46.877  10.760  23.697  0.00  0.00    -0.245 OA
ATOM      7  C   UNL d   1     -47.629  12.147  23.208  0.00  0.00     0.104 A 
ATOM      8  C   UNL d   1     -46.384  12.650  22.713  0.00  0.00     0.104 A 
ATOM      9  C   UNL d   1     -47.985  12.900  23.094  0.00  0.00     0.102 A 
ATOM     10  C   UNL d   1     -46.729  13.388  22.584  0.00  0.00     0.102 A 
ATOM     11  O   UNL d   1     -47.427  14.861  22.311  0.00  0.00    -0.267 OA
ATOM     12  O   UNL d   1     -43.977  11.147  23.095  0.00  0.00    -0.300 OA
ATOM     13  C   UNL d   1     -45.160  11.946  22.985  0.00  0.00     0.111 C 
ATOM     14  C   UNL d   1     -45.205  10.680  23.649  0.00  0.00     0.111 C 
ATOM     15  C   UNL d   1     -44.404  10.570  23.501  0.00  0.00     0.142 C 
ATOM     16  C   UNL d   1     -44.353  11.835  22.836  0.00  0.00     0.142 C 
ENDROOT
BRANCH   2  17
ATOM     17  C   UNL d   1     -48.674  14.368  22.811  0.00  0.00     0.057 C 
ATOM     18  C   UNL d   1     -49.241  14.298  22.200  0.00  0.00     0.011 C 
ATOM     19  C   UNL d   1     -50.042  14.455  22.363  0.00  0.00     0.035 C 
ATOM     20 BR   UNL d   1     -50.624  14.242  21.807  0.00  0.00    -0.049 Br
ATOM     21  C   UNL d   1     -50.255  14.820  23.072  0.00  0.00     0.007 C 
ATOM     22  C   UNL d   1     -49.668  15.029  23.622  0.00  0.00     0.001 C 
ATOM     23  C   UNL d   1     -48.871  14.872  23.458  0.00  0.00     0.005 C 
ENDBRANCH   2  17
TORSDOF 1
ENDMDL
MODEL 3
REMARK VINA RESULT:      -6.6      2.264      5.080
REMARK  1 active torsions:
REMARK  status: ('A' for Active; 'I' for Inactive)
REMARK       I    between atoms: N_3  and  C_1 
REMARK       I    between atoms: N_5  and  C_1 
REMARK       I    between atoms: C_2  and  N_4 
REMARK    1  A    between atoms: C_6  and  C_2 
ROOT
ATOM      1  C   UNL d   1     -49.315  13.479  21.761  0.00  0.00     0.340 C 
ATOM      2  C   UNL d   1     -46.263  13.453  23.020  0.00  0.00     0.265 C 
ATOM      3  N   UNL d   1     -48.585  13.396  22.136  0.00  0.00    -0.254 N 
ATOM      4  N   UNL d   1     -47.042  13.445  22.702  0.00  0.00    -0.269 N 
ATOM      5  N   UNL d   1     -49.882  13.997  22.065  0.00  0.00    -0.253 N 
ATOM      6  O   UNL d   1     -49.476  13.038  21.077  0.00  0.00    -0.245 OA
ATOM      7  C   UNL d   1     -48.007  12.900  21.817  0.00  0.00     0.104 A 
ATOM      8  C   UNL d   1     -48.385  13.907  22.761  0.00  0.00     0.104 A 
ATOM      9  C   UNL d   1     -47.215  12.928  22.096  0.00  0.00     0.102 A 
ATOM     10  C   UNL d   1     -47.613  13.931  23.051  0.00  0.00     0.102 A 
ATOM     11  O   UNL d   1     -46.070  13.965  23.642  0.00  0.00    -0.267 OA
ATOM     12  O   UNL d   1     -50.905  15.241  22.500  0.00  0.00    -0.300 OA
ATOM     13  C   UNL d   1     -49.606  14.646  22.580  0.00  0.00     0.111 C 
ATOM     14  C   UNL d   1     -50.498  14.288  21.521  0.00  0.00     0.111 C 
ATOM     15  C   UNL d   1     -51.064  14.803  21.821  0.00  0.00     0.142 C 
ATOM     16  C   UNL d   1     -50.177  15.165  22.882  0.00  0.00     0.142 C 
ENDROOT
BRANCH   2  17
ATOM     17  C   UNL d   1     -45.682  12.962  22.696  0.00  0.00     0.057 C 
ATOM     18  C   UNL d   1     -45.444  12.284  23.125  0.00  0.00     0.011 C 
ATOM     19  C   UNL d   1     -44.835  11.802  22.826  0.00  0.00     0.035 C 
ATOM     20 BR   UNL d   1     -44.701  11.053  23.164  0.00  0.00    -0.049 Br
ATOM     21  C   UNL d   1     -44.369  12.067  22.198  0.00  0.00     0.007 C 
ATOM     22  C   UNL d   1     -44.511  12.816  21.867  0.00  0.00     0.001 C 
ATOM     23  C   UNL d   1     -45.117  13.295  22.165  0.00  0.00     0.005 C 
ENDBRANCH   2  17
TORSDOF 1
ENDMDL
MODEL 4
REMARK VINA RESULT:      -6.2      9.286      9.675
REMARK  1 active torsions:
REMARK  status: ('A' for Active; 'I' for Inactive)
REMARK       I    between atoms: N_3  and  C_1 
REMARK       I    between atoms: N_5  and  C_1 
REMARK       I    between atoms: C_2  and  N_4 
REMARK    1  A    between atoms: C_6  and  C_2 
ROOT
ATOM      1  C   UNL d   1     -39.162  15.126  21.559  0.00  0.00     0.340 C 
ATOM      2  C   UNL d   1     -39.879  14.318  18.439  0.00  0.00     0.265 C 
ATOM      3  N   UNL d   1     -39.440  14.931  20.807  0.00  0.00    -0.254 N 
ATOM      4  N   UNL d   1     -39.709  14.532  19.235  0.00  0.00    -0.269 N 
ATOM      5  N   UNL d   1     -39.021  14.534  22.116  0.00  0.00    -0.253 N 
ATOM      6  O   UNL d   1     -39.027  15.922  21.752  0.00  0.00    -0.245 OA
ATOM      7  C   UNL d   1     -39.554  15.521  20.239  0.00  0.00     0.104 A 
ATOM      8  C   UNL d   1     -39.482  14.132  20.579  0.00  0.00     0.104 A 
ATOM      9  C   UNL d   1     -39.682  15.322  19.433  0.00  0.00     0.102 A 
ATOM     10  C   UNL d   1     -39.621  13.928  19.793  0.00  0.00     0.102 A 
ATOM     11  O   UNL d   1     -39.918  13.521  18.219  0.00  0.00    -0.267 OA
ATOM     12  O   UNL d   1     -38.462  13.335  23.134  0.00  0.00    -0.300 OA
ATOM     13  C   UNL d   1     -38.883  13.722  21.822  0.00  0.00     0.111 C 
ATOM     14  C   UNL d   1     -38.470  14.713  22.768  0.00  0.00     0.111 C 
ATOM     15  C   UNL d   1     -38.328  14.125  23.325  0.00  0.00     0.142 C 
ATOM     16  C   UNL d   1     -38.740  13.131  22.384  0.00  0.00     0.142 C 
ENDROOT
BRANCH   2  17
ATOM     17  C   UNL d   1     -39.986  14.907  17.869  0.00  0.00     0.057 C 
ATOM     18  C   UNL d   1     -40.762  15.071  17.602  0.00  0.00     0.011 C 
ATOM     19  C   UNL d   1     -40.878  15.638  17.003  0.00  0.00     0.035 C 
ATOM     20 BR   UNL d   1     -41.647  15.914  16.843  0.00  0.00    -0.049 Br
ATOM     21  C   UNL d   1     -40.234  15.922  16.572  0.00  0.00     0.007 C 
ATOM     22  C   UNL d   1     -39.470  15.641  16.739  0.00  0.00     0.001 C 
ATOM     23  C   UNL d   1     -39.355  15.077  17.335  0.00  0.00     0.005 C 
ENDBRANCH   2  17
TORSDOF 1
ENDMDL
MODEL 5
REMARK VINA RESULT:      -6.0      8.856     10.141
REMARK  1 active torsions:
REMARK  status: ('A' for Active; 'I' for Inactive)
REMARK       I    between atoms: N_3  and  C_1 
REMARK       I    between atoms: N_5  and  C_1 
REMARK       I    between atoms: C_2  and  N_4 
REMARK    1  A    between atoms: C_6  and  C_2 
ROOT
ATOM      1  C   UNL d   1     -39.292  15.314  18.011  0.00  0.00     0.340 C 
ATOM      2  C   UNL d   1     -40.035  14.787  21.185  0.00  0.00     0.265 C 
ATOM      3  N   UNL d   1     -39.462  15.083  18.785  0.00  0.00    -0.254 N 
ATOM      4  N   UNL d   1     -39.836  14.909  20.376  0.00  0.00    -0.269 N 
ATOM      5  N   UNL d   1     -39.894  15.363  17.450  0.00  0.00    -0.253 N 
ATOM      6  O   UNL d   1     -38.510  15.498  17.802  0.00  0.00    -0.245 OA
ATOM      7  C   UNL d   1     -38.865  15.062  19.355  0.00  0.00     0.104 A 
ATOM      8  C   UNL d   1     -40.255  14.995  19.021  0.00  0.00     0.104 A 
ATOM      9  C   UNL d   1     -39.052  14.983  20.171  0.00  0.00     0.102 A 
ATOM     10  C   UNL d   1     -40.446  14.903  19.818  0.00  0.00     0.102 A 
ATOM     11  O   UNL d   1     -40.826  14.701  21.414  0.00  0.00    -0.267 OA
ATOM     12  O   UNL d   1     -41.136  15.740  16.400  0.00  0.00    -0.300 OA
ATOM     13  C   UNL d   1     -40.714  15.458  17.738  0.00  0.00     0.111 C 
ATOM     14  C   UNL d   1     -39.761  15.873  16.755  0.00  0.00     0.111 C 
ATOM     15  C   UNL d   1     -40.359  15.922  16.193  0.00  0.00     0.142 C 
ATOM     16  C   UNL d   1     -41.315  15.508  17.172  0.00  0.00     0.142 C 
ENDROOT
BRANCH   2  17
ATOM     17  C   UNL d   1     -39.438  14.773  21.757  0.00  0.00     0.057 C 
ATOM     18  C   UNL d   1     -39.260  14.048  22.134  0.00  0.00     0.011 C 
ATOM     19  C   UNL d   1     -38.685  14.029  22.737  0.00  0.00     0.035 C 
ATOM     20 BR   UNL d   1     -38.397  13.296  23.005  0.00  0.00    -0.049 Br
ATOM     21  C   UNL d   1     -38.406  14.734  23.063  0.00  0.00     0.007 C 
ATOM     22  C   UNL d   1     -38.699  15.461  22.789  0.00  0.00     0.001 C 
ATOM     23  C   UNL d   1     -39.271  15.479  22.189  0.00  0.00     0.005 C 
ENDBRANCH   2  17
TORSDOF 1
ENDMDL
