MODEL 1
REMARK VINA RESULT:      66.3      0.000      0.000
REMARK  3 active torsions:
REMARK  status: ('A' for Active; 'I' for Inactive)
REMARK       I    between atoms: C_4  and  N_1 
REMARK    1  A    between atoms: C_7  and  C_3 
REMARK    2  A    between atoms: C_9  and  C_4 
REMARK    3  A    between atoms: C_8  and  C_5 
ROOT
ATOM      1  N   UNL d   1     -50.776  26.293  33.575  0.00  0.00    -0.191 N 
ATOM      2  N   UNL d   1     -51.542  26.009  33.577  0.00  0.00    -0.163 NA
ATOM      3  C   UNL d   1     -50.273  25.617  33.531  0.00  0.00     0.110 A 
ATOM      4  C   UNL d   1     -50.537  27.067  33.607  0.00  0.00     0.303 C 
ATOM      5  C   UNL d   1     -51.531  25.185  33.536  0.00  0.00     0.103 A 
ATOM      6  C   UNL d   1     -50.757  24.947  33.508  0.00  0.00     0.042 A 
ATOM      7  O   UNL d   1     -49.686  27.243  33.598  0.00  0.00    -0.263 OA
ENDROOT
BRANCH   3   8
ATOM      8  C   UNL d   1     -49.447  25.629  33.514  0.00  0.00     0.118 A 
ATOM      9  O   UNL d   1     -48.971  24.995  33.332  0.00  0.00    -0.304 OA
ATOM     10  C   UNL d   1     -48.175  25.248  33.380  0.00  0.00     0.123 A 
ATOM     11  C   UNL d   1     -48.182  26.045  33.595  0.00  0.00     0.029 A 
ATOM     12  C   UNL d   1     -48.983  26.272  33.676  0.00  0.00     0.028 A 
ENDBRANCH   3   8
BRANCH   4  13
ATOM     13  C   UNL d   1     -51.066  27.687  33.649  0.00  0.00     0.158 A 
ATOM     14  O   UNL d   1     -51.794  27.689  34.028  0.00  0.00    -0.300 OA
ATOM     15  C   UNL d   1     -52.145  28.424  33.934  0.00  0.00     0.123 A 
ATOM     16  C   UNL d   1     -51.633  28.890  33.489  0.00  0.00     0.029 A 
ATOM     17  C   UNL d   1     -50.961  28.438  33.309  0.00  0.00     0.032 A 
ENDBRANCH   4  13
BRANCH   5  18
ATOM     18  C   UNL d   1     -52.213  24.706  33.527  0.00  0.00     0.019 A 
ATOM     19  C   UNL d   1     -52.135  23.935  33.731  0.00  0.00     0.002 A 
ATOM     20  C   UNL d   1     -52.789  23.433  33.733  0.00  0.00     0.000 A 
ATOM     21  C   UNL d   1     -53.522  23.730  33.525  0.00  0.00     0.000 A 
ATOM     22  C   UNL d   1     -53.620  24.530  33.310  0.00  0.00     0.000 A 
ATOM     23  C   UNL d   1     -54.172  23.223  33.529  0.00  0.00     0.000 C 
ATOM     24  C   UNL d   1     -52.937  25.030  33.314  0.00  0.00     0.002 A 
ENDBRANCH   5  18
TORSDOF 3
ENDMDL
