MODEL 1
REMARK VINA RESULT:      -5.9      0.000      0.000
REMARK  1 active torsions:
REMARK  status: ('A' for Active; 'I' for Inactive)
REMARK    1  A    between atoms: C_5  and  C_1 
ROOT
ATOM      1  C   UNL d   1      53.761  32.295  53.602  0.00  0.00     0.169 A 
ATOM      2  N   UNL d   1      54.461  32.603  53.290  0.00  0.00    -0.142 NA
ATOM      3  C   UNL d   1      53.713  32.518  54.397  0.00  0.00     0.048 A 
ATOM      4  N   UNL d   1      54.836  33.013  53.897  0.00  0.00    -0.148 NA
ATOM      5  C   UNL d   1      54.367  32.954  54.575  0.00  0.00     0.105 A 
ATOM      6  C   UNL d   1      54.537  33.286  55.312  0.00  0.00     0.023 C 
ENDROOT
BRANCH   1   7
ATOM      7  C   UNL d   1      53.211  31.844  53.188  0.00  0.00     0.231 C 
ATOM      8  O   UNL d   1      53.112  31.046  53.363  0.00  0.00    -0.643 OA
ATOM      9  O   UNL d   1      52.756  32.195  52.596  0.00  0.00    -0.643 OA
ENDBRANCH   1   7
TORSDOF 1
ENDMDL
MODEL 2
REMARK VINA RESULT:      -5.9      1.573      2.368
REMARK  1 active torsions:
REMARK  status: ('A' for Active; 'I' for Inactive)
REMARK    1  A    between atoms: C_5  and  C_1 
ROOT
ATOM      1  C   UNL d   1      53.651  32.112  53.636  0.00  0.00     0.169 A 
ATOM      2  N   UNL d   1      53.139  32.377  53.045  0.00  0.00    -0.142 NA
ATOM      3  C   UNL d   1      53.587  31.289  53.683  0.00  0.00     0.048 A 
ATOM      4  N   UNL d   1      52.765  31.712  52.734  0.00  0.00    -0.148 NA
ATOM      5  C   UNL d   1      53.049  31.047  53.134  0.00  0.00     0.105 A 
ATOM      6  C   UNL d   1      52.821  30.266  52.996  0.00  0.00     0.023 C 
ENDROOT
BRANCH   1   7
ATOM      7  C   UNL d   1      54.137  32.590  54.096  0.00  0.00     0.231 C 
ATOM      8  O   UNL d   1      53.941  32.751  54.879  0.00  0.00    -0.643 OA
ATOM      9  O   UNL d   1      54.825  32.909  53.771  0.00  0.00    -0.643 OA
ENDBRANCH   1   7
TORSDOF 1
ENDMDL
MODEL 3
REMARK VINA RESULT:      -5.8      1.697      2.054
REMARK  1 active torsions:
REMARK  status: ('A' for Active; 'I' for Inactive)
REMARK    1  A    between atoms: C_5  and  C_1 
ROOT
ATOM      1  C   UNL d   1      53.045  30.871  53.239  0.00  0.00     0.169 A 
ATOM      2  N   UNL d   1      52.629  31.263  52.643  0.00  0.00    -0.142 NA
ATOM      3  C   UNL d   1      53.524  31.424  53.626  0.00  0.00     0.048 A 
ATOM      4  N   UNL d   1      52.857  32.054  52.669  0.00  0.00    -0.148 NA
ATOM      5  C   UNL d   1      53.409  32.142  53.278  0.00  0.00     0.105 A 
ATOM      6  C   UNL d   1      53.780  32.847  53.496  0.00  0.00     0.023 C 
ENDROOT
BRANCH   1   7
ATOM      7  C   UNL d   1      52.988  30.070  53.414  0.00  0.00     0.231 C 
ATOM      8  O   UNL d   1      52.272  29.673  53.318  0.00  0.00    -0.643 OA
ATOM      9  O   UNL d   1      53.651  29.662  53.686  0.00  0.00    -0.643 OA
ENDBRANCH   1   7
TORSDOF 1
ENDMDL
MODEL 4
REMARK VINA RESULT:      -5.7      2.375      2.732
REMARK  1 active torsions:
REMARK  status: ('A' for Active; 'I' for Inactive)
REMARK    1  A    between atoms: C_5  and  C_1 
ROOT
ATOM      1  C   UNL d   1      53.859  33.974  54.823  0.00  0.00     0.169 A 
ATOM      2  N   UNL d   1      53.685  34.697  55.182  0.00  0.00    -0.142 NA
ATOM      3  C   UNL d   1      53.439  33.933  54.110  0.00  0.00     0.048 A 
ATOM      4  N   UNL d   1      53.161  35.093  54.687  0.00  0.00    -0.148 NA
ATOM      5  C   UNL d   1      53.016  34.614  54.030  0.00  0.00     0.105 A 
ATOM      6  C   UNL d   1      52.521  34.800  53.395  0.00  0.00     0.023 C 
ENDROOT
BRANCH   1   7
ATOM      7  C   UNL d   1      54.362  33.398  55.125  0.00  0.00     0.231 C 
ATOM      8  O   UNL d   1      54.068  32.657  55.333  0.00  0.00    -0.643 OA
ATOM      9  O   UNL d   1      55.164  33.563  55.220  0.00  0.00    -0.643 OA
ENDBRANCH   1   7
TORSDOF 1
ENDMDL
MODEL 5
REMARK VINA RESULT:      -5.6      2.327      2.745
REMARK  1 active torsions:
REMARK  status: ('A' for Active; 'I' for Inactive)
REMARK    1  A    between atoms: C_5  and  C_1 
ROOT
ATOM      1  C   UNL d   1      53.403  34.615  54.564  0.00  0.00     0.169 A 
ATOM      2  N   UNL d   1      54.055  34.740  55.056  0.00  0.00    -0.142 NA
ATOM      3  C   UNL d   1      53.328  33.801  54.438  0.00  0.00     0.048 A 
ATOM      4  N   UNL d   1      54.373  34.000  55.228  0.00  0.00    -0.148 NA
ATOM      5  C   UNL d   1      53.918  33.429  54.842  0.00  0.00     0.105 A 
ATOM      6  C   UNL d   1      54.044  32.613  54.865  0.00  0.00     0.023 C 
ENDROOT
BRANCH   1   7
ATOM      7  C   UNL d   1      52.917  35.203  54.256  0.00  0.00     0.231 C 
ATOM      8  O   UNL d   1      52.914  35.956  54.589  0.00  0.00    -0.643 OA
ATOM      9  O   UNL d   1      52.432  35.036  53.611  0.00  0.00    -0.643 OA
ENDBRANCH   1   7
TORSDOF 1
ENDMDL
MODEL 6
REMARK VINA RESULT:      -5.5      1.778      2.317
REMARK  1 active torsions:
REMARK  status: ('A' for Active; 'I' for Inactive)
REMARK    1  A    between atoms: C_5  and  C_1 
ROOT
ATOM      1  C   UNL d   1      53.316  32.677  53.416  0.00  0.00     0.169 A 
ATOM      2  N   UNL d   1      53.003  32.176  52.839  0.00  0.00    -0.142 NA
ATOM      3  C   UNL d   1      52.833  33.348  53.463  0.00  0.00     0.048 A 
ATOM      4  N   UNL d   1      52.331  32.543  52.537  0.00  0.00    -0.148 NA
ATOM      5  C   UNL d   1      52.236  33.265  52.928  0.00  0.00     0.105 A 
ATOM      6  C   UNL d   1      51.630  33.811  52.796  0.00  0.00     0.023 C 
ENDROOT
BRANCH   1   7
ATOM      7  C   UNL d   1      53.990  32.530  53.863  0.00  0.00     0.231 C 
ATOM      8  O   UNL d   1      54.737  32.667  53.545  0.00  0.00    -0.643 OA
ATOM      9  O   UNL d   1      53.917  32.245  54.633  0.00  0.00    -0.643 OA
ENDBRANCH   1   7
TORSDOF 1
ENDMDL
MODEL 7
REMARK VINA RESULT:      -5.4      1.777      2.143
REMARK  1 active torsions:
REMARK  status: ('A' for Active; 'I' for Inactive)
REMARK    1  A    between atoms: C_5  and  C_1 
ROOT
ATOM      1  C   UNL d   1      52.274  33.041  53.013  0.00  0.00     0.169 A 
ATOM      2  N   UNL d   1      52.392  32.345  52.586  0.00  0.00    -0.142 NA
ATOM      3  C   UNL d   1      52.938  33.167  53.490  0.00  0.00     0.048 A 
ATOM      4  N   UNL d   1      53.128  32.049  52.804  0.00  0.00    -0.148 NA
ATOM      5  C   UNL d   1      53.456  32.563  53.362  0.00  0.00     0.105 A 
ATOM      6  C   UNL d   1      54.192  32.474  53.727  0.00  0.00     0.023 C 
ENDROOT
BRANCH   1   7
ATOM      7  C   UNL d   1      51.608  33.523  52.969  0.00  0.00     0.231 C 
ATOM      8  O   UNL d   1      50.930  33.334  53.395  0.00  0.00    -0.643 OA
ATOM      9  O   UNL d   1      51.622  34.198  52.495  0.00  0.00    -0.643 OA
ENDBRANCH   1   7
TORSDOF 1
ENDMDL
MODEL 8
REMARK VINA RESULT:      -3.5     10.154     10.354
REMARK  1 active torsions:
REMARK  status: ('A' for Active; 'I' for Inactive)
REMARK    1  A    between atoms: C_5  and  C_1 
ROOT
ATOM      1  C   UNL d   1      45.309  28.053  57.451  0.00  0.00     0.169 A 
ATOM      2  N   UNL d   1      45.306  28.555  58.107  0.00  0.00    -0.142 NA
ATOM      3  C   UNL d   1      45.043  28.484  56.796  0.00  0.00     0.048 A 
ATOM      4  N   UNL d   1      45.039  29.289  57.848  0.00  0.00    -0.148 NA
ATOM      5  C   UNL d   1      44.880  29.234  57.039  0.00  0.00     0.105 A 
ATOM      6  C   UNL d   1      44.600  29.845  56.558  0.00  0.00     0.023 C 
ENDROOT
BRANCH   1   7
ATOM      7  C   UNL d   1      45.538  27.263  57.454  0.00  0.00     0.231 C 
ATOM      8  O   UNL d   1      45.741  26.887  56.751  0.00  0.00    -0.643 OA
ATOM      9  O   UNL d   1      45.563  26.847  58.166  0.00  0.00    -0.643 OA
ENDBRANCH   1   7
TORSDOF 1
ENDMDL
MODEL 9
REMARK VINA RESULT:      -3.4     10.499     10.846
REMARK  1 active torsions:
REMARK  status: ('A' for Active; 'I' for Inactive)
REMARK    1  A    between atoms: C_5  and  C_1 
ROOT
ATOM      1  C   UNL d   1      45.237  28.295  58.166  0.00  0.00     0.169 A 
ATOM      2  N   UNL d   1      45.533  27.835  57.547  0.00  0.00    -0.142 NA
ATOM      3  C   UNL d   1      44.982  27.785  58.766  0.00  0.00     0.048 A 
ATOM      4  N   UNL d   1      45.457  27.047  57.773  0.00  0.00    -0.148 NA
ATOM      5  C   UNL d   1      45.116  27.028  58.526  0.00  0.00     0.105 A 
ATOM      6  C   UNL d   1      44.942  26.348  58.961  0.00  0.00     0.023 C 
ENDROOT
BRANCH   1   7
ATOM      7  C   UNL d   1      45.204  29.116  58.178  0.00  0.00     0.231 C 
ATOM      8  O   UNL d   1      44.732  29.521  57.637  0.00  0.00    -0.643 OA
ATOM      9  O   UNL d   1      45.645  29.536  58.733  0.00  0.00    -0.643 OA
ENDBRANCH   1   7
TORSDOF 1
ENDMDL
