MODEL 1
REMARK VINA RESULT:       3.4      0.000      0.000
REMARK  5 active torsions:
REMARK  status: ('A' for Active; 'I' for Inactive)
REMARK    1  A    between atoms: C_2  and  C_1 
REMARK    2  A    between atoms: O_16  and  C_13 
REMARK    3  A    between atoms: C_21  and  O_16 
REMARK    4  A    between atoms: O_22  and  C_17 
REMARK    5  A    between atoms: C_20  and  C_21 
ROOT
ATOM      1  C   UNL d   1     -41.375-121.135 -52.164  0.00  0.00     0.030 A 
ATOM      2  C   UNL d   1     -41.356-121.368 -51.373  0.00  0.00     0.027 A 
ATOM      3  C   UNL d   1     -41.259-120.799 -50.781  0.00  0.00     0.103 A 
ATOM      4  O   UNL d   1     -41.181-120.003 -50.978  0.00  0.00    -0.273 OA
ATOM      5  C   UNL d   1     -41.199-119.769 -51.769  0.00  0.00     0.300 A 
ATOM      6  C   UNL d   1     -41.297-120.337 -52.360  0.00  0.00     0.071 A 
ATOM      7  C   UNL d   1     -41.434-122.169 -51.165  0.00  0.00     0.027 A 
ATOM      8  C   UNL d   1     -41.413-122.384 -50.377  0.00  0.00     0.100 A 
ATOM      9  C   UNL d   1     -41.240-121.029 -49.986  0.00  0.00     0.027 A 
ATOM     10  C   UNL d   1     -41.317-121.820 -49.783  0.00  0.00     0.025 A 
ATOM     11  O   UNL d   1     -41.123-118.979 -51.973  0.00  0.00    -0.259 OA
ATOM     12  C   UNL d   1     -41.297-122.045 -48.998  0.00  0.00     0.002 C 
ENDROOT
BRANCH   1  13
ATOM     13  C   UNL d   1     -41.472-121.707 -52.751  0.00  0.00     0.100 A 
ATOM     14  O   UNL d   1     -41.945-121.626 -53.423  0.00  0.00    -0.305 OA
ATOM     15  C   UNL d   1     -41.887-122.320 -53.862  0.00  0.00     0.122 A 
ATOM     16  C   UNL d   1     -42.228-122.556 -54.572  0.00  0.00     0.117 A 
ATOM     17  C   UNL d   1     -41.379-122.833 -53.462  0.00  0.00     0.027 A 
ATOM     18  C   UNL d   1     -42.067-123.295 -54.883  0.00  0.00     0.026 A 
ATOM     19  C   UNL d   1     -41.559-123.811 -54.488  0.00  0.00     0.002 A 
ATOM     20  C   UNL d   1     -41.215-123.578 -53.775  0.00  0.00     0.002 A 
ATOM     21  C   UNL d   1     -41.124-122.454 -52.777  0.00  0.00     0.027 A 
BRANCH  16  22
ATOM     22  O   UNL d   1     -42.730-122.050 -54.967  0.00  0.00    -0.326 OA
ATOM     23  C   UNL d   1     -43.115-122.301 -55.651  0.00  0.00     0.181 C 
ENDBRANCH  16  22
ENDBRANCH   1  13
BRANCH   8  24
ATOM     24  O   UNL d   1     -41.492-123.185 -50.177  0.00  0.00    -0.302 OA
BRANCH  24  25
ATOM     25  C   UNL d   1     -42.179-123.593 -50.380  0.00  0.00     0.165 C 
BRANCH  25  26
ATOM     26  C   UNL d   1     -42.760-123.729 -49.815  0.00  0.00     0.220 C 
ATOM     27  O   UNL d   1     -43.551-123.781 -50.045  0.00  0.00    -0.284 OA
ATOM     28  C   UNL d   1     -42.564-123.813 -49.034  0.00  0.00     0.048 C 
ENDBRANCH  25  26
ENDBRANCH  24  25
ENDBRANCH   8  24
TORSDOF 5
ENDMDL
