MODEL 1
REMARK VINA RESULT:      -2.7      0.000      0.000
REMARK  4 active torsions:
REMARK  status: ('A' for Active; 'I' for Inactive)
REMARK    1  A    between atoms: S_2  and  N_1 
REMARK    2  A    between atoms: N_6  and  S_2 
REMARK    3  A    between atoms: C_10  and  C_3 
REMARK    4  A    between atoms: C_14  and  C_10 
ROOT
ATOM      1  N   UNL d   1      59.210  -1.148  29.404  0.00  0.00    -0.201 N 
ATOM      2  C   UNL d   1      58.669  -0.693  29.854  0.00  0.00     0.158 A 
ATOM      3  N   UNL d   1      59.004   0.058  29.964  0.00  0.00    -0.226 NA
ATOM      4  C   UNL d   1      59.863  -0.673  29.247  0.00  0.00     0.095 A 
ATOM      5  C   UNL d   1      59.738   0.068  29.590  0.00  0.00     0.100 A 
ATOM      6  C   UNL d   1      60.557  -0.829  28.831  0.00  0.00     0.020 A 
ATOM      7  C   UNL d   1      60.314   0.653  29.513  0.00  0.00     0.021 A 
ATOM      8  C   UNL d   1      61.133  -0.244  28.754  0.00  0.00     0.002 A 
ATOM      9  C   UNL d   1      61.012   0.501  29.097  0.00  0.00     0.002 A 
ENDROOT
BRANCH   1  10
ATOM     10  S   UNL d   1      59.105  -1.922  29.167  0.00  0.00     0.338 S 
ATOM     11  O   UNL d   1      58.779  -1.668  28.455  0.00  0.00    -0.181 OA
ATOM     12  O   UNL d   1      59.431  -2.179  29.879  0.00  0.00    -0.181 OA
BRANCH  10  13
ATOM     13  N   UNL d   1      59.004  -2.706  28.939  0.00  0.00    -0.212 N 
ATOM     14  C   UNL d   1      59.639  -3.229  28.968  0.00  0.00     0.120 A 
ATOM     15  C   UNL d   1      59.533  -4.021  28.737  0.00  0.00     0.142 A 
ATOM     16  O   UNL d   1      58.790  -4.275  28.481  0.00  0.00    -0.300 OA
ATOM     17  C   UNL d   1      58.165  -3.749  28.455  0.00  0.00     0.142 A 
ATOM     18  C   UNL d   1      58.265  -2.969  28.682  0.00  0.00     0.120 A 
ENDBRANCH  10  13
ENDBRANCH   1  10
BRANCH   2  19
ATOM     19  C   UNL d   1      57.935  -0.950  30.135  0.00  0.00     0.038 C 
BRANCH  19  20
ATOM     20  C   UNL d   1      57.552  -0.519  30.721  0.00  0.00     0.003 A 
ATOM     21  C   UNL d   1      57.417  -0.866  31.460  0.00  0.00     0.000 A 
ATOM     22  C   UNL d   1      57.035  -0.435  32.046  0.00  0.00     0.000 A 
ATOM     23  C   UNL d   1      56.787   0.331  31.904  0.00  0.00     0.000 A 
ATOM     24  C   UNL d   1      56.923   0.680  31.162  0.00  0.00     0.000 A 
ATOM     25  C   UNL d   1      57.307   0.249  30.572  0.00  0.00     0.000 A 
ENDBRANCH  19  20
ENDBRANCH   2  19
TORSDOF 4
ENDMDL
MODEL 2
REMARK VINA RESULT:       0.0      1.166      3.503
REMARK  4 active torsions:
REMARK  status: ('A' for Active; 'I' for Inactive)
REMARK    1  A    between atoms: S_2  and  N_1 
REMARK    2  A    between atoms: N_6  and  S_2 
REMARK    3  A    between atoms: C_10  and  C_3 
REMARK    4  A    between atoms: C_14  and  C_10 
ROOT
ATOM      1  N   UNL d   1      59.023  -0.835  29.652  0.00  0.00    -0.201 N 
ATOM      2  C   UNL d   1      59.082  -1.544  29.209  0.00  0.00     0.158 A 
ATOM      3  N   UNL d   1      59.798  -1.520  28.791  0.00  0.00    -0.226 NA
ATOM      4  C   UNL d   1      59.698  -0.391  29.500  0.00  0.00     0.095 A 
ATOM      5  C   UNL d   1      60.175  -0.810  28.971  0.00  0.00     0.100 A 
ATOM      6  C   UNL d   1      59.934   0.347  29.780  0.00  0.00     0.020 A 
ATOM      7  C   UNL d   1      60.892  -0.484  28.725  0.00  0.00     0.021 A 
ATOM      8  C   UNL d   1      60.651   0.673  29.535  0.00  0.00     0.002 A 
ATOM      9  C   UNL d   1      61.133   0.256  29.005  0.00  0.00     0.002 A 
ENDROOT
BRANCH   1  10
ATOM     10  S   UNL d   1      58.406  -0.626  30.144  0.00  0.00     0.338 S 
ATOM     11  O   UNL d   1      58.892  -0.712  30.803  0.00  0.00    -0.181 OA
ATOM     12  O   UNL d   1      57.918  -0.540  29.486  0.00  0.00    -0.181 OA
BRANCH  10  13
ATOM     13  N   UNL d   1      57.776  -0.415  30.630  0.00  0.00    -0.212 N 
ATOM     14  C   UNL d   1      57.394  -0.986  31.081  0.00  0.00     0.120 A 
ATOM     15  C   UNL d   1      56.758  -0.769  31.571  0.00  0.00     0.142 A 
ATOM     16  O   UNL d   1      56.516   0.020  31.599  0.00  0.00    -0.300 OA
ATOM     17  C   UNL d   1      56.902   0.582  31.147  0.00  0.00     0.142 A 
ATOM     18  C   UNL d   1      57.529   0.372  30.664  0.00  0.00     0.120 A 
ENDBRANCH  10  13
ENDBRANCH   1  10
BRANCH   2  19
ATOM     19  C   UNL d   1      58.524  -2.155  29.196  0.00  0.00     0.038 C 
BRANCH  19  20
ATOM     20  C   UNL d   1      58.753  -2.906  28.951  0.00  0.00     0.003 A 
ATOM     21  C   UNL d   1      59.557  -3.099  28.928  0.00  0.00     0.000 A 
ATOM     22  C   UNL d   1      59.786  -3.850  28.684  0.00  0.00     0.000 A 
ATOM     23  C   UNL d   1      59.227  -4.405  28.465  0.00  0.00     0.000 A 
ATOM     24  C   UNL d   1      58.419  -4.211  28.489  0.00  0.00     0.000 A 
ATOM     25  C   UNL d   1      58.187  -3.457  28.733  0.00  0.00     0.000 A 
ENDBRANCH  19  20
ENDBRANCH   2  19
TORSDOF 4
ENDMDL
