MODEL 1
REMARK VINA RESULT:      -7.9      0.000      0.000
REMARK  6 active torsions:
REMARK  status: ('A' for Active; 'I' for Inactive)
REMARK    1  A    between atoms: C_7  and  C_1 
REMARK    2  A    between atoms: C_6  and  C_2 
REMARK       I    between atoms: N_9  and  C_6 
REMARK    3  A    between atoms: O_16  and  C_7 
REMARK       I    between atoms: C_8  and  N_10 
REMARK    4  A    between atoms: C_14  and  C_8 
REMARK    5  A    between atoms: N_10  and  N_9 
REMARK    6  A    between atoms: C_20  and  O_16 
ROOT
ATOM      1  C   UNL d   1      53.122  30.548  53.564  0.00  0.00     0.083 A 
ATOM      2  C   UNL d   1      53.475  31.810  53.349  0.00  0.00     0.141 A 
ATOM      3  C   UNL d   1      53.325  31.253  53.938  0.00  0.00     0.029 A 
ATOM      4  N   UNL d   1      53.367  31.456  52.624  0.00  0.00    -0.240 NA
ATOM      5  C   UNL d   1      53.146  30.669  52.745  0.00  0.00     0.087 A 
ATOM      6  C   UNL d   1      53.369  31.373  54.754  0.00  0.00     0.002 C 
ATOM      7  C   UNL d   1      52.984  30.118  52.166  0.00  0.00     0.021 C 
ENDROOT
BRANCH   2   8
ATOM      8  C   UNL d   1      53.700  32.599  53.481  0.00  0.00     0.314 C 
ATOM      9  N   UNL d   1      53.158  33.205  53.365  0.00  0.00    -0.101 NA
ATOM     10  O   UNL d   1      54.466  32.773  53.728  0.00  0.00    -0.262 OA
BRANCH   9  11
ATOM     11  N   UNL d   1      53.378  33.990  53.495  0.00  0.00    -0.102 NA
ATOM     12  C   UNL d   1      52.846  34.603  53.351  0.00  0.00     0.297 C 
ATOM     13  O   UNL d   1      53.077  35.386  53.485  0.00  0.00    -0.264 OA
BRANCH  12  14
ATOM     14  C   UNL d   1      52.093  34.429  53.076  0.00  0.00     0.059 A 
ATOM     15  C   UNL d   1      51.961  34.398  52.260  0.00  0.00     0.005 A 
ATOM     16  C   UNL d   1      51.199  34.222  51.976  0.00  0.00     0.000 A 
ATOM     17  C   UNL d   1      50.590  34.081  52.514  0.00  0.00     0.000 A 
ATOM     18  C   UNL d   1      50.727  34.112  53.322  0.00  0.00     0.000 A 
ATOM     19  C   UNL d   1      51.484  34.287  53.605  0.00  0.00     0.005 A 
ENDBRANCH  12  14
ENDBRANCH   9  11
ENDBRANCH   2   8
BRANCH   1  20
ATOM     20  C   UNL d   1      52.926  29.836  53.940  0.00  0.00     0.302 C 
ATOM     21  O   UNL d   1      52.139  29.590  53.969  0.00  0.00    -0.259 OA
BRANCH  20  22
ATOM     22  O   UNL d   1      53.518  29.372  54.286  0.00  0.00    -0.271 OA
BRANCH  22  23
ATOM     23  C   UNL d   1      53.313  28.728  54.739  0.00  0.00     0.126 C 
ATOM     24  C   UNL d   1      53.877  28.156  54.929  0.00  0.00     0.029 C 
ENDBRANCH  22  23
ENDBRANCH  20  22
ENDBRANCH   1  20
TORSDOF 6
ENDMDL
MODEL 2
REMARK VINA RESULT:      -7.1      2.103      4.572
REMARK  6 active torsions:
REMARK  status: ('A' for Active; 'I' for Inactive)
REMARK    1  A    between atoms: C_7  and  C_1 
REMARK    2  A    between atoms: C_6  and  C_2 
REMARK       I    between atoms: N_9  and  C_6 
REMARK    3  A    between atoms: O_16  and  C_7 
REMARK       I    between atoms: C_8  and  N_10 
REMARK    4  A    between atoms: C_14  and  C_8 
REMARK    5  A    between atoms: N_10  and  N_9 
REMARK    6  A    between atoms: C_20  and  O_16 
ROOT
ATOM      1  C   UNL d   1      50.958  34.510  52.820  0.00  0.00     0.083 A 
ATOM      2  C   UNL d   1      52.190  34.712  53.276  0.00  0.00     0.141 A 
ATOM      3  C   UNL d   1      51.396  34.682  53.497  0.00  0.00     0.029 A 
ATOM      4  N   UNL d   1      52.243  34.562  52.477  0.00  0.00    -0.240 NA
ATOM      5  C   UNL d   1      51.481  34.434  52.182  0.00  0.00     0.087 A 
ATOM      6  C   UNL d   1      51.089  34.801  54.254  0.00  0.00     0.002 C 
ATOM      7  C   UNL d   1      51.285  34.265  51.409  0.00  0.00     0.021 C 
ENDROOT
BRANCH   2   8
ATOM      8  C   UNL d   1      52.825  34.871  53.788  0.00  0.00     0.314 C 
ATOM      9  N   UNL d   1      53.320  34.263  54.029  0.00  0.00    -0.101 NA
ATOM     10  O   UNL d   1      52.956  35.640  54.054  0.00  0.00    -0.262 OA
BRANCH   9  11
ATOM     11  N   UNL d   1      53.952  34.417  54.538  0.00  0.00    -0.102 NA
ATOM     12  C   UNL d   1      54.459  33.812  54.771  0.00  0.00     0.297 C 
ATOM     13  O   UNL d   1      55.089  33.978  55.281  0.00  0.00    -0.264 OA
BRANCH  12  14
ATOM     14  C   UNL d   1      54.333  33.049  54.494  0.00  0.00     0.059 A 
ATOM     15  C   UNL d   1      53.894  32.522  54.956  0.00  0.00     0.005 A 
ATOM     16  C   UNL d   1      53.763  31.748  54.679  0.00  0.00     0.000 A 
ATOM     17  C   UNL d   1      54.075  31.522  53.950  0.00  0.00     0.000 A 
ATOM     18  C   UNL d   1      54.509  32.049  53.496  0.00  0.00     0.000 A 
ATOM     19  C   UNL d   1      54.640  32.818  53.770  0.00  0.00     0.005 A 
ENDBRANCH  12  14
ENDBRANCH   9  11
ENDBRANCH   2   8
BRANCH   1  20
ATOM     20  C   UNL d   1      50.135  34.426  52.781  0.00  0.00     0.302 C 
ATOM     21  O   UNL d   1      49.799  33.673  52.777  0.00  0.00    -0.259 OA
BRANCH  20  22
ATOM     22  O   UNL d   1      49.650  35.096  52.745  0.00  0.00    -0.271 OA
BRANCH  22  23
ATOM     23  C   UNL d   1      48.846  35.009  52.660  0.00  0.00     0.126 C 
ATOM     24  C   UNL d   1      48.352  35.670  52.670  0.00  0.00     0.029 C 
ENDBRANCH  22  23
ENDBRANCH  20  22
ENDBRANCH   1  20
TORSDOF 6
ENDMDL
MODEL 3
REMARK VINA RESULT:      -7.0      1.725      4.576
REMARK  6 active torsions:
REMARK  status: ('A' for Active; 'I' for Inactive)
REMARK    1  A    between atoms: C_7  and  C_1 
REMARK    2  A    between atoms: C_6  and  C_2 
REMARK       I    between atoms: N_9  and  C_6 
REMARK    3  A    between atoms: O_16  and  C_7 
REMARK       I    between atoms: C_8  and  N_10 
REMARK    4  A    between atoms: C_14  and  C_8 
REMARK    5  A    between atoms: N_10  and  N_9 
REMARK    6  A    between atoms: C_20  and  O_16 
ROOT
ATOM      1  C   UNL d   1      50.976  34.028  52.613  0.00  0.00     0.083 A 
ATOM      2  C   UNL d   1      51.826  33.010  52.673  0.00  0.00     0.141 A 
ATOM      3  C   UNL d   1      51.124  33.307  52.984  0.00  0.00     0.029 A 
ATOM      4  N   UNL d   1      52.109  33.536  52.119  0.00  0.00    -0.240 NA
ATOM      5  C   UNL d   1      51.586  34.176  52.073  0.00  0.00     0.087 A 
ATOM      6  C   UNL d   1      50.651  32.954  53.562  0.00  0.00     0.002 C 
ATOM      7  C   UNL d   1      51.660  34.826  51.588  0.00  0.00     0.021 C 
ENDROOT
BRANCH   2   8
ATOM      8  C   UNL d   1      52.182  32.291  52.891  0.00  0.00     0.314 C 
ATOM      9  N   UNL d   1      52.870  32.293  53.340  0.00  0.00    -0.101 NA
ATOM     10  O   UNL d   1      51.844  31.577  52.658  0.00  0.00    -0.262 OA
BRANCH   9  11
ATOM     11  N   UNL d   1      53.226  31.581  53.559  0.00  0.00    -0.102 NA
ATOM     12  C   UNL d   1      53.894  31.577  54.041  0.00  0.00     0.297 C 
ATOM     13  O   UNL d   1      54.242  30.858  54.254  0.00  0.00    -0.264 OA
BRANCH  12  14
ATOM     14  C   UNL d   1      54.206  32.289  54.304  0.00  0.00     0.059 A 
ATOM     15  C   UNL d   1      53.977  32.577  55.046  0.00  0.00     0.005 A 
ATOM     16  C   UNL d   1      54.291  33.298  55.318  0.00  0.00     0.000 A 
ATOM     17  C   UNL d   1      54.823  33.713  54.842  0.00  0.00     0.000 A 
ATOM     18  C   UNL d   1      55.045  33.422  54.108  0.00  0.00     0.000 A 
ATOM     19  C   UNL d   1      54.734  32.706  53.838  0.00  0.00     0.005 A 
ENDBRANCH  12  14
ENDBRANCH   9  11
ENDBRANCH   2   8
BRANCH   1  20
ATOM     20  C   UNL d   1      50.327  34.524  52.754  0.00  0.00     0.302 C 
ATOM     21  O   UNL d   1      50.348  35.060  53.382  0.00  0.00    -0.259 OA
BRANCH  20  22
ATOM     22  O   UNL d   1      49.659  34.483  52.267  0.00  0.00    -0.271 OA
BRANCH  22  23
ATOM     23  C   UNL d   1      49.030  34.981  52.401  0.00  0.00     0.126 C 
ATOM     24  C   UNL d   1      48.386  34.987  51.885  0.00  0.00     0.029 C 
ENDBRANCH  22  23
ENDBRANCH  20  22
ENDBRANCH   1  20
TORSDOF 6
ENDMDL
MODEL 4
REMARK VINA RESULT:      -6.7      1.455      4.662
REMARK  6 active torsions:
REMARK  status: ('A' for Active; 'I' for Inactive)
REMARK    1  A    between atoms: C_7  and  C_1 
REMARK    2  A    between atoms: C_6  and  C_2 
REMARK       I    between atoms: N_9  and  C_6 
REMARK    3  A    between atoms: O_16  and  C_7 
REMARK       I    between atoms: C_8  and  N_10 
REMARK    4  A    between atoms: C_14  and  C_8 
REMARK    5  A    between atoms: N_10  and  N_9 
REMARK    6  A    between atoms: C_20  and  O_16 
ROOT
ATOM      1  C   UNL d   1      53.581  33.503  54.348  0.00  0.00     0.083 A 
ATOM      2  C   UNL d   1      53.451  32.462  53.533  0.00  0.00     0.141 A 
ATOM      3  C   UNL d   1      53.045  33.090  53.878  0.00  0.00     0.029 A 
ATOM      4  N   UNL d   1      54.226  32.485  53.784  0.00  0.00    -0.240 NA
ATOM      5  C   UNL d   1      54.319  33.130  54.293  0.00  0.00     0.087 A 
ATOM      6  C   UNL d   1      52.247  33.278  53.776  0.00  0.00     0.002 C 
ATOM      7  C   UNL d   1      55.007  33.354  54.669  0.00  0.00     0.021 C 
ENDROOT
BRANCH   2   8
ATOM      8  C   UNL d   1      53.120  31.902  53.015  0.00  0.00     0.314 C 
ATOM      9  N   UNL d   1      53.080  31.113  53.235  0.00  0.00    -0.101 NA
ATOM     10  O   UNL d   1      52.833  32.141  52.281  0.00  0.00    -0.262 OA
BRANCH   9  11
ATOM     11  N   UNL d   1      52.752  30.554  52.724  0.00  0.00    -0.102 NA
ATOM     12  C   UNL d   1      52.689  29.764  52.949  0.00  0.00     0.297 C 
ATOM     13  O   UNL d   1      52.359  29.214  52.429  0.00  0.00    -0.264 OA
BRANCH  12  14
ATOM     14  C   UNL d   1      52.957  29.534  53.691  0.00  0.00     0.059 A 
ATOM     15  C   UNL d   1      53.725  29.237  53.765  0.00  0.00     0.005 A 
ATOM     16  C   UNL d   1      54.001  29.002  54.514  0.00  0.00     0.000 A 
ATOM     17  C   UNL d   1      53.503  29.069  55.168  0.00  0.00     0.000 A 
ATOM     18  C   UNL d   1      52.742  29.365  55.088  0.00  0.00     0.000 A 
ATOM     19  C   UNL d   1      52.467  29.598  54.344  0.00  0.00     0.005 A 
ENDBRANCH  12  14
ENDBRANCH   9  11
ENDBRANCH   2   8
BRANCH   1  20
ATOM     20  C   UNL d   1      53.415  34.177  54.800  0.00  0.00     0.302 C 
ATOM     21  O   UNL d   1      53.233  34.100  55.601  0.00  0.00    -0.259 OA
BRANCH  20  22
ATOM     22  O   UNL d   1      53.432  34.927  54.449  0.00  0.00    -0.271 OA
BRANCH  22  23
ATOM     23  C   UNL d   1      53.166  35.573  54.866  0.00  0.00     0.126 C 
ATOM     24  C   UNL d   1      53.242  36.332  54.550  0.00  0.00     0.029 C 
ENDBRANCH  22  23
ENDBRANCH  20  22
ENDBRANCH   1  20
TORSDOF 6
ENDMDL
MODEL 5
REMARK VINA RESULT:      -6.4      1.381      2.109
REMARK  6 active torsions:
REMARK  status: ('A' for Active; 'I' for Inactive)
REMARK    1  A    between atoms: C_7  and  C_1 
REMARK    2  A    between atoms: C_6  and  C_2 
REMARK       I    between atoms: N_9  and  C_6 
REMARK    3  A    between atoms: O_16  and  C_7 
REMARK       I    between atoms: C_8  and  N_10 
REMARK    4  A    between atoms: C_14  and  C_8 
REMARK    5  A    between atoms: N_10  and  N_9 
REMARK    6  A    between atoms: C_20  and  O_16 
ROOT
ATOM      1  C   UNL d   1      53.089  30.333  53.316  0.00  0.00     0.083 A 
ATOM      2  C   UNL d   1      53.028  31.623  53.008  0.00  0.00     0.141 A 
ATOM      3  C   UNL d   1      52.621  31.008  53.375  0.00  0.00     0.029 A 
ATOM      4  N   UNL d   1      53.736  31.334  52.726  0.00  0.00    -0.240 NA
ATOM      5  C   UNL d   1      53.785  30.530  52.913  0.00  0.00     0.087 A 
ATOM      6  C   UNL d   1      51.880  31.054  53.737  0.00  0.00     0.002 C 
ATOM      7  C   UNL d   1      54.402  30.029  52.733  0.00  0.00     0.021 C 
ENDROOT
BRANCH   2   8
ATOM      8  C   UNL d   1      52.757  32.406  52.940  0.00  0.00     0.314 C 
ATOM      9  N   UNL d   1      53.086  32.997  53.404  0.00  0.00    -0.101 NA
ATOM     10  O   UNL d   1      52.157  32.588  52.405  0.00  0.00    -0.262 OA
BRANCH   9  11
ATOM     11  N   UNL d   1      52.818  33.776  53.339  0.00  0.00    -0.102 NA
ATOM     12  C   UNL d   1      53.142  34.370  53.807  0.00  0.00     0.297 C 
ATOM     13  O   UNL d   1      52.866  35.146  53.733  0.00  0.00    -0.264 OA
BRANCH  12  14
ATOM     14  C   UNL d   1      53.736  34.185  54.343  0.00  0.00     0.059 A 
ATOM     15  C   UNL d   1      54.523  34.200  54.090  0.00  0.00     0.005 A 
ATOM     16  C   UNL d   1      55.129  34.013  54.629  0.00  0.00     0.000 A 
ATOM     17  C   UNL d   1      54.932  33.816  55.406  0.00  0.00     0.000 A 
ATOM     18  C   UNL d   1      54.149  33.803  55.651  0.00  0.00     0.000 A 
ATOM     19  C   UNL d   1      53.547  33.989  55.115  0.00  0.00     0.005 A 
ENDBRANCH  12  14
ENDBRANCH   9  11
ENDBRANCH   2   8
BRANCH   1  20
ATOM     20  C   UNL d   1      52.899  29.582  53.609  0.00  0.00     0.302 C 
ATOM     21  O   UNL d   1      52.448  29.064  53.152  0.00  0.00    -0.259 OA
BRANCH  20  22
ATOM     22  O   UNL d   1      53.160  29.350  54.361  0.00  0.00    -0.271 OA
BRANCH  22  23
ATOM     23  C   UNL d   1      53.099  28.571  54.587  0.00  0.00     0.126 C 
ATOM     24  C   UNL d   1      53.384  28.328  55.323  0.00  0.00     0.029 C 
ENDBRANCH  22  23
ENDBRANCH  20  22
ENDBRANCH   1  20
TORSDOF 6
ENDMDL
