MODEL 1
REMARK VINA RESULT:      46.7      0.000      0.000
REMARK  4 active torsions:
REMARK  status: ('A' for Active; 'I' for Inactive)
REMARK    1  A    between atoms: N_2  and  S_1 
REMARK    2  A    between atoms: C_5  and  S_1 
REMARK    3  A    between atoms: O_16  and  C_11 
REMARK    4  A    between atoms: C_19  and  O_16 
ROOT
ATOM      1  C   UNL d   1     -55.056-101.741 -42.091  0.00  0.00     0.107 A 
ATOM      2  C   UNL d   1     -55.067-102.256 -42.734  0.00  0.00     0.040 A 
ATOM      3  C   UNL d   1     -54.952-101.965 -43.499  0.00  0.00     0.128 A 
ATOM      4  C   UNL d   1     -54.826-101.160 -43.620  0.00  0.00     0.163 A 
ATOM      5  C   UNL d   1     -54.930-100.935 -42.212  0.00  0.00     0.015 A 
ATOM      6  C   UNL d   1     -54.815-100.644 -42.976  0.00  0.00     0.032 A 
ATOM      7  F   UNL d   1     -54.712-100.869 -44.385  0.00  0.00    -0.202 F 
ENDROOT
BRANCH   1   8
ATOM      8  S   UNL d   1     -55.171-102.032 -41.326  0.00  0.00     0.286 S 
ATOM      9  O   UNL d   1     -55.229-101.259 -41.041  0.00  0.00    -0.198 OA
ATOM     10  O   UNL d   1     -55.112-102.805 -41.611  0.00  0.00    -0.198 OA
BRANCH   8  11
ATOM     11  N   UNL d   1     -55.285-102.323 -40.562  0.00  0.00    -0.152 N 
ATOM     12  N   UNL d   1     -54.732-102.324 -39.952  0.00  0.00    -0.155 NA
ATOM     13  C   UNL d   1     -55.075-102.663 -39.289  0.00  0.00     0.104 A 
ATOM     14  C   UNL d   1     -54.711-102.773 -38.551  0.00  0.00     0.022 C 
ATOM     15  C   UNL d   1     -55.848-102.876 -39.486  0.00  0.00     0.041 A 
ATOM     16  C   UNL d   1     -55.979-102.667 -40.269  0.00  0.00     0.096 A 
ATOM     17  C   UNL d   1     -56.677-102.778 -40.695  0.00  0.00     0.022 C 
ENDBRANCH   8  11
ENDBRANCH   1   8
BRANCH   3  18
ATOM     18  O   UNL d   1     -54.963-102.480 -44.142  0.00  0.00    -0.303 OA
BRANCH  18  19
ATOM     19  C   UNL d   1     -54.854-102.187 -44.913  0.00  0.00     0.123 C 
ATOM     20  C   UNL d   1     -54.718-102.707 -45.538  0.00  0.00     0.029 C 
ENDBRANCH  18  19
ENDBRANCH   3  18
TORSDOF 4
ENDMDL
