MODEL 1
REMARK VINA RESULT:      -3.2      0.000      0.000
REMARK  2 active torsions:
REMARK  status: ('A' for Active; 'I' for Inactive)
REMARK    1  A    between atoms: C_3  and  C_1 
REMARK       I    between atoms: N_6  and  C_3 
REMARK    2  A    between atoms: C_16  and  N_7 
ROOT
ATOM      1  C   UNL d   1      31.996  16.134 -23.490  0.00  0.00     0.270 C 
ATOM      2  N   UNL d   1      32.210  16.919 -23.343  0.00  0.00    -0.269 N 
ATOM      3  N   UNL d   1      32.628  18.483 -23.057  0.00  0.00    -0.301 N 
ATOM      4  O   UNL d   1      32.497  15.521 -23.255  0.00  0.00    -0.266 OA
ATOM      5  C   UNL d   1      31.707  17.527 -23.579  0.00  0.00     0.102 A 
ATOM      6  C   UNL d   1      32.916  17.090 -22.968  0.00  0.00     0.102 A 
ATOM      7  C   UNL d   1      33.127  17.875 -22.824  0.00  0.00     0.100 A 
ATOM      8  C   UNL d   1      31.914  18.310 -23.437  0.00  0.00     0.100 A 
ENDROOT
BRANCH   1   9
ATOM      9  C   UNL d   1      31.282  15.965 -23.869  0.00  0.00     0.120 A 
ATOM     10  C   UNL d   1      31.276  15.722 -24.656  0.00  0.00     0.305 A 
ATOM     11  O   UNL d   1      30.555  15.551 -25.040  0.00  0.00    -0.273 OA
ATOM     12  O   UNL d   1      31.989  15.648 -25.066  0.00  0.00    -0.259 OA
ATOM     13  C   UNL d   1      29.841  15.626 -24.626  0.00  0.00     0.103 A 
ATOM     14  C   UNL d   1      29.841  15.868 -23.838  0.00  0.00     0.023 A 
ATOM     15  C   UNL d   1      29.127  15.457 -25.005  0.00  0.00     0.025 A 
ATOM     16  C   UNL d   1      30.561  16.040 -23.452  0.00  0.00     0.012 A 
ATOM     17  C   UNL d   1      29.129  15.942 -23.428  0.00  0.00     0.002 A 
ATOM     18  C   UNL d   1      28.419  15.773 -23.807  0.00  0.00     0.000 A 
ATOM     19  C   UNL d   1      28.418  15.531 -24.595  0.00  0.00     0.002 A 
ENDBRANCH   1   9
BRANCH   3  20
ATOM     20  C   UNL d   1      32.833  19.268 -22.916  0.00  0.00     0.064 A 
ATOM     21  C   UNL d   1      33.036  19.768 -23.542  0.00  0.00     0.018 A 
ATOM     22  C   UNL d   1      33.240  20.554 -23.397  0.00  0.00     0.002 A 
ATOM     23  C   UNL d   1      33.241  20.839 -22.623  0.00  0.00     0.000 A 
ATOM     24  C   UNL d   1      33.037  20.340 -21.995  0.00  0.00     0.002 A 
ATOM     25  C   UNL d   1      32.833  19.556 -22.145  0.00  0.00     0.018 A 
ENDBRANCH   3  20
TORSDOF 2
ENDMDL
MODEL 2
REMARK VINA RESULT:      -2.8      1.262      4.692
REMARK  2 active torsions:
REMARK  status: ('A' for Active; 'I' for Inactive)
REMARK    1  A    between atoms: C_3  and  C_1 
REMARK       I    between atoms: N_6  and  C_3 
REMARK    2  A    between atoms: C_16  and  N_7 
ROOT
ATOM      1  C   UNL d   1      32.608  17.069 -23.524  0.00  0.00     0.270 C 
ATOM      2  N   UNL d   1      31.837  16.792 -23.635  0.00  0.00    -0.269 N 
ATOM      3  N   UNL d   1      30.300  16.252 -23.858  0.00  0.00    -0.301 N 
ATOM      4  O   UNL d   1      33.219  16.532 -23.376  0.00  0.00    -0.266 OA
ATOM      5  C   UNL d   1      31.231  17.331 -23.783  0.00  0.00     0.102 A 
ATOM      6  C   UNL d   1      31.677  15.991 -23.599  0.00  0.00     0.102 A 
ATOM      7  C   UNL d   1      30.906  15.718 -23.711  0.00  0.00     0.100 A 
ATOM      8  C   UNL d   1      30.461  17.063 -23.895  0.00  0.00     0.100 A 
ENDROOT
BRANCH   1   9
ATOM      9  C   UNL d   1      32.766  17.878 -23.561  0.00  0.00     0.120 A 
ATOM     10  C   UNL d   1      32.933  18.302 -22.874  0.00  0.00     0.305 A 
ATOM     11  O   UNL d   1      33.093  19.121 -22.911  0.00  0.00    -0.273 OA
ATOM     12  O   UNL d   1      32.943  17.912 -22.146  0.00  0.00    -0.259 OA
ATOM     13  C   UNL d   1      33.082  19.508 -23.644  0.00  0.00     0.103 A 
ATOM     14  C   UNL d   1      32.915  19.089 -24.334  0.00  0.00     0.023 A 
ATOM     15  C   UNL d   1      33.240  20.318 -23.681  0.00  0.00     0.025 A 
ATOM     16  C   UNL d   1      32.756  18.271 -24.299  0.00  0.00     0.012 A 
ATOM     17  C   UNL d   1      32.906  19.478 -25.062  0.00  0.00     0.002 A 
ATOM     18  C   UNL d   1      33.063  20.285 -25.097  0.00  0.00     0.000 A 
ATOM     19  C   UNL d   1      33.230  20.704 -24.407  0.00  0.00     0.002 A 
ENDBRANCH   1   9
BRANCH   3  20
ATOM     20  C   UNL d   1      29.528  15.987 -23.970  0.00  0.00     0.064 A 
ATOM     21  C   UNL d   1      29.259  15.786 -24.725  0.00  0.00     0.018 A 
ATOM     22  C   UNL d   1      28.486  15.521 -24.833  0.00  0.00     0.002 A 
ATOM     23  C   UNL d   1      27.981  15.457 -24.184  0.00  0.00     0.000 A 
ATOM     24  C   UNL d   1      28.249  15.658 -23.427  0.00  0.00     0.002 A 
ATOM     25  C   UNL d   1      29.023  15.923 -23.324  0.00  0.00     0.018 A 
ENDBRANCH   3  20
TORSDOF 2
ENDMDL
