MODEL 1
REMARK VINA RESULT:      17.9      0.000      0.000
REMARK  2 active torsions:
REMARK  status: ('A' for Active; 'I' for Inactive)
REMARK    1  A    between atoms: N_2  and  S_1 
REMARK    2  A    between atoms: C_8  and  S_1 
ROOT
ATOM      1  N   UNL d   1     -51.226  24.508  33.387  0.00  0.00    -0.231 N 
ATOM      2  C   UNL d   1     -50.855  23.779  33.385  0.00  0.00     0.092 A 
ATOM      3  C   UNL d   1     -52.040  24.374  33.412  0.00  0.00     0.075 A 
ATOM      4  C   UNL d   1     -51.432  23.191  33.409  0.00  0.00     0.021 A 
ATOM      5  C   UNL d   1     -52.168  23.557  33.426  0.00  0.00     0.018 A 
ATOM      6  C   UNL d   1     -52.679  24.891  33.425  0.00  0.00     0.018 A 
ATOM      7  C   UNL d   1     -52.933  23.261  33.452  0.00  0.00     0.002 A 
ATOM      8  C   UNL d   1     -53.451  24.595  33.451  0.00  0.00     0.002 A 
ATOM      9  C   UNL d   1     -53.578  23.778  33.464  0.00  0.00     0.000 A 
ENDROOT
BRANCH   1  10
ATOM     10  S   UNL d   1     -50.855  25.244  33.368  0.00  0.00     0.271 S 
ATOM     11  O   UNL d   1     -50.118  24.870  33.430  0.00  0.00    -0.200 OA
ATOM     12  O   UNL d   1     -51.591  25.613  33.306  0.00  0.00    -0.200 OA
BRANCH  10  13
ATOM     13  C   UNL d   1     -50.486  25.985  33.348  0.00  0.00     0.104 A 
ATOM     14  C   UNL d   1     -50.934  26.672  33.327  0.00  0.00     0.013 A 
ATOM     15  C   UNL d   1     -50.569  27.402  33.307  0.00  0.00     0.001 A 
ATOM     16  C   UNL d   1     -49.743  27.452  33.309  0.00  0.00     0.000 A 
ATOM     17  C   UNL d   1     -49.289  26.769  33.329  0.00  0.00     0.001 A 
ATOM     18  C   UNL d   1     -49.660  26.031  33.349  0.00  0.00     0.013 A 
ENDBRANCH  10  13
ENDBRANCH   1  10
TORSDOF 2
ENDMDL
