MODEL 1
REMARK VINA RESULT:      -7.7      0.000      0.000
REMARK  4 active torsions:
REMARK  status: ('A' for Active; 'I' for Inactive)
REMARK    1  A    between atoms: C_6  and  C_1 
REMARK    2  A    between atoms: C_7  and  N_3 
REMARK    3  A    between atoms: C_9  and  C_6 
REMARK    4  A    between atoms: N_8  and  C_9 
ROOT
ATOM      1  C   UNL d   1     -47.235  12.222  23.316  0.00  0.00     0.058 A 
ATOM      2  C   UNL d   1     -47.503  12.930  22.986  0.00  0.00     0.067 A 
ATOM      3  N   UNL d   1     -48.330  12.921  22.958  0.00  0.00    -0.306 N 
ATOM      4  C   UNL d   1     -48.559  12.196  23.277  0.00  0.00     0.064 A 
ATOM      5  C   UNL d   1     -47.897  11.794  23.484  0.00  0.00     0.022 A 
ATOM      6  C   UNL d   1     -47.021  13.553  22.723  0.00  0.00     0.019 C 
ATOM      7  C   UNL d   1     -49.350  11.932  23.366  0.00  0.00     0.019 C 
ENDROOT
BRANCH   1   8
ATOM      8  C   UNL d   1     -46.441  12.002  23.447  0.00  0.00     0.214 C 
ATOM      9  O   UNL d   1     -45.877  12.560  23.653  0.00  0.00    -0.285 OA
BRANCH   8  10
ATOM     10  C   UNL d   1     -46.224  11.210  23.366  0.00  0.00     0.123 C 
BRANCH  10  11
ATOM     11  N   UNL d   1     -45.433  10.997  23.352  0.00  0.00    -0.300 N 
ATOM     12  C   UNL d   1     -44.904  11.482  22.982  0.00  0.00     0.080 A 
ATOM     13  C   UNL d   1     -44.094  11.276  22.961  0.00  0.00     0.019 A 
ATOM     14  C   UNL d   1     -43.874  10.573  23.328  0.00  0.00     0.003 A 
ATOM     15  C   UNL d   1     -44.403  10.089  23.697  0.00  0.00     0.019 A 
ATOM     16  C   UNL d   1     -45.203  10.327  23.698  0.00  0.00     0.080 A 
ENDBRANCH  10  11
ENDBRANCH   8  10
ENDBRANCH   1   8
BRANCH   3  17
ATOM     17  C   UNL d   1     -48.878  13.448  22.698  0.00  0.00     0.064 A 
ATOM     18  C   UNL d   1     -49.102  13.442  21.900  0.00  0.00     0.020 A 
ATOM     19  C   UNL d   1     -49.674  13.992  21.629  0.00  0.00     0.031 A 
ATOM     20  C   UNL d   1     -49.996  14.517  22.144  0.00  0.00     0.140 A 
ATOM     21  C   UNL d   1     -49.777  14.522  22.922  0.00  0.00     0.031 A 
ATOM     22  F   UNL d   1     -50.550  15.050  21.882  0.00  0.00    -0.204 F 
ATOM     23  C   UNL d   1     -49.207  13.983  23.220  0.00  0.00     0.020 A 
ENDBRANCH   3  17
TORSDOF 4
ENDMDL
MODEL 2
REMARK VINA RESULT:      -7.5      1.165      1.687
REMARK  4 active torsions:
REMARK  status: ('A' for Active; 'I' for Inactive)
REMARK    1  A    between atoms: C_6  and  C_1 
REMARK    2  A    between atoms: C_7  and  N_3 
REMARK    3  A    between atoms: C_9  and  C_6 
REMARK    4  A    between atoms: N_8  and  C_9 
ROOT
ATOM      1  C   UNL d   1     -47.097  13.366  22.901  0.00  0.00     0.058 A 
ATOM      2  C   UNL d   1     -47.542  14.056  22.808  0.00  0.00     0.067 A 
ATOM      3  N   UNL d   1     -48.342  13.881  22.924  0.00  0.00    -0.306 N 
ATOM      4  C   UNL d   1     -48.376  13.074  23.089  0.00  0.00     0.064 A 
ATOM      5  C   UNL d   1     -47.628  12.783  23.072  0.00  0.00     0.022 A 
ATOM      6  C   UNL d   1     -47.236  14.805  22.626  0.00  0.00     0.019 C 
ATOM      7  C   UNL d   1     -49.075  12.638  23.248  0.00  0.00     0.019 C 
ENDROOT
BRANCH   1   8
ATOM      8  C   UNL d   1     -46.269  13.293  22.831  0.00  0.00     0.214 C 
ATOM      9  O   UNL d   1     -45.771  13.575  23.417  0.00  0.00    -0.285 OA
BRANCH   8  10
ATOM     10  C   UNL d   1     -45.952  12.931  22.161  0.00  0.00     0.123 C 
BRANCH  10  11
ATOM     11  N   UNL d   1     -45.162  12.711  22.145  0.00  0.00    -0.300 N 
ATOM     12  C   UNL d   1     -44.924  12.075  22.580  0.00  0.00     0.080 A 
ATOM     13  C   UNL d   1     -44.122  11.840  22.573  0.00  0.00     0.019 A 
ATOM     14  C   UNL d   1     -43.605  12.283  22.110  0.00  0.00     0.003 A 
ATOM     15  C   UNL d   1     -43.843  12.919  21.675  0.00  0.00     0.019 A 
ATOM     16  C   UNL d   1     -44.651  13.123  21.708  0.00  0.00     0.080 A 
ENDBRANCH  10  11
ENDBRANCH   8  10
ENDBRANCH   1   8
BRANCH   3  17
ATOM     17  C   UNL d   1     -49.011  14.324  22.903  0.00  0.00     0.064 A 
ATOM     18  C   UNL d   1     -49.206  14.798  23.556  0.00  0.00     0.020 A 
ATOM     19  C   UNL d   1     -49.904  15.262  23.534  0.00  0.00     0.031 A 
ATOM     20  C   UNL d   1     -50.375  15.241  22.883  0.00  0.00     0.140 A 
ATOM     21  C   UNL d   1     -50.184  14.780  22.249  0.00  0.00     0.031 A 
ATOM     22  F   UNL d   1     -51.052  15.691  22.862  0.00  0.00    -0.204 F 
ATOM     23  C   UNL d   1     -49.491  14.306  22.243  0.00  0.00     0.020 A 
ENDBRANCH   3  17
TORSDOF 4
ENDMDL
MODEL 3
REMARK VINA RESULT:      -6.7      2.024      5.024
REMARK  4 active torsions:
REMARK  status: ('A' for Active; 'I' for Inactive)
REMARK    1  A    between atoms: C_6  and  C_1 
REMARK    2  A    between atoms: C_7  and  N_3 
REMARK    3  A    between atoms: C_9  and  C_6 
REMARK    4  A    between atoms: N_8  and  C_9 
ROOT
ATOM      1  C   UNL d   1     -47.888  13.375  22.711  0.00  0.00     0.058 A 
ATOM      2  C   UNL d   1     -47.616  12.611  22.872  0.00  0.00     0.067 A 
ATOM      3  N   UNL d   1     -46.792  12.625  22.940  0.00  0.00    -0.306 N 
ATOM      4  C   UNL d   1     -46.567  13.409  22.818  0.00  0.00     0.064 A 
ATOM      5  C   UNL d   1     -47.230  13.840  22.683  0.00  0.00     0.022 A 
ATOM      6  C   UNL d   1     -48.093  11.937  22.953  0.00  0.00     0.019 C 
ATOM      7  C   UNL d   1     -45.780  13.698  22.833  0.00  0.00     0.019 C 
ENDROOT
BRANCH   1   8
ATOM      8  C   UNL d   1     -48.681  13.609  22.601  0.00  0.00     0.214 C 
ATOM      9  O   UNL d   1     -49.026  13.591  21.858  0.00  0.00    -0.285 OA
BRANCH   8  10
ATOM     10  C   UNL d   1     -49.120  13.862  23.252  0.00  0.00     0.123 C 
BRANCH  10  11
ATOM     11  N   UNL d   1     -49.728  14.404  23.155  0.00  0.00    -0.300 N 
ATOM     12  C   UNL d   1     -49.593  15.179  23.332  0.00  0.00     0.080 A 
ATOM     13  C   UNL d   1     -50.203  15.741  23.237  0.00  0.00     0.019 A 
ATOM     14  C   UNL d   1     -50.929  15.467  22.962  0.00  0.00     0.003 A 
ATOM     15  C   UNL d   1     -51.064  14.692  22.785  0.00  0.00     0.019 A 
ATOM     16  C   UNL d   1     -50.430  14.159  22.892  0.00  0.00     0.080 A 
ENDBRANCH  10  11
ENDBRANCH   8  10
ENDBRANCH   1   8
BRANCH   3  17
ATOM     17  C   UNL d   1     -46.242  12.059  23.089  0.00  0.00     0.064 A 
ATOM     18  C   UNL d   1     -46.454  11.396  23.542  0.00  0.00     0.020 A 
ATOM     19  C   UNL d   1     -45.880  10.804  23.698  0.00  0.00     0.031 A 
ATOM     20  C   UNL d   1     -45.136  10.887  23.408  0.00  0.00     0.140 A 
ATOM     21  C   UNL d   1     -44.931  11.532  22.968  0.00  0.00     0.031 A 
ATOM     22  F   UNL d   1     -44.580  10.313  23.559  0.00  0.00    -0.204 F 
ATOM     23  C   UNL d   1     -45.484  12.139  22.796  0.00  0.00     0.020 A 
ENDBRANCH   3  17
TORSDOF 4
ENDMDL
MODEL 4
REMARK VINA RESULT:      -6.5      9.040     10.070
REMARK  4 active torsions:
REMARK  status: ('A' for Active; 'I' for Inactive)
REMARK    1  A    between atoms: C_6  and  C_1 
REMARK    2  A    between atoms: C_7  and  N_3 
REMARK    3  A    between atoms: C_9  and  C_6 
REMARK    4  A    between atoms: N_8  and  C_9 
ROOT
ATOM      1  C   UNL d   1     -39.314  15.010  19.401  0.00  0.00     0.058 A 
ATOM      2  C   UNL d   1     -38.766  14.813  18.816  0.00  0.00     0.067 A 
ATOM      3  N   UNL d   1     -39.170  14.588  18.130  0.00  0.00    -0.306 N 
ATOM      4  C   UNL d   1     -39.972  14.652  18.308  0.00  0.00     0.064 A 
ATOM      5  C   UNL d   1     -40.040  14.904  19.067  0.00  0.00     0.022 A 
ATOM      6  C   UNL d   1     -37.941  14.836  18.901  0.00  0.00     0.019 C 
ATOM      7  C   UNL d   1     -40.603  14.482  17.782  0.00  0.00     0.019 C 
ENDROOT
BRANCH   1   8
ATOM      8  C   UNL d   1     -39.145  15.266  20.177  0.00  0.00     0.214 C 
ATOM      9  O   UNL d   1     -38.576  15.838  20.317  0.00  0.00    -0.285 OA
BRANCH   8  10
ATOM     10  C   UNL d   1     -39.560  14.936  20.809  0.00  0.00     0.123 C 
BRANCH  10  11
ATOM     11  N   UNL d   1     -39.313  15.069  21.580  0.00  0.00    -0.300 N 
ATOM     12  C   UNL d   1     -39.493  15.771  21.934  0.00  0.00     0.080 A 
ATOM     13  C   UNL d   1     -39.247  15.918  22.718  0.00  0.00     0.019 A 
ATOM     14  C   UNL d   1     -38.823  15.323  23.098  0.00  0.00     0.003 A 
ATOM     15  C   UNL d   1     -38.644  14.621  22.744  0.00  0.00     0.019 A 
ATOM     16  C   UNL d   1     -38.906  14.510  21.960  0.00  0.00     0.080 A 
ENDBRANCH  10  11
ENDBRANCH   8  10
ENDBRANCH   1   8
BRANCH   3  17
ATOM     17  C   UNL d   1     -38.928  14.346  17.403  0.00  0.00     0.064 A 
ATOM     18  C   UNL d   1     -38.839  14.905  16.797  0.00  0.00     0.020 A 
ATOM     19  C   UNL d   1     -38.586  14.652  16.038  0.00  0.00     0.031 A 
ATOM     20  C   UNL d   1     -38.435  13.874  15.909  0.00  0.00     0.140 A 
ATOM     21  C   UNL d   1     -38.522  13.331  16.500  0.00  0.00     0.031 A 
ATOM     22  F   UNL d   1     -38.190  13.629  15.173  0.00  0.00    -0.204 F 
ATOM     23  C   UNL d   1     -38.773  13.556  17.269  0.00  0.00     0.020 A 
ENDBRANCH   3  17
TORSDOF 4
ENDMDL
