MODEL 1
REMARK VINA RESULT:      -2.4      0.000      0.000
REMARK  8 active torsions:
REMARK  status: ('A' for Active; 'I' for Inactive)
REMARK    1  A    between atoms: C_4  and  C_1 
REMARK    2  A    between atoms: C_2  and  C_15 
REMARK    3  A    between atoms: C_3  and  C_2 
REMARK    4  A    between atoms: C_16  and  C_4 
REMARK    5  A    between atoms: O_14  and  C_9 
REMARK    6  A    between atoms: S_13  and  C_16 
REMARK    7  A    between atoms: C_15  and  S_13 
REMARK    8  A    between atoms: C_17  and  O_14 
ROOT
ATOM      1  C   UNL d   1      32.329  17.962 -23.759  0.00  0.00     0.040 A 
ATOM      2  C   UNL d   1      31.768  18.040 -24.357  0.00  0.00     0.005 A 
ATOM      3  C   UNL d   1      32.418  17.235 -23.369  0.00  0.00     0.005 A 
ATOM      4  C   UNL d   1      31.383  16.673 -24.177  0.00  0.00     0.100 A 
ATOM      5  C   UNL d   1      31.293  17.400 -24.568  0.00  0.00     0.025 A 
ATOM      6  C   UNL d   1      31.945  16.595 -23.580  0.00  0.00     0.025 A 
ENDROOT
BRANCH   1   7
ATOM      7  C   UNL d   1      32.801  18.616 -23.556  0.00  0.00     0.202 C 
ATOM      8  O   UNL d   1      33.241  19.013 -24.127  0.00  0.00    -0.286 OA
BRANCH   7   9
ATOM      9  C   UNL d   1      32.827  18.873 -22.761  0.00  0.00     0.077 C 
BRANCH   9  10
ATOM     10  S   UNL d   1      33.061  19.664 -22.585  0.00  0.00    -0.082 SA
BRANCH  10  11
ATOM     11  C   UNL d   1      32.949  19.966 -21.828  0.00  0.00     0.042 C 
BRANCH  11  12
ATOM     12  C   UNL d   1      32.847  20.776 -21.720  0.00  0.00     0.077 C 
BRANCH  12  13
ATOM     13  C   UNL d   1      32.646  21.075 -20.977  0.00  0.00     0.211 C 
ATOM     14  O   UNL d   1      31.906  21.426 -20.866  0.00  0.00    -0.644 OA
ATOM     15  O   UNL d   1      33.178  21.024 -20.352  0.00  0.00    -0.644 OA
ENDBRANCH  12  13
ENDBRANCH  11  12
ENDBRANCH  10  11
ENDBRANCH   9  10
ENDBRANCH   7   9
ENDBRANCH   1   7
BRANCH   4  16
ATOM     16  O   UNL d   1      30.899  16.013 -24.390  0.00  0.00    -0.305 OA
BRANCH  16  17
ATOM     17  C   UNL d   1      30.080  16.101 -24.423  0.00  0.00     0.123 C 
ATOM     18  C   UNL d   1      29.604  15.452 -24.606  0.00  0.00     0.029 C 
ENDBRANCH  16  17
ENDBRANCH   4  16
TORSDOF 8
ENDMDL
MODEL 2
REMARK VINA RESULT:      -2.3      1.097      4.993
REMARK  8 active torsions:
REMARK  status: ('A' for Active; 'I' for Inactive)
REMARK    1  A    between atoms: C_4  and  C_1 
REMARK    2  A    between atoms: C_2  and  C_15 
REMARK    3  A    between atoms: C_3  and  C_2 
REMARK    4  A    between atoms: C_16  and  C_4 
REMARK    5  A    between atoms: O_14  and  C_9 
REMARK    6  A    between atoms: S_13  and  C_16 
REMARK    7  A    between atoms: C_15  and  S_13 
REMARK    8  A    between atoms: C_17  and  O_14 
ROOT
ATOM      1  C   UNL d   1      33.115  19.982 -22.487  0.00  0.00     0.040 A 
ATOM      2  C   UNL d   1      33.167  20.778 -22.690  0.00  0.00     0.005 A 
ATOM      3  C   UNL d   1      33.105  19.758 -21.688  0.00  0.00     0.005 A 
ATOM      4  C   UNL d   1      33.198  21.131 -21.303  0.00  0.00     0.100 A 
ATOM      5  C   UNL d   1      33.209  21.355 -22.102  0.00  0.00     0.025 A 
ATOM      6  C   UNL d   1      33.146  20.334 -21.101  0.00  0.00     0.025 A 
ENDROOT
BRANCH   1   7
ATOM      7  C   UNL d   1      33.074  19.411 -23.091  0.00  0.00     0.202 C 
ATOM      8  O   UNL d   1      33.241  19.609 -23.872  0.00  0.00    -0.286 OA
BRANCH   7   9
ATOM      9  C   UNL d   1      32.860  18.625 -22.900  0.00  0.00     0.077 C 
BRANCH   9  10
ATOM     10  S   UNL d   1      32.620  18.097 -23.512  0.00  0.00    -0.082 SA
BRANCH  10  11
ATOM     11  C   UNL d   1      32.395  17.327 -23.325  0.00  0.00     0.042 C 
BRANCH  11  12
ATOM     12  C   UNL d   1      32.168  16.810 -23.924  0.00  0.00     0.077 C 
BRANCH  12  13
ATOM     13  C   UNL d   1      31.706  16.148 -23.748  0.00  0.00     0.211 C 
ATOM     14  O   UNL d   1      30.893  16.169 -23.891  0.00  0.00    -0.644 OA
ATOM     15  O   UNL d   1      32.054  15.472 -23.433  0.00  0.00    -0.644 OA
ENDBRANCH  12  13
ENDBRANCH  11  12
ENDBRANCH  10  11
ENDBRANCH   9  10
ENDBRANCH   7   9
ENDBRANCH   1   7
BRANCH   4  16
ATOM     16  O   UNL d   1      33.241  21.718 -20.696  0.00  0.00    -0.305 OA
BRANCH  16  17
ATOM     17  C   UNL d   1      32.570  22.160 -20.507  0.00  0.00     0.123 C 
ATOM     18  C   UNL d   1      32.639  22.827 -20.027  0.00  0.00     0.029 C 
ENDBRANCH  16  17
ENDBRANCH   4  16
TORSDOF 8
ENDMDL
MODEL 3
REMARK VINA RESULT:      -2.1      2.410      4.429
REMARK  8 active torsions:
REMARK  status: ('A' for Active; 'I' for Inactive)
REMARK    1  A    between atoms: C_4  and  C_1 
REMARK    2  A    between atoms: C_2  and  C_15 
REMARK    3  A    between atoms: C_3  and  C_2 
REMARK    4  A    between atoms: C_16  and  C_4 
REMARK    5  A    between atoms: O_14  and  C_9 
REMARK    6  A    between atoms: S_13  and  C_16 
REMARK    7  A    between atoms: C_15  and  S_13 
REMARK    8  A    between atoms: C_17  and  O_14 
ROOT
ATOM      1  C   UNL d   1      32.807  21.441 -21.135  0.00  0.00     0.040 A 
ATOM      2  C   UNL d   1      32.894  20.739 -20.714  0.00  0.00     0.005 A 
ATOM      3  C   UNL d   1      32.864  21.435 -21.963  0.00  0.00     0.005 A 
ATOM      4  C   UNL d   1      33.094  20.025 -21.938  0.00  0.00     0.100 A 
ATOM      5  C   UNL d   1      33.037  20.030 -21.110  0.00  0.00     0.025 A 
ATOM      6  C   UNL d   1      33.007  20.728 -22.360  0.00  0.00     0.025 A 
ENDROOT
BRANCH   1   7
ATOM      7  C   UNL d   1      32.663  22.148 -20.721  0.00  0.00     0.202 C 
ATOM      8  O   UNL d   1      32.038  22.640 -20.932  0.00  0.00    -0.286 OA
BRANCH   7   9
ATOM      9  C   UNL d   1      33.160  22.360 -20.083  0.00  0.00     0.077 C 
BRANCH   9  10
ATOM     10  S   UNL d   1      32.880  22.897 -19.497  0.00  0.00    -0.082 SA
BRANCH  10  11
ATOM     11  C   UNL d   1      33.202  22.881 -18.739  0.00  0.00     0.042 C 
BRANCH  11  12
ATOM     12  C   UNL d   1      33.096  23.523 -18.235  0.00  0.00     0.077 C 
BRANCH  12  13
ATOM     13  C   UNL d   1      32.782  23.411 -17.479  0.00  0.00     0.211 C 
ATOM     14  O   UNL d   1      32.007  23.650 -17.320  0.00  0.00    -0.644 OA
ATOM     15  O   UNL d   1      33.238  23.063 -16.888  0.00  0.00    -0.644 OA
ENDBRANCH  12  13
ENDBRANCH  11  12
ENDBRANCH  10  11
ENDBRANCH   9  10
ENDBRANCH   7   9
ENDBRANCH   1   7
BRANCH   4  16
ATOM     16  O   UNL d   1      33.241  19.302 -22.351  0.00  0.00    -0.305 OA
BRANCH  16  17
ATOM     17  C   UNL d   1      32.609  18.878 -22.669  0.00  0.00     0.123 C 
ATOM     18  C   UNL d   1      32.753  18.259 -23.195  0.00  0.00     0.029 C 
ENDBRANCH  16  17
ENDBRANCH   4  16
TORSDOF 8
ENDMDL
MODEL 4
REMARK VINA RESULT:      -2.0      1.367      2.320
REMARK  8 active torsions:
REMARK  status: ('A' for Active; 'I' for Inactive)
REMARK    1  A    between atoms: C_4  and  C_1 
REMARK    2  A    between atoms: C_2  and  C_15 
REMARK    3  A    between atoms: C_3  and  C_2 
REMARK    4  A    between atoms: C_16  and  C_4 
REMARK    5  A    between atoms: O_14  and  C_9 
REMARK    6  A    between atoms: S_13  and  C_16 
REMARK    7  A    between atoms: C_15  and  S_13 
REMARK    8  A    between atoms: C_17  and  O_14 
ROOT
ATOM      1  C   UNL d   1      30.824  16.630 -24.316  0.00  0.00     0.040 A 
ATOM      2  C   UNL d   1      30.659  15.976 -23.844  0.00  0.00     0.005 A 
ATOM      3  C   UNL d   1      30.229  16.955 -24.795  0.00  0.00     0.005 A 
ATOM      4  C   UNL d   1      29.310  15.968 -24.323  0.00  0.00     0.100 A 
ATOM      5  C   UNL d   1      29.905  15.643 -23.844  0.00  0.00     0.025 A 
ATOM      6  C   UNL d   1      29.476  16.622 -24.796  0.00  0.00     0.025 A 
ENDROOT
BRANCH   1   7
ATOM      7  C   UNL d   1      31.589  16.956 -24.306  0.00  0.00     0.202 C 
ATOM      8  O   UNL d   1      32.238  16.519 -24.562  0.00  0.00    -0.286 OA
BRANCH   7   9
ATOM      9  C   UNL d   1      31.700  17.738 -24.031  0.00  0.00     0.077 C 
BRANCH   9  10
ATOM     10  S   UNL d   1      32.368  17.921 -23.551  0.00  0.00    -0.082 SA
BRANCH  10  11
ATOM     11  C   UNL d   1      32.511  18.701 -23.328  0.00  0.00     0.042 C 
BRANCH  11  12
ATOM     12  C   UNL d   1      33.153  18.877 -22.844  0.00  0.00     0.077 C 
BRANCH  12  13
ATOM     13  C   UNL d   1      33.183  19.598 -22.440  0.00  0.00     0.211 C 
ATOM     14  O   UNL d   1      33.239  20.303 -22.867  0.00  0.00    -0.644 OA
ATOM     15  O   UNL d   1      33.159  19.613 -21.617  0.00  0.00    -0.644 OA
ENDBRANCH  12  13
ENDBRANCH  11  12
ENDBRANCH  10  11
ENDBRANCH   9  10
ENDBRANCH   7   9
ENDBRANCH   1   7
BRANCH   4  16
ATOM     16  O   UNL d   1      28.535  15.631 -24.327  0.00  0.00    -0.305 OA
BRANCH  16  17
ATOM     17  C   UNL d   1      28.039  15.738 -23.677  0.00  0.00     0.123 C 
ATOM     18  C   UNL d   1      27.265  15.453 -23.699  0.00  0.00     0.029 C 
ENDBRANCH  16  17
ENDBRANCH   4  16
TORSDOF 8
ENDMDL
MODEL 5
REMARK VINA RESULT:      -1.3      1.956      4.729
REMARK  8 active torsions:
REMARK  status: ('A' for Active; 'I' for Inactive)
REMARK    1  A    between atoms: C_4  and  C_1 
REMARK    2  A    between atoms: C_2  and  C_15 
REMARK    3  A    between atoms: C_3  and  C_2 
REMARK    4  A    between atoms: C_16  and  C_4 
REMARK    5  A    between atoms: O_14  and  C_9 
REMARK    6  A    between atoms: S_13  and  C_16 
REMARK    7  A    between atoms: C_15  and  S_13 
REMARK    8  A    between atoms: C_17  and  O_14 
ROOT
ATOM      1  C   UNL d   1      31.779  16.839 -24.174  0.00  0.00     0.040 A 
ATOM      2  C   UNL d   1      31.787  17.548 -24.592  0.00  0.00     0.005 A 
ATOM      3  C   UNL d   1      32.236  16.759 -23.486  0.00  0.00     0.005 A 
ATOM      4  C   UNL d   1      32.704  18.101 -23.642  0.00  0.00     0.100 A 
ATOM      5  C   UNL d   1      32.246  18.180 -24.330  0.00  0.00     0.025 A 
ATOM      6  C   UNL d   1      32.696  17.391 -23.224  0.00  0.00     0.025 A 
ENDROOT
BRANCH   1   7
ATOM      7  C   UNL d   1      31.311  16.209 -24.450  0.00  0.00     0.202 C 
ATOM      8  O   UNL d   1      31.552  15.752 -25.090  0.00  0.00    -0.286 OA
BRANCH   7   9
ATOM      9  C   UNL d   1      30.584  16.040 -24.071  0.00  0.00     0.077 C 
BRANCH   9  10
ATOM     10  S   UNL d   1      29.951  15.702 -24.514  0.00  0.00    -0.082 SA
BRANCH  10  11
ATOM     11  C   UNL d   1      29.225  15.564 -24.151  0.00  0.00     0.042 C 
BRANCH  11  12
ATOM     12  C   UNL d   1      28.701  16.187 -24.034  0.00  0.00     0.077 C 
BRANCH  12  13
ATOM     13  C   UNL d   1      28.009  16.072 -23.597  0.00  0.00     0.211 C 
ATOM     14  O   UNL d   1      27.488  15.467 -23.810  0.00  0.00    -0.644 OA
ATOM     15  O   UNL d   1      27.840  16.557 -22.953  0.00  0.00    -0.644 OA
ENDBRANCH  12  13
ENDBRANCH  11  12
ENDBRANCH  10  11
ENDBRANCH   9  10
ENDBRANCH   7   9
ENDBRANCH   1   7
BRANCH   4  16
ATOM     16  O   UNL d   1      33.177  18.745 -23.369  0.00  0.00    -0.305 OA
BRANCH  16  17
ATOM     17  C   UNL d   1      32.924  19.194 -22.724  0.00  0.00     0.123 C 
ATOM     18  C   UNL d   1      33.240  19.945 -22.596  0.00  0.00     0.029 C 
ENDBRANCH  16  17
ENDBRANCH   4  16
TORSDOF 8
ENDMDL
