MODEL 1
REMARK VINA RESULT:       7.7      0.000      0.000
REMARK  3 active torsions:
REMARK  status: ('A' for Active; 'I' for Inactive)
REMARK    1  A    between atoms: C_6  and  N_1 
REMARK    2  A    between atoms: C_7  and  C_6 
REMARK    3  A    between atoms: C_8  and  C_7 
ROOT
ATOM      1  N   UNL d   1     -58.500 -98.762 -44.292  0.00  0.00    -0.211 N 
ATOM      2  N   UNL d   1     -59.820 -98.764 -44.071  0.00  0.00    -0.206 NA
ATOM      3  C   UNL d   1     -59.237 -98.766 -44.659  0.00  0.00     0.166 A 
ATOM      4  N   UNL d   1     -58.625 -98.757 -43.467  0.00  0.00    -0.144 NA
ATOM      5  C   UNL d   1     -59.446 -98.759 -43.330  0.00  0.00     0.184 A 
ATOM      6  C   UNL d   1     -59.380 -98.771 -45.470  0.00  0.00     0.042 C 
ATOM      7  C   UNL d   1     -59.813 -98.755 -42.594  0.00  0.00     0.044 C 
ENDROOT
BRANCH   1   8
ATOM      8  C   UNL d   1     -57.759 -98.762 -44.666  0.00  0.00     0.091 C 
ATOM      9  C   UNL d   1     -57.726 -98.755 -45.493  0.00  0.00     0.021 C 
BRANCH   8  10
ATOM     10  C   UNL d   1     -57.066 -98.770 -44.223  0.00  0.00     0.089 C 
BRANCH  10  11
ATOM     11  C   UNL d   1     -56.406 -99.186 -44.493  0.00  0.00     0.213 C 
ATOM     12  O   UNL d   1     -55.781 -98.784 -44.847  0.00  0.00    -0.644 OA
ATOM     13  O   UNL d   1     -56.373-100.008 -44.405  0.00  0.00    -0.644 OA
ENDBRANCH  10  11
ENDBRANCH   8  10
ENDBRANCH   1   8
TORSDOF 3
ENDMDL
