MODEL 1
REMARK VINA RESULT:      73.3      0.000      0.000
REMARK  4 active torsions:
REMARK  status: ('A' for Active; 'I' for Inactive)
REMARK    1  A    between atoms: C_7  and  C_1 
REMARK    2  A    between atoms: C_6  and  N_2 
REMARK    3  A    between atoms: C_8  and  C_6 
REMARK    4  A    between atoms: C_9  and  C_7 
ROOT
ATOM      1  C   UNL d   1     -57.201 -99.380 -44.680  0.00  0.00     0.148 A 
ATOM      2  N   UNL d   1     -57.818 -99.032 -44.327  0.00  0.00    -0.289 N 
ATOM      3  N   UNL d   1     -57.358 -99.606 -45.420  0.00  0.00    -0.227 NA
ATOM      4  C   UNL d   1     -58.462 -99.026 -44.899  0.00  0.00     0.083 A 
ATOM      5  C   UNL d   1     -58.183 -99.374 -45.561  0.00  0.00     0.099 A 
ATOM      6  C   UNL d   1     -59.229 -98.759 -44.896  0.00  0.00     0.019 A 
ATOM      7  C   UNL d   1     -58.653 -99.478 -46.265  0.00  0.00     0.021 A 
ATOM      8  C   UNL d   1     -59.727 -98.829 -45.535  0.00  0.00     0.002 A 
ATOM      9  C   UNL d   1     -59.448 -99.177 -46.197  0.00  0.00     0.002 A 
ENDROOT
BRANCH   2  10
ATOM     10  C   UNL d   1     -57.720 -98.784 -43.581  0.00  0.00     0.082 C 
BRANCH  10  11
ATOM     11  C   UNL d   1     -58.278 -98.894 -43.014  0.00  0.00     0.018 A 
ATOM     12  C   UNL d   1     -58.036 -99.124 -42.260  0.00  0.00     0.002 A 
ATOM     13  C   UNL d   1     -58.588 -99.250 -41.641  0.00  0.00     0.000 A 
ATOM     14  C   UNL d   1     -59.397 -99.131 -41.825  0.00  0.00     0.000 A 
ATOM     15  C   UNL d   1     -59.640 -98.901 -42.579  0.00  0.00     0.000 A 
ATOM     16  C   UNL d   1     -59.953 -99.257 -41.204  0.00  0.00     0.000 C 
ATOM     17  C   UNL d   1     -59.072 -98.790 -43.149  0.00  0.00     0.002 A 
ENDBRANCH  10  11
ENDBRANCH   2  10
BRANCH   1  18
ATOM     18  C   UNL d   1     -56.735 -99.296 -44.030  0.00  0.00     0.037 C 
BRANCH  18  19
ATOM     19  C   UNL d   1     -56.108 -99.820 -43.915  0.00  0.00     0.003 A 
ATOM     20  C   UNL d   1     -56.225-100.633 -44.015  0.00  0.00     0.000 A 
ATOM     21  C   UNL d   1     -55.599-101.158 -43.899  0.00  0.00     0.000 A 
ATOM     22  C   UNL d   1     -54.855-100.872 -43.684  0.00  0.00     0.000 A 
ATOM     23  C   UNL d   1     -54.716-100.052 -43.578  0.00  0.00     0.000 A 
ATOM     24  C   UNL d   1     -55.365 -99.535 -43.699  0.00  0.00     0.000 A 
ENDBRANCH  18  19
ENDBRANCH   1  18
TORSDOF 4
ENDMDL
MODEL 2
REMARK VINA RESULT:      75.8      0.798      3.660
REMARK  4 active torsions:
REMARK  status: ('A' for Active; 'I' for Inactive)
REMARK    1  A    between atoms: C_7  and  C_1 
REMARK    2  A    between atoms: C_6  and  N_2 
REMARK    3  A    between atoms: C_8  and  C_6 
REMARK    4  A    between atoms: C_9  and  C_7 
ROOT
ATOM      1  C   UNL d   1     -57.649 -99.696 -43.807  0.00  0.00     0.148 A 
ATOM      2  N   UNL d   1     -57.345 -99.320 -44.434  0.00  0.00    -0.289 N 
ATOM      3  N   UNL d   1     -57.162-100.243 -43.511  0.00  0.00    -0.227 NA
ATOM      4  C   UNL d   1     -56.564 -99.655 -44.572  0.00  0.00     0.083 A 
ATOM      5  C   UNL d   1     -56.453-100.214 -44.013  0.00  0.00     0.099 A 
ATOM      6  C   UNL d   1     -55.972 -99.525 -45.112  0.00  0.00     0.019 A 
ATOM      7  C   UNL d   1     -55.742-100.681 -43.957  0.00  0.00     0.021 A 
ATOM      8  C   UNL d   1     -55.271 -99.937 -45.111  0.00  0.00     0.002 A 
ATOM      9  C   UNL d   1     -55.160-100.496 -44.552  0.00  0.00     0.002 A 
ENDROOT
BRANCH   2  10
ATOM     10  C   UNL d   1     -57.790 -98.758 -44.773  0.00  0.00     0.082 C 
BRANCH  10  11
ATOM     11  C   UNL d   1     -58.315 -98.923 -45.359  0.00  0.00     0.018 A 
ATOM     12  C   UNL d   1     -58.094 -98.778 -46.140  0.00  0.00     0.002 A 
ATOM     13  C   UNL d   1     -58.613 -98.936 -46.780  0.00  0.00     0.000 A 
ATOM     14  C   UNL d   1     -59.368 -99.248 -46.587  0.00  0.00     0.000 A 
ATOM     15  C   UNL d   1     -59.589 -99.392 -45.806  0.00  0.00     0.000 A 
ATOM     16  C   UNL d   1     -59.891 -99.407 -47.228  0.00  0.00     0.000 C 
ATOM     17  C   UNL d   1     -59.055 -99.224 -45.217  0.00  0.00     0.002 A 
ENDBRANCH  10  11
ENDBRANCH   2  10
BRANCH   1  18
ATOM     18  C   UNL d   1     -58.331 -99.271 -43.836  0.00  0.00     0.037 C 
BRANCH  18  19
ATOM     19  C   UNL d   1     -58.727 -99.099 -43.132  0.00  0.00     0.003 A 
ATOM     20  C   UNL d   1     -59.553 -99.063 -43.121  0.00  0.00     0.000 A 
ATOM     21  C   UNL d   1     -59.949 -98.892 -42.417  0.00  0.00     0.000 A 
ATOM     22  C   UNL d   1     -59.521 -98.757 -41.724  0.00  0.00     0.000 A 
ATOM     23  C   UNL d   1     -58.684 -98.789 -41.715  0.00  0.00     0.000 A 
ATOM     24  C   UNL d   1     -58.299 -98.965 -42.440  0.00  0.00     0.000 A 
ENDBRANCH  18  19
ENDBRANCH   1  18
TORSDOF 4
ENDMDL
