MODEL 1
REMARK VINA RESULT:      -7.7      0.000      0.000
REMARK  4 active torsions:
REMARK  status: ('A' for Active; 'I' for Inactive)
REMARK    1  A    between atoms: C_6  and  C_1 
REMARK    2  A    between atoms: C_9  and  N_3 
REMARK    3  A    between atoms: C_17  and  C_9 
REMARK    4  A    between atoms: O_15  and  C_10 
ROOT
ATOM      1  C   UNL d   1     -48.436  14.105  22.948  0.00  0.00     0.148 A 
ATOM      2  N   UNL d   1     -48.702  14.913  22.886  0.00  0.00    -0.227 NA
ATOM      3  N   UNL d   1     -49.081  13.658  23.219  0.00  0.00    -0.289 N 
ATOM      4  C   UNL d   1     -49.719  14.145  23.325  0.00  0.00     0.083 A 
ATOM      5  C   UNL d   1     -49.480  14.938  23.115  0.00  0.00     0.099 A 
ATOM      6  C   UNL d   1     -50.492  14.005  23.581  0.00  0.00     0.019 A 
ATOM      7  C   UNL d   1     -50.058  15.546  23.182  0.00  0.00     0.021 A 
ATOM      8  C   UNL d   1     -51.012  14.617  23.630  0.00  0.00     0.002 A 
ATOM      9  C   UNL d   1     -50.781  15.382  23.427  0.00  0.00     0.002 A 
ENDROOT
BRANCH   1  10
ATOM     10  C   UNL d   1     -47.668  13.849  22.763  0.00  0.00     0.035 A 
ATOM     11  C   UNL d   1     -47.495  13.535  22.031  0.00  0.00     0.005 A 
ATOM     12  C   UNL d   1     -46.735  13.274  21.824  0.00  0.00     0.024 A 
ATOM     13  C   UNL d   1     -46.148  13.326  22.348  0.00  0.00     0.094 A 
ATOM     14  C   UNL d   1     -46.312  13.650  23.110  0.00  0.00     0.024 A 
ATOM     15  C   UNL d   1     -47.072  13.911  23.318  0.00  0.00     0.005 A 
BRANCH  13  16
ATOM     16  O   UNL d   1     -45.350  13.206  22.545  0.00  0.00    -0.328 OA
ATOM     17  C   UNL d   1     -44.808  12.976  21.960  0.00  0.00     0.181 C 
ENDBRANCH  13  16
ENDBRANCH   1  10
BRANCH   3  18
ATOM     18  C   UNL d   1     -48.917  12.888  23.305  0.00  0.00     0.082 C 
BRANCH  18  19
ATOM     19  C   UNL d   1     -49.474  12.353  23.571  0.00  0.00     0.019 C 
ATOM     20  C   UNL d   1     -49.312  11.555  23.688  0.00  0.00     0.002 C 
ENDBRANCH  18  19
ENDBRANCH   3  18
TORSDOF 4
ENDMDL
MODEL 2
REMARK VINA RESULT:      -7.6      0.795      1.961
REMARK  4 active torsions:
REMARK  status: ('A' for Active; 'I' for Inactive)
REMARK    1  A    between atoms: C_6  and  C_1 
REMARK    2  A    between atoms: C_9  and  N_3 
REMARK    3  A    between atoms: C_17  and  C_9 
REMARK    4  A    between atoms: O_15  and  C_10 
ROOT
ATOM      1  C   UNL d   1     -48.434  12.841  22.993  0.00  0.00     0.148 A 
ATOM      2  N   UNL d   1     -48.761  12.070  23.158  0.00  0.00    -0.227 NA
ATOM      3  N   UNL d   1     -49.051  13.390  23.084  0.00  0.00    -0.289 N 
ATOM      4  C   UNL d   1     -49.728  12.999  23.294  0.00  0.00     0.083 A 
ATOM      5  C   UNL d   1     -49.545  12.166  23.341  0.00  0.00     0.099 A 
ATOM      6  C   UNL d   1     -50.496  13.260  23.455  0.00  0.00     0.019 A 
ATOM      7  C   UNL d   1     -50.171  11.645  23.552  0.00  0.00     0.021 A 
ATOM      8  C   UNL d   1     -51.064  12.726  23.653  0.00  0.00     0.002 A 
ATOM      9  C   UNL d   1     -50.887  11.921  23.698  0.00  0.00     0.002 A 
ENDROOT
BRANCH   1  10
ATOM     10  C   UNL d   1     -47.643  12.979  22.783  0.00  0.00     0.035 A 
ATOM     11  C   UNL d   1     -47.411  12.986  22.002  0.00  0.00     0.005 A 
ATOM     12  C   UNL d   1     -46.626  13.122  21.769  0.00  0.00     0.024 A 
ATOM     13  C   UNL d   1     -46.073  13.249  22.317  0.00  0.00     0.094 A 
ATOM     14  C   UNL d   1     -46.298  13.244  23.130  0.00  0.00     0.024 A 
ATOM     15  C   UNL d   1     -47.083  13.109  23.363  0.00  0.00     0.005 A 
BRANCH  13  16
ATOM     16  O   UNL d   1     -45.281  13.405  22.513  0.00  0.00    -0.328 OA
ATOM     17  C   UNL d   1     -44.673  13.180  21.995  0.00  0.00     0.181 C 
ENDBRANCH  13  16
ENDBRANCH   1  10
BRANCH   3  18
ATOM     18  C   UNL d   1     -48.829  14.138  22.948  0.00  0.00     0.082 C 
BRANCH  18  19
ATOM     19  C   UNL d   1     -49.338  14.768  23.058  0.00  0.00     0.019 C 
ATOM     20  C   UNL d   1     -49.142  15.543  22.868  0.00  0.00     0.002 C 
ENDBRANCH  18  19
ENDBRANCH   3  18
TORSDOF 4
ENDMDL
MODEL 3
REMARK VINA RESULT:      -7.2      1.038      1.123
REMARK  4 active torsions:
REMARK  status: ('A' for Active; 'I' for Inactive)
REMARK    1  A    between atoms: C_6  and  C_1 
REMARK    2  A    between atoms: C_9  and  N_3 
REMARK    3  A    between atoms: C_17  and  C_9 
REMARK    4  A    between atoms: O_15  and  C_10 
ROOT
ATOM      1  C   UNL d   1     -48.269  13.968  22.896  0.00  0.00     0.148 A 
ATOM      2  N   UNL d   1     -48.434  14.694  23.313  0.00  0.00    -0.227 NA
ATOM      3  N   UNL d   1     -48.958  13.766  22.479  0.00  0.00    -0.289 N 
ATOM      4  C   UNL d   1     -49.528  14.324  22.618  0.00  0.00     0.083 A 
ATOM      5  C   UNL d   1     -49.197  14.910  23.144  0.00  0.00     0.099 A 
ATOM      6  C   UNL d   1     -50.307  14.405  22.352  0.00  0.00     0.019 A 
ATOM      7  C   UNL d   1     -49.694  15.552  23.368  0.00  0.00     0.021 A 
ATOM      8  C   UNL d   1     -50.746  15.035  22.592  0.00  0.00     0.002 A 
ATOM      9  C   UNL d   1     -50.426  15.601  23.101  0.00  0.00     0.002 A 
ENDROOT
BRANCH   1  10
ATOM     10  C   UNL d   1     -47.543  13.566  22.926  0.00  0.00     0.035 A 
ATOM     11  C   UNL d   1     -46.928  13.773  22.432  0.00  0.00     0.005 A 
ATOM     12  C   UNL d   1     -46.194  13.385  22.445  0.00  0.00     0.024 A 
ATOM     13  C   UNL d   1     -46.075  12.791  22.951  0.00  0.00     0.094 A 
ATOM     14  C   UNL d   1     -46.702  12.566  23.468  0.00  0.00     0.024 A 
ATOM     15  C   UNL d   1     -47.436  12.954  23.456  0.00  0.00     0.005 A 
BRANCH  13  16
ATOM     16  O   UNL d   1     -45.576  12.207  23.264  0.00  0.00    -0.328 OA
ATOM     17  C   UNL d   1     -44.922  11.941  22.826  0.00  0.00     0.181 C 
ENDBRANCH  13  16
ENDBRANCH   1  10
BRANCH   3  18
ATOM     18  C   UNL d   1     -48.889  13.097  22.061  0.00  0.00     0.082 C 
BRANCH  18  19
ATOM     19  C   UNL d   1     -49.492  12.819  21.585  0.00  0.00     0.019 C 
ATOM     20  C   UNL d   1     -49.464  12.091  21.203  0.00  0.00     0.002 C 
ENDBRANCH  18  19
ENDBRANCH   3  18
TORSDOF 4
ENDMDL
MODEL 4
REMARK VINA RESULT:      -6.5      1.592      3.786
REMARK  4 active torsions:
REMARK  status: ('A' for Active; 'I' for Inactive)
REMARK    1  A    between atoms: C_6  and  C_1 
REMARK    2  A    between atoms: C_9  and  N_3 
REMARK    3  A    between atoms: C_17  and  C_9 
REMARK    4  A    between atoms: O_15  and  C_10 
ROOT
ATOM      1  C   UNL d   1     -47.576  13.696  22.650  0.00  0.00     0.148 A 
ATOM      2  N   UNL d   1     -46.819  13.973  22.368  0.00  0.00    -0.227 NA
ATOM      3  N   UNL d   1     -47.457  12.933  22.953  0.00  0.00    -0.289 N 
ATOM      4  C   UNL d   1     -46.678  12.730  22.872  0.00  0.00     0.083 A 
ATOM      5  C   UNL d   1     -46.275  13.386  22.503  0.00  0.00     0.099 A 
ATOM      6  C   UNL d   1     -46.254  12.050  23.073  0.00  0.00     0.019 A 
ATOM      7  C   UNL d   1     -45.450  13.303  22.361  0.00  0.00     0.021 A 
ATOM      8  C   UNL d   1     -45.465  12.013  22.919  0.00  0.00     0.002 A 
ATOM      9  C   UNL d   1     -45.076  12.647  22.563  0.00  0.00     0.002 A 
ENDROOT
BRANCH   1  10
ATOM     10  C   UNL d   1     -48.279  14.137  22.611  0.00  0.00     0.035 A 
ATOM     11  C   UNL d   1     -48.538  14.570  23.251  0.00  0.00     0.005 A 
ATOM     12  C   UNL d   1     -49.237  15.018  23.236  0.00  0.00     0.024 A 
ATOM     13  C   UNL d   1     -49.676  15.032  22.580  0.00  0.00     0.094 A 
ATOM     14  C   UNL d   1     -49.420  14.589  21.909  0.00  0.00     0.024 A 
ATOM     15  C   UNL d   1     -48.722  14.141  21.925  0.00  0.00     0.005 A 
BRANCH  13  16
ATOM     16  O   UNL d   1     -50.349  15.302  22.175  0.00  0.00    -0.328 OA
ATOM     17  C   UNL d   1     -51.064  15.408  22.582  0.00  0.00     0.181 C 
ENDBRANCH  13  16
ENDBRANCH   1  10
BRANCH   3  18
ATOM     18  C   UNL d   1     -48.118  12.601  23.238  0.00  0.00     0.082 C 
BRANCH  18  19
ATOM     19  C   UNL d   1     -48.217  11.790  23.270  0.00  0.00     0.019 C 
ATOM     20  C   UNL d   1     -48.818  11.427  23.698  0.00  0.00     0.002 C 
ENDBRANCH  18  19
ENDBRANCH   3  18
TORSDOF 4
ENDMDL
MODEL 5
REMARK VINA RESULT:      -6.4      2.070      4.102
REMARK  4 active torsions:
REMARK  status: ('A' for Active; 'I' for Inactive)
REMARK    1  A    between atoms: C_6  and  C_1 
REMARK    2  A    between atoms: C_9  and  N_3 
REMARK    3  A    between atoms: C_17  and  C_9 
REMARK    4  A    between atoms: O_15  and  C_10 
ROOT
ATOM      1  C   UNL d   1     -48.232  12.461  22.810  0.00  0.00     0.148 A 
ATOM      2  N   UNL d   1     -48.209  11.634  23.017  0.00  0.00    -0.227 NA
ATOM      3  N   UNL d   1     -47.467  12.762  22.927  0.00  0.00    -0.289 N 
ATOM      4  C   UNL d   1     -46.983  12.168  23.191  0.00  0.00     0.083 A 
ATOM      5  C   UNL d   1     -47.451  11.456  23.248  0.00  0.00     0.099 A 
ATOM      6  C   UNL d   1     -46.182  12.150  23.394  0.00  0.00     0.019 A 
ATOM      7  C   UNL d   1     -47.062  10.759  23.513  0.00  0.00     0.021 A 
ATOM      8  C   UNL d   1     -45.851  11.460  23.643  0.00  0.00     0.002 A 
ATOM      9  C   UNL d   1     -46.303  10.772  23.698  0.00  0.00     0.002 A 
ENDROOT
BRANCH   1  10
ATOM     10  C   UNL d   1     -48.912  12.858  22.546  0.00  0.00     0.035 A 
ATOM     11  C   UNL d   1     -49.119  12.856  21.757  0.00  0.00     0.005 A 
ATOM     12  C   UNL d   1     -49.794  13.246  21.471  0.00  0.00     0.024 A 
ATOM     13  C   UNL d   1     -50.261  13.638  21.972  0.00  0.00     0.094 A 
ATOM     14  C   UNL d   1     -50.059  13.649  22.791  0.00  0.00     0.024 A 
ATOM     15  C   UNL d   1     -49.384  13.259  23.078  0.00  0.00     0.005 A 
BRANCH  13  16
ATOM     16  O   UNL d   1     -50.935  14.101  22.108  0.00  0.00    -0.328 OA
ATOM     17  C   UNL d   1     -51.064  14.789  21.661  0.00  0.00     0.181 C 
ENDBRANCH  13  16
ENDBRANCH   1  10
BRANCH   3  18
ATOM     18  C   UNL d   1     -47.402  13.533  22.756  0.00  0.00     0.082 C 
BRANCH  18  19
ATOM     19  C   UNL d   1     -46.677  13.907  22.713  0.00  0.00     0.019 C 
ATOM     20  C   UNL d   1     -46.595  14.715  22.580  0.00  0.00     0.002 C 
ENDBRANCH  18  19
ENDBRANCH   3  18
TORSDOF 4
ENDMDL
MODEL 6
REMARK VINA RESULT:      -6.1      1.851      4.023
REMARK  4 active torsions:
REMARK  status: ('A' for Active; 'I' for Inactive)
REMARK    1  A    between atoms: C_6  and  C_1 
REMARK    2  A    between atoms: C_9  and  N_3 
REMARK    3  A    between atoms: C_17  and  C_9 
REMARK    4  A    between atoms: O_15  and  C_10 
ROOT
ATOM      1  C   UNL d   1     -47.520  12.658  22.717  0.00  0.00     0.148 A 
ATOM      2  N   UNL d   1     -46.806  12.207  22.599  0.00  0.00    -0.227 NA
ATOM      3  N   UNL d   1     -47.309  13.460  22.680  0.00  0.00    -0.289 N 
ATOM      4  C   UNL d   1     -46.512  13.521  22.547  0.00  0.00     0.083 A 
ATOM      5  C   UNL d   1     -46.195  12.730  22.496  0.00  0.00     0.099 A 
ATOM      6  C   UNL d   1     -46.009  14.172  22.462  0.00  0.00     0.019 A 
ATOM      7  C   UNL d   1     -45.368  12.654  22.358  0.00  0.00     0.021 A 
ATOM      8  C   UNL d   1     -45.224  14.052  22.331  0.00  0.00     0.002 A 
ATOM      9  C   UNL d   1     -44.917  13.288  22.282  0.00  0.00     0.002 A 
ENDROOT
BRANCH   1  10
ATOM     10  C   UNL d   1     -48.270  12.324  22.842  0.00  0.00     0.035 A 
ATOM     11  C   UNL d   1     -48.788  12.209  22.224  0.00  0.00     0.005 A 
ATOM     12  C   UNL d   1     -49.541  11.876  22.326  0.00  0.00     0.024 A 
ATOM     13  C   UNL d   1     -49.777  11.659  23.046  0.00  0.00     0.094 A 
ATOM     14  C   UNL d   1     -49.252  11.771  23.697  0.00  0.00     0.024 A 
ATOM     15  C   UNL d   1     -48.498  12.104  23.595  0.00  0.00     0.005 A 
BRANCH  13  16
ATOM     16  O   UNL d   1     -50.358  11.333  23.542  0.00  0.00    -0.328 OA
ATOM     17  C   UNL d   1     -51.056  11.756  23.696  0.00  0.00     0.181 C 
ENDBRANCH  13  16
ENDBRANCH   1  10
BRANCH   3  18
ATOM     18  C   UNL d   1     -47.921  13.953  22.781  0.00  0.00     0.082 C 
BRANCH  18  19
ATOM     19  C   UNL d   1     -47.848  14.761  22.684  0.00  0.00     0.019 C 
ATOM     20  C   UNL d   1     -48.493  15.270  22.648  0.00  0.00     0.002 C 
ENDBRANCH  18  19
ENDBRANCH   3  18
TORSDOF 4
ENDMDL
MODEL 7
REMARK VINA RESULT:      -5.5      8.785      9.706
REMARK  4 active torsions:
REMARK  status: ('A' for Active; 'I' for Inactive)
REMARK    1  A    between atoms: C_6  and  C_1 
REMARK    2  A    between atoms: C_9  and  N_3 
REMARK    3  A    between atoms: C_17  and  C_9 
REMARK    4  A    between atoms: O_15  and  C_10 
ROOT
ATOM      1  C   UNL d   1     -40.087  14.907  19.190  0.00  0.00     0.148 A 
ATOM      2  N   UNL d   1     -40.665  15.500  18.984  0.00  0.00    -0.227 NA
ATOM      3  N   UNL d   1     -39.845  14.549  18.481  0.00  0.00    -0.289 N 
ATOM      4  C   UNL d   1     -40.239  14.888  17.861  0.00  0.00     0.083 A 
ATOM      5  C   UNL d   1     -40.757  15.489  18.178  0.00  0.00     0.099 A 
ATOM      6  C   UNL d   1     -40.219  14.754  17.045  0.00  0.00     0.019 A 
ATOM      7  C   UNL d   1     -41.228  15.921  17.631  0.00  0.00     0.021 A 
ATOM      8  C   UNL d   1     -40.687  15.191  16.558  0.00  0.00     0.002 A 
ATOM      9  C   UNL d   1     -41.187  15.771  16.865  0.00  0.00     0.002 A 
ENDROOT
BRANCH   1  10
ATOM     10  C   UNL d   1     -39.837  14.746  19.965  0.00  0.00     0.035 A 
ATOM     11  C   UNL d   1     -39.169  15.096  20.273  0.00  0.00     0.005 A 
ATOM     12  C   UNL d   1     -38.901  14.950  21.045  0.00  0.00     0.024 A 
ATOM     13  C   UNL d   1     -39.302  14.453  21.509  0.00  0.00     0.094 A 
ATOM     14  C   UNL d   1     -39.997  14.083  21.204  0.00  0.00     0.024 A 
ATOM     15  C   UNL d   1     -40.264  14.229  20.432  0.00  0.00     0.005 A 
BRANCH  13  16
ATOM     16  O   UNL d   1     -39.389  14.067  22.239  0.00  0.00    -0.328 OA
ATOM     17  C   UNL d   1     -38.819  14.171  22.834  0.00  0.00     0.181 C 
ENDBRANCH  13  16
ENDBRANCH   1  10
BRANCH   3  18
ATOM     18  C   UNL d   1     -39.303  13.980  18.584  0.00  0.00     0.082 C 
BRANCH  18  19
ATOM     19  C   UNL d   1     -39.055  13.501  17.971  0.00  0.00     0.019 C 
ATOM     20  C   UNL d   1     -38.463  12.935  18.052  0.00  0.00     0.002 C 
ENDBRANCH  18  19
ENDBRANCH   3  18
TORSDOF 4
ENDMDL
MODEL 8
REMARK VINA RESULT:      -5.0      7.792     10.419
REMARK  4 active torsions:
REMARK  status: ('A' for Active; 'I' for Inactive)
REMARK    1  A    between atoms: C_6  and  C_1 
REMARK    2  A    between atoms: C_9  and  N_3 
REMARK    3  A    between atoms: C_17  and  C_9 
REMARK    4  A    between atoms: O_15  and  C_10 
ROOT
ATOM      1  C   UNL d   1     -39.505  14.513  18.558  0.00  0.00     0.148 A 
ATOM      2  N   UNL d   1     -38.836  13.984  18.573  0.00  0.00    -0.227 NA
ATOM      3  N   UNL d   1     -39.693  14.644  17.760  0.00  0.00    -0.289 N 
ATOM      4  C   UNL d   1     -39.180  14.227  17.293  0.00  0.00     0.083 A 
ATOM      5  C   UNL d   1     -38.639  13.811  17.806  0.00  0.00     0.099 A 
ATOM      6  C   UNL d   1     -39.107  14.151  16.472  0.00  0.00     0.019 A 
ATOM      7  C   UNL d   1     -38.048  13.335  17.440  0.00  0.00     0.021 A 
ATOM      8  C   UNL d   1     -38.527  13.686  16.166  0.00  0.00     0.002 A 
ATOM      9  C   UNL d   1     -38.005  13.283  16.662  0.00  0.00     0.002 A 
ENDROOT
BRANCH   1  10
ATOM     10  C   UNL d   1     -39.874  14.820  19.236  0.00  0.00     0.035 A 
ATOM     11  C   UNL d   1     -39.630  15.526  19.564  0.00  0.00     0.005 A 
ATOM     12  C   UNL d   1     -39.983  15.851  20.241  0.00  0.00     0.024 A 
ATOM     13  C   UNL d   1     -40.581  15.472  20.589  0.00  0.00     0.094 A 
ATOM     14  C   UNL d   1     -40.845  14.740  20.262  0.00  0.00     0.024 A 
ATOM     15  C   UNL d   1     -40.491  14.415  19.585  0.00  0.00     0.005 A 
BRANCH  13  16
ATOM     16  O   UNL d   1     -41.148  15.432  21.194  0.00  0.00    -0.328 OA
ATOM     17  C   UNL d   1     -41.818  15.922  21.168  0.00  0.00     0.181 C 
ENDBRANCH  13  16
ENDBRANCH   1  10
BRANCH   3  18
ATOM     18  C   UNL d   1     -40.310  15.130  17.657  0.00  0.00     0.082 C 
BRANCH  18  19
ATOM     19  C   UNL d   1     -40.618  15.288  16.917  0.00  0.00     0.019 C 
ATOM     20  C   UNL d   1     -41.184  15.869  16.780  0.00  0.00     0.002 C 
ENDBRANCH  18  19
ENDBRANCH   3  18
TORSDOF 4
ENDMDL
