MODEL 1
REMARK VINA RESULT:      -2.7      0.000      0.000
REMARK  1 active torsions:
REMARK  status: ('A' for Active; 'I' for Inactive)
REMARK       I    between atoms: N_3  and  C_1 
REMARK       I    between atoms: N_5  and  C_1 
REMARK       I    between atoms: C_2  and  N_4 
REMARK    1  A    between atoms: C_6  and  C_2 
ROOT
ATOM      1  C   UNL d   1     -41.534-123.107 -53.846  0.00  0.00     0.340 C 
ATOM      2  C   UNL d   1     -42.271-122.308 -50.728  0.00  0.00     0.265 C 
ATOM      3  N   UNL d   1     -41.809-122.952 -53.083  0.00  0.00    -0.254 N 
ATOM      4  N   UNL d   1     -42.092-122.524 -51.522  0.00  0.00    -0.269 N 
ATOM      5  N   UNL d   1     -41.658-122.561 -54.452  0.00  0.00    -0.253 N 
ATOM      6  O   UNL d   1     -41.133-123.817 -53.999  0.00  0.00    -0.245 OA
ATOM      7  C   UNL d   1     -41.661-123.485 -52.470  0.00  0.00     0.104 A 
ATOM      8  C   UNL d   1     -42.122-122.202 -52.906  0.00  0.00     0.104 A 
ATOM      9  C   UNL d   1     -41.795-123.267 -51.670  0.00  0.00     0.102 A 
ATOM     10  C   UNL d   1     -42.269-121.985 -52.124  0.00  0.00     0.102 A 
ATOM     11  O   UNL d   1     -42.581-121.559 -50.558  0.00  0.00    -0.267 OA
ATOM     12  O   UNL d   1     -41.647-121.347 -55.597  0.00  0.00    -0.300 OA
ATOM     13  C   UNL d   1     -41.803-121.729 -54.226  0.00  0.00     0.111 C 
ATOM     14  C   UNL d   1     -41.127-122.595 -55.143  0.00  0.00     0.111 C 
ATOM     15  C   UNL d   1     -41.248-122.052 -55.749  0.00  0.00     0.142 C 
ATOM     16  C   UNL d   1     -41.925-121.183 -54.837  0.00  0.00     0.142 C 
ENDROOT
BRANCH   2  17
ATOM     17  C   UNL d   1     -42.116-122.838 -50.113  0.00  0.00     0.057 C 
ATOM     18  C   UNL d   1     -42.726-123.010 -49.568  0.00  0.00     0.011 C 
ATOM     19  C   UNL d   1     -42.572-123.515 -48.924  0.00  0.00     0.035 C 
ATOM     20 BR   UNL d   1     -43.205-123.808 -48.471  0.00  0.00    -0.049 Br
ATOM     21  C   UNL d   1     -41.794-123.721 -48.739  0.00  0.00     0.007 C 
ATOM     22  C   UNL d   1     -41.168-123.424 -49.196  0.00  0.00     0.001 C 
ATOM     23  C   UNL d   1     -41.323-122.921 -49.837  0.00  0.00     0.005 C 
ENDBRANCH   2  17
TORSDOF 1
ENDMDL
