MODEL 1
REMARK VINA RESULT:      -0.6      0.000      0.000
REMARK  4 active torsions:
REMARK  status: ('A' for Active; 'I' for Inactive)
REMARK    1  A    between atoms: C_2  and  C_1 
REMARK    2  A    between atoms: C_4  and  C_2 
REMARK    3  A    between atoms: N_6  and  C_2 
REMARK    4  A    between atoms: C_8  and  N_6 
ROOT
ATOM      1  C   UNL d   1      58.876  -0.960  29.732  0.00  0.00     0.088 C 
ENDROOT
BRANCH   1   2
ATOM      2  C   UNL d   1      58.332  -0.837  30.352  0.00  0.00     0.058 A 
ATOM      3  C   UNL d   1      57.796  -0.196  30.313  0.00  0.00     0.214 A 
ATOM      4  C   UNL d   1      57.259  -0.078  30.930  0.00  0.00     0.120 A 
ATOM      5  O   UNL d   1      57.806   0.317  29.657  0.00  0.00    -0.285 OA
ATOM      6  N   UNL d   1      56.738   0.553  30.883  0.00  0.00    -0.241 NA
ATOM      7  C   UNL d   1      57.249  -0.586  31.579  0.00  0.00     0.021 A 
ATOM      8  C   UNL d   1      56.191   0.678  31.505  0.00  0.00     0.099 A 
ATOM      9  C   UNL d   1      56.181   0.169  32.154  0.00  0.00     0.021 A 
ATOM     10  C   UNL d   1      56.718  -0.472  32.192  0.00  0.00     0.003 A 
ATOM     11  C   UNL d   1      57.776  -1.221  31.622  0.00  0.00     0.002 A 
ATOM     12  C   UNL d   1      58.322  -1.346  31.001  0.00  0.00     0.005 A 
ENDBRANCH   1   2
BRANCH   1  13
ATOM     13  C   UNL d   1      59.022  -1.736  29.455  0.00  0.00     0.045 A 
ATOM     14  C   UNL d   1      58.531  -2.056  28.874  0.00  0.00     0.141 A 
ATOM     15  F   UNL d   1      57.885  -1.809  28.456  0.00  0.00    -0.204 F 
ATOM     16  C   UNL d   1      58.673  -2.825  28.598  0.00  0.00     0.030 A 
ATOM     17  C   UNL d   1      59.305  -3.256  28.910  0.00  0.00     0.002 A 
ATOM     18  C   UNL d   1      59.796  -2.936  29.491  0.00  0.00     0.000 A 
ATOM     19  C   UNL d   1      59.650  -2.160  29.767  0.00  0.00     0.004 A 
ENDBRANCH   1  13
BRANCH   1  20
ATOM     20  N   UNL d   1      59.272  -0.313  29.388  0.00  0.00    -0.227 NA
BRANCH  20  21
ATOM     21  C   UNL d   1      59.889  -0.013  29.252  0.00  0.00     0.162 A 
ATOM     22  N   UNL d   1      60.334   0.119  29.783  0.00  0.00    -0.225 NA
ATOM     23  C   UNL d   1      60.958   0.422  29.649  0.00  0.00     0.101 A 
ATOM     24  C   UNL d   1      61.133   0.589  28.995  0.00  0.00     0.021 A 
ATOM     25  C   UNL d   1      60.687   0.456  28.468  0.00  0.00     0.005 A 
ATOM     26  C   UNL d   1      60.063   0.153  28.602  0.00  0.00     0.039 A 
ENDBRANCH  20  21
ENDBRANCH   1  20
TORSDOF 4
ENDMDL
MODEL 2
REMARK VINA RESULT:       0.1      1.052      1.458
REMARK  4 active torsions:
REMARK  status: ('A' for Active; 'I' for Inactive)
REMARK    1  A    between atoms: C_2  and  C_1 
REMARK    2  A    between atoms: C_4  and  C_2 
REMARK    3  A    between atoms: N_6  and  C_2 
REMARK    4  A    between atoms: C_8  and  N_6 
ROOT
ATOM      1  C   UNL d   1      58.410  -0.249  30.237  0.00  0.00     0.088 C 
ENDROOT
BRANCH   1   2
ATOM      2  C   UNL d   1      57.753  -0.117  30.734  0.00  0.00     0.058 A 
ATOM      3  C   UNL d   1      57.596  -0.646  31.363  0.00  0.00     0.214 A 
ATOM      4  C   UNL d   1      56.944  -0.512  31.853  0.00  0.00     0.120 A 
ATOM      5  O   UNL d   1      58.093  -1.302  31.491  0.00  0.00    -0.285 OA
ATOM      6  N   UNL d   1      56.798  -1.035  32.466  0.00  0.00    -0.241 NA
ATOM      7  C   UNL d   1      56.451   0.137  31.725  0.00  0.00     0.021 A 
ATOM      8  C   UNL d   1      56.139  -0.905  32.966  0.00  0.00     0.099 A 
ATOM      9  C   UNL d   1      55.646  -0.256  32.838  0.00  0.00     0.021 A 
ATOM     10  C   UNL d   1      55.805   0.272  32.209  0.00  0.00     0.003 A 
ATOM     11  C   UNL d   1      56.603   0.662  31.106  0.00  0.00     0.002 A 
ATOM     12  C   UNL d   1      57.260   0.532  30.607  0.00  0.00     0.005 A 
ENDBRANCH   1   2
BRANCH   1  13
ATOM     13  C   UNL d   1      58.430  -0.925  29.745  0.00  0.00     0.045 A 
ATOM     14  C   UNL d   1      58.236  -0.849  28.947  0.00  0.00     0.141 A 
ATOM     15  F   UNL d   1      58.009  -0.247  28.457  0.00  0.00    -0.204 F 
ATOM     16  C   UNL d   1      58.255  -1.517  28.457  0.00  0.00     0.030 A 
ATOM     17  C   UNL d   1      58.468  -2.248  28.778  0.00  0.00     0.002 A 
ATOM     18  C   UNL d   1      58.662  -2.324  29.576  0.00  0.00     0.000 A 
ATOM     19  C   UNL d   1      58.642  -1.648  30.068  0.00  0.00     0.004 A 
ENDBRANCH   1  13
BRANCH   1  20
ATOM     20  N   UNL d   1      59.044   0.291  30.230  0.00  0.00    -0.227 NA
BRANCH  20  21
ATOM     21  C   UNL d   1      59.738   0.376  30.254  0.00  0.00     0.162 A 
ATOM     22  N   UNL d   1      60.072   0.316  30.872  0.00  0.00    -0.225 NA
ATOM     23  C   UNL d   1      60.773   0.401  30.901  0.00  0.00     0.101 A 
ATOM     24  C   UNL d   1      61.132   0.544  30.321  0.00  0.00     0.021 A 
ATOM     25  C   UNL d   1      60.795   0.603  29.706  0.00  0.00     0.005 A 
ATOM     26  C   UNL d   1      60.095   0.518  29.677  0.00  0.00     0.039 A 
ENDBRANCH  20  21
ENDBRANCH   1  20
TORSDOF 4
ENDMDL
MODEL 3
REMARK VINA RESULT:       0.7      2.194      4.562
REMARK  4 active torsions:
REMARK  status: ('A' for Active; 'I' for Inactive)
REMARK    1  A    between atoms: C_2  and  C_1 
REMARK    2  A    between atoms: C_4  and  C_2 
REMARK    3  A    between atoms: N_6  and  C_2 
REMARK    4  A    between atoms: C_8  and  N_6 
ROOT
ATOM      1  C   UNL d   1      56.790   0.079  32.631  0.00  0.00     0.088 C 
ENDROOT
BRANCH   1   2
ATOM      2  C   UNL d   1      57.048   0.074  31.838  0.00  0.00     0.058 A 
ATOM      3  C   UNL d   1      57.531  -0.551  31.563  0.00  0.00     0.214 A 
ATOM      4  C   UNL d   1      57.784  -0.553  30.776  0.00  0.00     0.120 A 
ATOM      5  O   UNL d   1      57.753  -1.166  32.080  0.00  0.00    -0.285 OA
ATOM      6  N   UNL d   1      58.257  -1.170  30.516  0.00  0.00    -0.241 NA
ATOM      7  C   UNL d   1      57.564   0.055  30.264  0.00  0.00     0.021 A 
ATOM      8  C   UNL d   1      58.516  -1.177  29.720  0.00  0.00     0.099 A 
ATOM      9  C   UNL d   1      58.296  -0.569  29.208  0.00  0.00     0.021 A 
ATOM     10  C   UNL d   1      57.813   0.056  29.485  0.00  0.00     0.003 A 
ATOM     11  C   UNL d   1      57.087   0.674  30.532  0.00  0.00     0.002 A 
ATOM     12  C   UNL d   1      56.828   0.682  31.326  0.00  0.00     0.005 A 
ENDBRANCH   1   2
BRANCH   1  13
ATOM     13  C   UNL d   1      56.155  -0.412  32.865  0.00  0.00     0.045 A 
ATOM     14  C   UNL d   1      55.413  -0.077  32.994  0.00  0.00     0.141 A 
ATOM     15  F   UNL d   1      55.092   0.664  32.955  0.00  0.00    -0.204 F 
ATOM     16  C   UNL d   1      54.781  -0.562  33.227  0.00  0.00     0.030 A 
ATOM     17  C   UNL d   1      54.909  -1.372  33.324  0.00  0.00     0.002 A 
ATOM     18  C   UNL d   1      55.651  -1.707  33.195  0.00  0.00     0.000 A 
ATOM     19  C   UNL d   1      56.286  -1.215  32.961  0.00  0.00     0.004 A 
ENDBRANCH   1  13
BRANCH   1  20
ATOM     20  N   UNL d   1      57.163   0.573  33.189  0.00  0.00    -0.227 NA
BRANCH  20  21
ATOM     21  C   UNL d   1      57.522   0.609  33.788  0.00  0.00     0.162 A 
ATOM     22  N   UNL d   1      57.171   0.645  34.399  0.00  0.00    -0.225 NA
ATOM     23  C   UNL d   1      57.529   0.682  35.007  0.00  0.00     0.101 A 
ATOM     24  C   UNL d   1      58.226   0.682  35.003  0.00  0.00     0.021 A 
ATOM     25  C   UNL d   1      58.573   0.645  34.392  0.00  0.00     0.005 A 
ATOM     26  C   UNL d   1      58.215   0.609  33.785  0.00  0.00     0.039 A 
ENDBRANCH  20  21
ENDBRANCH   1  20
TORSDOF 4
ENDMDL
MODEL 4
REMARK VINA RESULT:       1.6      1.083      3.273
REMARK  4 active torsions:
REMARK  status: ('A' for Active; 'I' for Inactive)
REMARK    1  A    between atoms: C_2  and  C_1 
REMARK    2  A    between atoms: C_4  and  C_2 
REMARK    3  A    between atoms: N_6  and  C_2 
REMARK    4  A    between atoms: C_8  and  N_6 
ROOT
ATOM      1  C   UNL d   1      58.697  -0.752  29.593  0.00  0.00     0.088 C 
ENDROOT
BRANCH   1   2
ATOM      2  C   UNL d   1      58.741  -1.534  29.306  0.00  0.00     0.058 A 
ATOM      3  C   UNL d   1      59.351  -2.040  29.573  0.00  0.00     0.214 A 
ATOM      4  C   UNL d   1      59.391  -2.814  29.286  0.00  0.00     0.120 A 
ATOM      5  O   UNL d   1      59.912  -1.764  30.123  0.00  0.00    -0.285 OA
ATOM      6  N   UNL d   1      59.992  -3.303  29.554  0.00  0.00    -0.241 NA
ATOM      7  C   UNL d   1      58.836  -3.088  28.741  0.00  0.00     0.021 A 
ATOM      8  C   UNL d   1      60.038  -4.088  29.267  0.00  0.00     0.099 A 
ATOM      9  C   UNL d   1      59.483  -4.362  28.722  0.00  0.00     0.021 A 
ATOM     10  C   UNL d   1      58.873  -3.854  28.456  0.00  0.00     0.003 A 
ATOM     11  C   UNL d   1      58.232  -2.592  28.475  0.00  0.00     0.002 A 
ATOM     12  C   UNL d   1      58.185  -1.808  28.761  0.00  0.00     0.005 A 
ENDBRANCH   1   2
BRANCH   1  13
ATOM     13  C   UNL d   1      58.193  -0.573  30.236  0.00  0.00     0.045 A 
ATOM     14  C   UNL d   1      57.549  -0.071  30.116  0.00  0.00     0.141 A 
ATOM     15  F   UNL d   1      57.236   0.337  29.493  0.00  0.00    -0.204 F 
ATOM     16  C   UNL d   1      57.048   0.108  30.752  0.00  0.00     0.030 A 
ATOM     17  C   UNL d   1      57.203  -0.221  31.493  0.00  0.00     0.002 A 
ATOM     18  C   UNL d   1      57.846  -0.723  31.613  0.00  0.00     0.000 A 
ATOM     19  C   UNL d   1      58.350  -0.901  30.970  0.00  0.00     0.004 A 
ENDBRANCH   1  13
BRANCH   1  20
ATOM     20  N   UNL d   1      59.153  -0.151  29.240  0.00  0.00    -0.227 NA
BRANCH  20  21
ATOM     21  C   UNL d   1      59.789   0.127  29.159  0.00  0.00     0.162 A 
ATOM     22  N   UNL d   1      60.232   0.142  29.708  0.00  0.00    -0.225 NA
ATOM     23  C   UNL d   1      60.876   0.421  29.631  0.00  0.00     0.101 A 
ATOM     24  C   UNL d   1      61.073   0.681  29.015  0.00  0.00     0.021 A 
ATOM     25  C   UNL d   1      60.629   0.665  28.470  0.00  0.00     0.005 A 
ATOM     26  C   UNL d   1      59.985   0.386  28.547  0.00  0.00     0.039 A 
ENDBRANCH  20  21
ENDBRANCH   1  20
TORSDOF 4
ENDMDL
