MODEL 1
REMARK VINA RESULT:      -8.0      0.000      0.000
REMARK  6 active torsions:
REMARK  status: ('A' for Active; 'I' for Inactive)
REMARK    1  A    between atoms: C_9  and  N_1 
REMARK    2  A    between atoms: S_14  and  C_3 
REMARK    3  A    between atoms: N_8  and  C_10 
REMARK    4  A    between atoms: C_18  and  C_9 
REMARK    5  A    between atoms: C_19  and  S_14 
REMARK    6  A    between atoms: C_20  and  C_18 
ROOT
ATOM      1  N   UNL d   1      52.932  36.708  54.798  0.00  0.00    -0.195 NA
ATOM      2  C   UNL d   1      53.081  35.980  54.410  0.00  0.00     0.086 C 
ATOM      3  C   UNL d   1      53.216  35.271  54.030  0.00  0.00     0.170 C 
ENDROOT
BRANCH   3   4
ATOM      4  S   UNL d   1      52.607  34.896  53.619  0.00  0.00    -0.060 SA
BRANCH   4   5
ATOM      5  C   UNL d   1      52.570  34.067  53.588  0.00  0.00     0.178 A 
ATOM      6  N   UNL d   1      51.856  33.688  53.420  0.00  0.00    -0.253 N 
ATOM      7  C   UNL d   1      51.823  32.861  53.391  0.00  0.00     0.268 A 
ATOM      8  C   UNL d   1      52.509  32.427  53.531  0.00  0.00     0.076 A 
ATOM      9  O   UNL d   1      51.113  32.484  53.223  0.00  0.00    -0.267 OA
ATOM     10  C   UNL d   1      52.470  31.612  53.501  0.00  0.00     0.024 A 
ATOM     11  C   UNL d   1      53.216  32.803  53.698  0.00  0.00     0.088 A 
ATOM     12  C   UNL d   1      53.149  31.158  53.640  0.00  0.00     0.065 A 
ATOM     13  C   UNL d   1      53.861  31.550  53.808  0.00  0.00     0.019 A 
ATOM     14  C   UNL d   1      53.896  32.364  53.837  0.00  0.00     0.021 A 
ATOM     15  N   UNL d   1      53.253  33.622  53.728  0.00  0.00    -0.222 NA
BRANCH   6  16
ATOM     16  C   UNL d   1      51.179  34.137  53.282  0.00  0.00     0.085 C 
BRANCH  16  17
ATOM     17  C   UNL d   1      50.811  34.103  52.545  0.00  0.00     0.019 C 
BRANCH  17  18
ATOM     18  C   UNL d   1      50.084  34.482  52.426  0.00  0.00     0.002 A 
ATOM     19  C   UNL d   1      49.716  34.870  53.048  0.00  0.00     0.000 A 
ATOM     20  C   UNL d   1      48.993  35.248  52.932  0.00  0.00     0.000 A 
ATOM     21  C   UNL d   1      48.635  35.236  52.181  0.00  0.00     0.000 A 
ATOM     22  C   UNL d   1      49.010  34.842  51.556  0.00  0.00     0.000 A 
ATOM     23  C   UNL d   1      49.734  34.464  51.672  0.00  0.00     0.000 A 
ENDBRANCH  17  18
ENDBRANCH  16  17
ENDBRANCH   6  16
BRANCH  12  24
ATOM     24  N   UNL d   1      53.120  30.339  53.611  0.00  0.00    -0.300 N 
ATOM     25  C   UNL d   1      52.917  29.954  52.907  0.00  0.00     0.107 A 
ATOM     26  C   UNL d   1      52.891  29.134  52.887  0.00  0.00     0.142 A 
ATOM     27  O   UNL d   1      53.066  28.692  53.567  0.00  0.00    -0.300 OA
ATOM     28  C   UNL d   1      53.269  29.077  54.271  0.00  0.00     0.142 A 
ATOM     29  C   UNL d   1      53.297  29.905  54.295  0.00  0.00     0.107 A 
ENDBRANCH  12  24
ENDBRANCH   4   5
ENDBRANCH   3   4
TORSDOF 6
ENDMDL
MODEL 2
REMARK VINA RESULT:      -7.9      1.376      4.801
REMARK  6 active torsions:
REMARK  status: ('A' for Active; 'I' for Inactive)
REMARK    1  A    between atoms: C_9  and  N_1 
REMARK    2  A    between atoms: S_14  and  C_3 
REMARK    3  A    between atoms: N_8  and  C_10 
REMARK    4  A    between atoms: C_18  and  C_9 
REMARK    5  A    between atoms: C_19  and  S_14 
REMARK    6  A    between atoms: C_20  and  C_18 
ROOT
ATOM      1  N   UNL d   1      55.533  33.766  55.431  0.00  0.00    -0.195 NA
ATOM      2  C   UNL d   1      54.758  33.790  55.114  0.00  0.00     0.086 C 
ATOM      3  C   UNL d   1      54.005  33.805  54.801  0.00  0.00     0.170 C 
ENDROOT
BRANCH   3   4
ATOM      4  S   UNL d   1      53.754  33.205  54.291  0.00  0.00    -0.060 SA
BRANCH   4   5
ATOM      5  C   UNL d   1      53.069  33.304  53.833  0.00  0.00     0.178 A 
ATOM      6  N   UNL d   1      52.788  32.686  53.364  0.00  0.00    -0.253 N 
ATOM      7  C   UNL d   1      52.105  32.787  52.909  0.00  0.00     0.268 A 
ATOM      8  C   UNL d   1      51.712  33.512  52.932  0.00  0.00     0.076 A 
ATOM      9  O   UNL d   1      51.826  32.172  52.442  0.00  0.00    -0.267 OA
ATOM     10  C   UNL d   1      51.038  33.606  52.480  0.00  0.00     0.024 A 
ATOM     11  C   UNL d   1      51.990  34.124  53.396  0.00  0.00     0.088 A 
ATOM     12  C   UNL d   1      50.630  34.327  52.490  0.00  0.00     0.065 A 
ATOM     13  C   UNL d   1      50.921  34.942  52.966  0.00  0.00     0.019 A 
ATOM     14  C   UNL d   1      51.593  34.844  53.415  0.00  0.00     0.021 A 
ATOM     15  N   UNL d   1      52.667  34.027  53.849  0.00  0.00    -0.222 NA
BRANCH   6  16
ATOM     16  C   UNL d   1      53.193  31.968  53.353  0.00  0.00     0.085 C 
BRANCH  16  17
ATOM     17  C   UNL d   1      52.769  31.262  53.305  0.00  0.00     0.019 C 
BRANCH  17  18
ATOM     18  C   UNL d   1      53.121  30.549  53.541  0.00  0.00     0.002 A 
ATOM     19  C   UNL d   1      53.845  30.325  53.227  0.00  0.00     0.000 A 
ATOM     20  C   UNL d   1      54.197  29.617  53.460  0.00  0.00     0.000 A 
ATOM     21  C   UNL d   1      53.816  29.129  54.016  0.00  0.00     0.000 A 
ATOM     22  C   UNL d   1      53.084  29.360  54.330  0.00  0.00     0.000 A 
ATOM     23  C   UNL d   1      52.733  30.068  54.097  0.00  0.00     0.000 A 
ENDBRANCH  17  18
ENDBRANCH  16  17
ENDBRANCH   6  16
BRANCH  12  24
ATOM     24  N   UNL d   1      49.952  34.432  52.041  0.00  0.00    -0.300 N 
ATOM     25  C   UNL d   1      49.968  34.292  51.224  0.00  0.00     0.107 A 
ATOM     26  C   UNL d   1      49.285  34.399  50.782  0.00  0.00     0.142 A 
ATOM     27  O   UNL d   1      48.583  34.647  51.147  0.00  0.00    -0.300 OA
ATOM     28  C   UNL d   1      48.567  34.787  51.962  0.00  0.00     0.142 A 
ATOM     29  C   UNL d   1      49.254  34.679  52.413  0.00  0.00     0.107 A 
ENDBRANCH  12  24
ENDBRANCH   4   5
ENDBRANCH   3   4
TORSDOF 6
ENDMDL
MODEL 3
REMARK VINA RESULT:      -6.7      1.861      5.394
REMARK  6 active torsions:
REMARK  status: ('A' for Active; 'I' for Inactive)
REMARK    1  A    between atoms: C_9  and  N_1 
REMARK    2  A    between atoms: S_14  and  C_3 
REMARK    3  A    between atoms: N_8  and  C_10 
REMARK    4  A    between atoms: C_18  and  C_9 
REMARK    5  A    between atoms: C_19  and  S_14 
REMARK    6  A    between atoms: C_20  and  C_18 
ROOT
ATOM      1  N   UNL d   1      53.313  30.313  53.147  0.00  0.00    -0.195 NA
ATOM      2  C   UNL d   1      52.831  30.969  52.949  0.00  0.00     0.086 C 
ATOM      3  C   UNL d   1      52.368  31.614  52.762  0.00  0.00     0.170 C 
ENDROOT
BRANCH   3   4
ATOM      4  S   UNL d   1      52.594  32.372  53.000  0.00  0.00    -0.060 SA
BRANCH   4   5
ATOM      5  C   UNL d   1      52.037  32.987  53.024  0.00  0.00     0.178 A 
ATOM      6  N   UNL d   1      52.247  33.728  53.319  0.00  0.00    -0.253 N 
ATOM      7  C   UNL d   1      51.690  34.340  53.341  0.00  0.00     0.268 A 
ATOM      8  C   UNL d   1      50.926  34.196  53.065  0.00  0.00     0.076 A 
ATOM      9  O   UNL d   1      51.899  35.077  53.635  0.00  0.00    -0.267 OA
ATOM     10  C   UNL d   1      50.380  34.803  53.089  0.00  0.00     0.024 A 
ATOM     11  C   UNL d   1      50.718  33.462  52.772  0.00  0.00     0.088 A 
ATOM     12  C   UNL d   1      49.609  34.678  52.816  0.00  0.00     0.065 A 
ATOM     13  C   UNL d   1      49.408  33.928  52.521  0.00  0.00     0.019 A 
ATOM     14  C   UNL d   1      49.956  33.325  52.499  0.00  0.00     0.021 A 
ATOM     15  N   UNL d   1      51.268  32.853  52.749  0.00  0.00    -0.222 NA
BRANCH   6  16
ATOM     16  C   UNL d   1      53.015  33.855  53.591  0.00  0.00     0.085 C 
BRANCH  16  17
ATOM     17  C   UNL d   1      53.141  34.034  54.386  0.00  0.00     0.019 C 
BRANCH  17  18
ATOM     18  C   UNL d   1      53.893  33.935  54.720  0.00  0.00     0.002 A 
ATOM     19  C   UNL d   1      54.552  34.260  54.352  0.00  0.00     0.000 A 
ATOM     20  C   UNL d   1      55.301  34.163  54.682  0.00  0.00     0.000 A 
ATOM     21  C   UNL d   1      55.389  33.735  55.390  0.00  0.00     0.000 A 
ATOM     22  C   UNL d   1      54.721  33.409  55.757  0.00  0.00     0.000 A 
ATOM     23  C   UNL d   1      53.972  33.505  55.428  0.00  0.00     0.000 A 
ENDBRANCH  17  18
ENDBRANCH  16  17
ENDBRANCH   6  16
BRANCH  12  24
ATOM     24  N   UNL d   1      49.053  35.280  52.836  0.00  0.00    -0.300 N 
ATOM     25  C   UNL d   1      48.867  35.652  53.553  0.00  0.00     0.107 A 
ATOM     26  C   UNL d   1      48.310  36.254  53.564  0.00  0.00     0.142 A 
ATOM     27  O   UNL d   1      47.934  36.491  52.864  0.00  0.00    -0.300 OA
ATOM     28  C   UNL d   1      48.120  36.120  52.148  0.00  0.00     0.142 A 
ATOM     29  C   UNL d   1      48.682  35.512  52.132  0.00  0.00     0.107 A 
ENDBRANCH  12  24
ENDBRANCH   4   5
ENDBRANCH   3   4
TORSDOF 6
ENDMDL
