MODEL 1
REMARK VINA RESULT:      -4.9      0.000      0.000
REMARK  4 active torsions:
REMARK  status: ('A' for Active; 'I' for Inactive)
REMARK    1  A    between atoms: C_2  and  C_1 
REMARK       I    between atoms: N_5  and  C_2 
REMARK    2  A    between atoms: C_10  and  N_5 
REMARK    3  A    between atoms: O_9  and  C_11 
REMARK    4  A    between atoms: C_12  and  O_9 
ROOT
ATOM      1  C   UNL d   1      57.596   0.661  31.186  0.00  0.00     0.085 A 
ATOM      2  C   UNL d   1      58.726   0.624  29.996  0.00  0.00     0.100 A 
ATOM      3  C   UNL d   1      57.358   0.682  30.391  0.00  0.00     0.021 A 
ATOM      4  C   UNL d   1      58.398   0.621  31.380  0.00  0.00     0.021 A 
ATOM      5  C   UNL d   1      57.922   0.663  29.800  0.00  0.00     0.026 A 
ATOM      6  C   UNL d   1      58.959   0.603  30.773  0.00  0.00     0.026 A 
ENDROOT
BRANCH   1   7
ATOM      7  N   UNL d   1      57.031   0.680  31.784  0.00  0.00    -0.206 NA
ATOM      8  C   UNL d   1      56.627  -0.014  31.990  0.00  0.00     0.303 C 
ATOM      9  O   UNL d   1      56.794  -0.715  31.597  0.00  0.00    -0.263 OA
BRANCH   8  10
ATOM     10  C   UNL d   1      56.061   0.004  32.589  0.00  0.00     0.176 A 
ATOM     11  C   UNL d   1      55.770  -0.651  33.000  0.00  0.00     0.110 A 
ATOM     12  N   UNL d   1      55.216  -0.386  33.547  0.00  0.00    -0.233 NA
ATOM     13  C   UNL d   1      55.997  -1.428  32.881  0.00  0.00     0.023 C 
ATOM     14  C   UNL d   1      55.162   0.442  33.473  0.00  0.00     0.259 A 
ATOM     15  O   UNL d   1      55.688   0.675  32.879  0.00  0.00    -0.296 OA
ENDBRANCH   8  10
ENDBRANCH   1   7
BRANCH   2  16
ATOM     16  O   UNL d   1      59.290   0.605  29.392  0.00  0.00    -0.307 OA
BRANCH  16  17
ATOM     17  C   UNL d   1      59.648  -0.094  29.187  0.00  0.00     0.100 A 
ATOM     18  C   UNL d   1      60.391  -0.278  29.502  0.00  0.00     0.025 A 
ATOM     19  C   UNL d   1      60.751  -0.988  29.292  0.00  0.00     0.002 A 
ATOM     20  C   UNL d   1      60.379  -1.520  28.769  0.00  0.00     0.000 A 
ATOM     21  C   UNL d   1      59.624  -1.320  28.457  0.00  0.00     0.002 A 
ATOM     22  C   UNL d   1      59.281  -0.607  28.679  0.00  0.00     0.025 A 
ENDBRANCH  16  17
ENDBRANCH   2  16
TORSDOF 4
ENDMDL
MODEL 2
REMARK VINA RESULT:      -4.0      0.986      1.364
REMARK  4 active torsions:
REMARK  status: ('A' for Active; 'I' for Inactive)
REMARK    1  A    between atoms: C_2  and  C_1 
REMARK       I    between atoms: N_5  and  C_2 
REMARK    2  A    between atoms: C_10  and  N_5 
REMARK    3  A    between atoms: O_9  and  C_11 
REMARK    4  A    between atoms: C_12  and  O_9 
ROOT
ATOM      1  C   UNL d   1      57.411   0.027  31.824  0.00  0.00     0.085 A 
ATOM      2  C   UNL d   1      57.874  -0.095  30.255  0.00  0.00     0.100 A 
ATOM      3  C   UNL d   1      57.319  -0.693  31.422  0.00  0.00     0.021 A 
ATOM      4  C   UNL d   1      57.734   0.682  31.437  0.00  0.00     0.021 A 
ATOM      5  C   UNL d   1      57.550  -0.752  30.641  0.00  0.00     0.026 A 
ATOM      6  C   UNL d   1      57.964   0.610  30.647  0.00  0.00     0.026 A 
ENDROOT
BRANCH   1   7
ATOM      7  N   UNL d   1      57.179   0.090  32.612  0.00  0.00    -0.206 NA
ATOM      8  C   UNL d   1      56.442   0.420  32.799  0.00  0.00     0.303 C 
ATOM      9  O   UNL d   1      55.948   0.682  32.197  0.00  0.00    -0.263 OA
BRANCH   8  10
ATOM     10  C   UNL d   1      56.209   0.483  33.586  0.00  0.00     0.176 A 
ATOM     11  C   UNL d   1      55.444   0.363  33.876  0.00  0.00     0.110 A 
ATOM     12  N   UNL d   1      55.457   0.482  34.690  0.00  0.00    -0.233 NA
ATOM     13  C   UNL d   1      54.790   0.162  33.428  0.00  0.00     0.023 C 
ATOM     14  C   UNL d   1      56.238   0.676  34.907  0.00  0.00     0.259 A 
ATOM     15  O   UNL d   1      56.696   0.675  34.219  0.00  0.00    -0.296 OA
ENDBRANCH   8  10
ENDBRANCH   1   7
BRANCH   2  16
ATOM     16  O   UNL d   1      58.106  -0.163  29.463  0.00  0.00    -0.307 OA
BRANCH  16  17
ATOM     17  C   UNL d   1      58.881  -0.311  29.275  0.00  0.00     0.100 A 
ATOM     18  C   UNL d   1      59.116  -1.084  29.099  0.00  0.00     0.025 A 
ATOM     19  C   UNL d   1      59.903  -1.231  28.908  0.00  0.00     0.002 A 
ATOM     20  C   UNL d   1      60.463  -0.613  28.890  0.00  0.00     0.000 A 
ATOM     21  C   UNL d   1      60.210   0.169  29.071  0.00  0.00     0.002 A 
ATOM     22  C   UNL d   1      59.419   0.294  29.259  0.00  0.00     0.025 A 
ENDBRANCH  16  17
ENDBRANCH   2  16
TORSDOF 4
ENDMDL
MODEL 3
REMARK VINA RESULT:      -3.4      1.463      4.780
REMARK  4 active torsions:
REMARK  status: ('A' for Active; 'I' for Inactive)
REMARK    1  A    between atoms: C_2  and  C_1 
REMARK       I    between atoms: N_5  and  C_2 
REMARK    2  A    between atoms: C_10  and  N_5 
REMARK    3  A    between atoms: O_9  and  C_11 
REMARK    4  A    between atoms: C_12  and  O_9 
ROOT
ATOM      1  C   UNL d   1      58.381   0.546  30.605  0.00  0.00     0.085 A 
ATOM      2  C   UNL d   1      57.057   0.622  31.570  0.00  0.00     0.100 A 
ATOM      3  C   UNL d   1      57.627   0.608  30.265  0.00  0.00     0.021 A 
ATOM      4  C   UNL d   1      58.468   0.523  31.426  0.00  0.00     0.021 A 
ATOM      5  C   UNL d   1      56.968   0.646  30.747  0.00  0.00     0.026 A 
ATOM      6  C   UNL d   1      57.795   0.562  31.903  0.00  0.00     0.026 A 
ENDROOT
BRANCH   1   7
ATOM      7  N   UNL d   1      59.047   0.508  30.122  0.00  0.00    -0.206 NA
ATOM      8  C   UNL d   1      59.282  -0.219  29.802  0.00  0.00     0.303 C 
ATOM      9  O   UNL d   1      58.849  -0.897  29.969  0.00  0.00    -0.263 OA
BRANCH   8  10
ATOM     10  C   UNL d   1      59.948  -0.259  29.318  0.00  0.00     0.176 A 
ATOM     11  C   UNL d   1      60.171  -0.905  28.854  0.00  0.00     0.110 A 
ATOM     12  N   UNL d   1      60.868  -0.710  28.461  0.00  0.00    -0.233 NA
ATOM     13  C   UNL d   1      59.768  -1.614  28.797  0.00  0.00     0.023 C 
ATOM     14  C   UNL d   1      61.077   0.065  28.685  0.00  0.00     0.259 A 
ATOM     15  O   UNL d   1      60.504   0.336  29.214  0.00  0.00    -0.296 OA
ENDBRANCH   8  10
ENDBRANCH   1   7
BRANCH   2  16
ATOM     16  O   UNL d   1      56.385   0.661  32.051  0.00  0.00    -0.307 OA
BRANCH  16  17
ATOM     17  C   UNL d   1      56.202   0.047  32.550  0.00  0.00     0.100 A 
ATOM     18  C   UNL d   1      56.130  -0.718  32.243  0.00  0.00     0.025 A 
ATOM     19  C   UNL d   1      55.945  -1.338  32.752  0.00  0.00     0.002 A 
ATOM     20  C   UNL d   1      55.829  -1.205  33.567  0.00  0.00     0.000 A 
ATOM     21  C   UNL d   1      55.905  -0.422  33.865  0.00  0.00     0.002 A 
ATOM     22  C   UNL d   1      56.091   0.183  33.341  0.00  0.00     0.025 A 
ENDBRANCH  16  17
ENDBRANCH   2  16
TORSDOF 4
ENDMDL
MODEL 4
REMARK VINA RESULT:      -3.3      1.408      5.122
REMARK  4 active torsions:
REMARK  status: ('A' for Active; 'I' for Inactive)
REMARK    1  A    between atoms: C_2  and  C_1 
REMARK       I    between atoms: N_5  and  C_2 
REMARK    2  A    between atoms: C_10  and  N_5 
REMARK    3  A    between atoms: O_9  and  C_11 
REMARK    4  A    between atoms: C_12  and  O_9 
ROOT
ATOM      1  C   UNL d   1      57.041  -0.043  31.525  0.00  0.00     0.085 A 
ATOM      2  C   UNL d   1      56.603  -0.021  33.106  0.00  0.00     0.100 A 
ATOM      3  C   UNL d   1      57.052   0.672  31.945  0.00  0.00     0.021 A 
ATOM      4  C   UNL d   1      56.812  -0.743  31.899  0.00  0.00     0.021 A 
ATOM      5  C   UNL d   1      56.833   0.682  32.732  0.00  0.00     0.026 A 
ATOM      6  C   UNL d   1      56.593  -0.721  32.696  0.00  0.00     0.026 A 
ENDROOT
BRANCH   1   7
ATOM      7  N   UNL d   1      57.261  -0.056  30.732  0.00  0.00    -0.206 NA
ATOM      8  C   UNL d   1      58.064  -0.061  30.527  0.00  0.00     0.303 C 
ATOM      9  O   UNL d   1      58.635  -0.052  31.117  0.00  0.00    -0.263 OA
BRANCH   8  10
ATOM     10  C   UNL d   1      58.285  -0.074  29.733  0.00  0.00     0.176 A 
ATOM     11  C   UNL d   1      58.701  -0.680  29.356  0.00  0.00     0.110 A 
ATOM     12  N   UNL d   1      58.804  -0.469  28.567  0.00  0.00    -0.233 NA
ATOM     13  C   UNL d   1      58.963  -1.370  29.709  0.00  0.00     0.023 C 
ATOM     14  C   UNL d   1      58.448   0.276  28.455  0.00  0.00     0.259 A 
ATOM     15  O   UNL d   1      58.130   0.513  29.180  0.00  0.00    -0.296 OA
ENDBRANCH   8  10
ENDBRANCH   1   7
BRANCH   2  16
ATOM     16  O   UNL d   1      56.383  -0.002  33.903  0.00  0.00    -0.307 OA
BRANCH  16  17
ATOM     17  C   UNL d   1      55.632   0.219  34.116  0.00  0.00     0.100 A 
ATOM     18  C   UNL d   1      55.481   0.445  34.898  0.00  0.00     0.025 A 
ATOM     19  C   UNL d   1      54.717   0.668  35.110  0.00  0.00     0.002 A 
ATOM     20  C   UNL d   1      54.099   0.669  34.551  0.00  0.00     0.000 A 
ATOM     21  C   UNL d   1      54.267   0.436  33.760  0.00  0.00     0.002 A 
ATOM     22  C   UNL d   1      55.036   0.217  33.568  0.00  0.00     0.025 A 
ENDBRANCH  16  17
ENDBRANCH   2  16
TORSDOF 4
ENDMDL
MODEL 5
REMARK VINA RESULT:      -2.4      1.886      4.951
REMARK  4 active torsions:
REMARK  status: ('A' for Active; 'I' for Inactive)
REMARK    1  A    between atoms: C_2  and  C_1 
REMARK       I    between atoms: N_5  and  C_2 
REMARK    2  A    between atoms: C_10  and  N_5 
REMARK    3  A    between atoms: O_9  and  C_11 
REMARK    4  A    between atoms: C_12  and  O_9 
ROOT
ATOM      1  C   UNL d   1      57.815  -1.041  30.798  0.00  0.00     0.085 A 
ATOM      2  C   UNL d   1      56.987   0.108  31.627  0.00  0.00     0.100 A 
ATOM      3  C   UNL d   1      57.111  -1.242  31.188  0.00  0.00     0.021 A 
ATOM      4  C   UNL d   1      58.100  -0.266  30.825  0.00  0.00     0.021 A 
ATOM      5  C   UNL d   1      56.700  -0.669  31.601  0.00  0.00     0.026 A 
ATOM      6  C   UNL d   1      57.676   0.304  31.245  0.00  0.00     0.026 A 
ENDROOT
BRANCH   1   7
ATOM      7  N   UNL d   1      58.231  -1.616  30.381  0.00  0.00    -0.206 NA
ATOM      8  C   UNL d   1      58.376  -1.515  29.571  0.00  0.00     0.303 C 
ATOM      9  O   UNL d   1      58.102  -0.841  29.190  0.00  0.00    -0.263 OA
BRANCH   8  10
ATOM     10  C   UNL d   1      58.792  -2.090  29.154  0.00  0.00     0.176 A 
ATOM     11  C   UNL d   1      59.542  -1.997  28.819  0.00  0.00     0.110 A 
ATOM     12  N   UNL d   1      59.750  -2.705  28.455  0.00  0.00    -0.233 NA
ATOM     13  C   UNL d   1      59.997  -1.318  28.848  0.00  0.00     0.023 C 
ATOM     14  C   UNL d   1      59.122  -3.242  28.565  0.00  0.00     0.259 A 
ATOM     15  O   UNL d   1      58.535  -2.854  28.997  0.00  0.00    -0.296 OA
ENDBRANCH   8  10
ENDBRANCH   1   7
BRANCH   2  16
ATOM     16  O   UNL d   1      56.565   0.682  32.047  0.00  0.00    -0.307 OA
BRANCH  16  17
ATOM     17  C   UNL d   1      56.247   0.507  32.773  0.00  0.00     0.100 A 
ATOM     18  C   UNL d   1      55.475   0.213  32.817  0.00  0.00     0.025 A 
ATOM     19  C   UNL d   1      55.155   0.037  33.555  0.00  0.00     0.002 A 
ATOM     20  C   UNL d   1      55.596   0.151  34.253  0.00  0.00     0.000 A 
ATOM     21  C   UNL d   1      56.380   0.451  34.192  0.00  0.00     0.002 A 
ATOM     22  C   UNL d   1      56.681   0.620  33.447  0.00  0.00     0.025 A 
ENDBRANCH  16  17
ENDBRANCH   2  16
TORSDOF 4
ENDMDL
