MODEL 1
REMARK VINA RESULT:      -2.8      0.000      0.000
REMARK  6 active torsions:
REMARK  status: ('A' for Active; 'I' for Inactive)
REMARK    1  A    between atoms: C_3  and  C_1 
REMARK    2  A    between atoms: C_2  and  C_4 
REMARK    3  A    between atoms: C_9  and  C_3 
REMARK    4  A    between atoms: C_4  and  C_10 
REMARK    5  A    between atoms: C_17  and  C_9 
REMARK    6  A    between atoms: C_10  and  C_17 
ROOT
ATOM      1  C   UNL d   1      31.696  16.621 -23.962  0.00  0.00     0.006 C 
ATOM      2  C   UNL d   1      32.183  16.042 -24.343  0.00  0.00     0.000 C 
ENDROOT
BRANCH   1   3
ATOM      3  C   UNL d   1      30.964  16.377 -23.673  0.00  0.00     0.043 C 
BRANCH   3   4
ATOM      4  C   UNL d   1      30.307  16.312 -24.159  0.00  0.00     0.202 C 
ATOM      5  O   UNL d   1      30.360  16.424 -24.988  0.00  0.00    -0.286 OA
BRANCH   4   6
ATOM      6  C   UNL d   1      29.568  16.133 -23.839  0.00  0.00     0.068 A 
ATOM      7  S   UNL d   1      28.858  16.405 -24.168  0.00  0.00    -0.083 SA
ATOM      8  C   UNL d   1      28.228  16.131 -23.723  0.00  0.00     0.035 A 
ATOM      9  C   UNL d   1      28.545  15.679 -23.101  0.00  0.00     0.008 A 
ATOM     10  C   UNL d   1      29.361  15.687 -23.182  0.00  0.00     0.010 A 
ENDBRANCH   4   6
ENDBRANCH   3   4
ENDBRANCH   1   3
BRANCH   1  11
ATOM     11  C   UNL d   1      31.940  17.401 -23.879  0.00  0.00     0.043 C 
BRANCH  11  12
ATOM     12  C   UNL d   1      32.651  17.580 -23.445  0.00  0.00     0.202 C 
ATOM     13  O   UNL d   1      33.115  16.973 -23.154  0.00  0.00    -0.286 OA
BRANCH  12  14
ATOM     14  C   UNL d   1      32.866  18.382 -23.323  0.00  0.00     0.068 A 
ATOM     15  S   UNL d   1      33.068  18.941 -23.929  0.00  0.00    -0.083 SA
ATOM     16  C   UNL d   1      33.241  19.655 -23.565  0.00  0.00     0.035 A 
ATOM     17  C   UNL d   1      33.151  19.556 -22.744  0.00  0.00     0.008 A 
ATOM     18  C   UNL d   1      32.926  18.790 -22.601  0.00  0.00     0.010 A 
ENDBRANCH  12  14
ENDBRANCH  11  12
ENDBRANCH   1  11
TORSDOF 6
ENDMDL
MODEL 2
REMARK VINA RESULT:      -2.6      0.464      4.200
REMARK  6 active torsions:
REMARK  status: ('A' for Active; 'I' for Inactive)
REMARK    1  A    between atoms: C_3  and  C_1 
REMARK    2  A    between atoms: C_2  and  C_4 
REMARK    3  A    between atoms: C_9  and  C_3 
REMARK    4  A    between atoms: C_4  and  C_10 
REMARK    5  A    between atoms: C_17  and  C_9 
REMARK    6  A    between atoms: C_10  and  C_17 
ROOT
ATOM      1  C   UNL d   1      31.849  16.466 -24.077  0.00  0.00     0.006 C 
ATOM      2  C   UNL d   1      32.330  15.955 -24.552  0.00  0.00     0.000 C 
ENDROOT
BRANCH   1   3
ATOM      3  C   UNL d   1      32.096  17.246 -23.980  0.00  0.00     0.043 C 
BRANCH   3   4
ATOM      4  C   UNL d   1      32.743  17.440 -23.516  0.00  0.00     0.202 C 
ATOM      5  O   UNL d   1      33.229  16.852 -23.170  0.00  0.00    -0.286 OA
BRANCH   4   6
ATOM      6  C   UNL d   1      32.933  18.231 -23.375  0.00  0.00     0.068 A 
ATOM      7  S   UNL d   1      33.063  18.534 -22.616  0.00  0.00    -0.083 SA
ATOM      8  C   UNL d   1      33.240  19.331 -22.666  0.00  0.00     0.035 A 
ATOM      9  C   UNL d   1      33.222  19.536 -23.472  0.00  0.00     0.008 A 
ATOM     10  C   UNL d   1      33.034  18.859 -23.895  0.00  0.00     0.010 A 
ENDBRANCH   4   6
ENDBRANCH   3   4
ENDBRANCH   1   3
BRANCH   1  11
ATOM     11  C   UNL d   1      31.158  16.199 -23.723  0.00  0.00     0.043 C 
BRANCH  11  12
ATOM     12  C   UNL d   1      30.481  16.005 -24.204  0.00  0.00     0.202 C 
ATOM     13  O   UNL d   1      30.558  15.958 -25.016  0.00  0.00    -0.286 OA
BRANCH  12  14
ATOM     14  C   UNL d   1      29.741  15.865 -23.834  0.00  0.00     0.068 A 
ATOM     15  S   UNL d   1      28.980  16.080 -24.145  0.00  0.00    -0.083 SA
ATOM     16  C   UNL d   1      28.412  15.840 -23.605  0.00  0.00     0.035 A 
ATOM     17  C   UNL d   1      28.798  15.478 -22.964  0.00  0.00     0.008 A 
ATOM     18  C   UNL d   1      29.597  15.495 -23.104  0.00  0.00     0.010 A 
ENDBRANCH  12  14
ENDBRANCH  11  12
ENDBRANCH   1  11
TORSDOF 6
ENDMDL
MODEL 3
REMARK VINA RESULT:      -2.4      1.033      4.219
REMARK  6 active torsions:
REMARK  status: ('A' for Active; 'I' for Inactive)
REMARK    1  A    between atoms: C_3  and  C_1 
REMARK    2  A    between atoms: C_2  and  C_4 
REMARK    3  A    between atoms: C_9  and  C_3 
REMARK    4  A    between atoms: C_4  and  C_10 
REMARK    5  A    between atoms: C_17  and  C_9 
REMARK    6  A    between atoms: C_10  and  C_17 
ROOT
ATOM      1  C   UNL d   1      32.525  17.465 -23.932  0.00  0.00     0.006 C 
ATOM      2  C   UNL d   1      33.130  17.105 -24.402  0.00  0.00     0.000 C 
ENDROOT
BRANCH   1   3
ATOM      3  C   UNL d   1      32.755  18.023 -23.371  0.00  0.00     0.043 C 
BRANCH   3   4
ATOM      4  C   UNL d   1      32.977  18.783 -23.581  0.00  0.00     0.202 C 
ATOM      5  O   UNL d   1      33.108  18.998 -24.381  0.00  0.00    -0.286 OA
BRANCH   4   6
ATOM      6  C   UNL d   1      33.079  19.363 -23.003  0.00  0.00     0.068 A 
ATOM      7  S   UNL d   1      33.130  20.170 -23.181  0.00  0.00    -0.083 SA
ATOM      8  C   UNL d   1      33.229  20.597 -22.490  0.00  0.00     0.035 A 
ATOM      9  C   UNL d   1      33.241  20.049 -21.863  0.00  0.00     0.008 A 
ATOM     10  C   UNL d   1      33.149  19.302 -22.188  0.00  0.00     0.010 A 
ENDBRANCH   4   6
ENDBRANCH   3   4
ENDBRANCH   1   3
BRANCH   1  11
ATOM     11  C   UNL d   1      31.733  17.270 -24.028  0.00  0.00     0.043 C 
BRANCH  11  12
ATOM     12  C   UNL d   1      31.488  16.455 -23.984  0.00  0.00     0.202 C 
ATOM     13  O   UNL d   1      32.048  15.863 -23.921  0.00  0.00    -0.286 OA
BRANCH  12  14
ATOM     14  C   UNL d   1      30.669  16.270 -24.007  0.00  0.00     0.068 A 
ATOM     15  S   UNL d   1      30.248  15.804 -23.435  0.00  0.00    -0.083 SA
ATOM     16  C   UNL d   1      29.464  15.764 -23.672  0.00  0.00     0.035 A 
ATOM     17  C   UNL d   1      29.384  16.195 -24.379  0.00  0.00     0.008 A 
ATOM     18  C   UNL d   1      30.110  16.498 -24.578  0.00  0.00     0.010 A 
ENDBRANCH  12  14
ENDBRANCH  11  12
ENDBRANCH   1  11
TORSDOF 6
ENDMDL
MODEL 4
REMARK VINA RESULT:      -1.8      3.093      4.833
REMARK  6 active torsions:
REMARK  status: ('A' for Active; 'I' for Inactive)
REMARK    1  A    between atoms: C_3  and  C_1 
REMARK    2  A    between atoms: C_2  and  C_4 
REMARK    3  A    between atoms: C_9  and  C_3 
REMARK    4  A    between atoms: C_4  and  C_10 
REMARK    5  A    between atoms: C_17  and  C_9 
REMARK    6  A    between atoms: C_10  and  C_17 
ROOT
ATOM      1  C   UNL d   1      33.045  20.384 -21.682  0.00  0.00     0.006 C 
ATOM      2  C   UNL d   1      33.150  19.818 -21.061  0.00  0.00     0.000 C 
ENDROOT
BRANCH   1   3
ATOM      3  C   UNL d   1      32.923  20.099 -22.445  0.00  0.00     0.043 C 
BRANCH   3   4
ATOM      4  C   UNL d   1      33.068  19.318 -22.644  0.00  0.00     0.202 C 
ATOM      5  O   UNL d   1      33.241  18.740 -22.061  0.00  0.00    -0.286 OA
BRANCH   4   6
ATOM      6  C   UNL d   1      33.047  19.077 -23.433  0.00  0.00     0.068 A 
ATOM      7  S   UNL d   1      32.909  18.293 -23.660  0.00  0.00    -0.083 SA
ATOM      8  C   UNL d   1      32.924  18.238 -24.477  0.00  0.00     0.035 A 
ATOM      9  C   UNL d   1      33.073  19.002 -24.771  0.00  0.00     0.008 A 
ATOM     10  C   UNL d   1      33.147  19.504 -24.127  0.00  0.00     0.010 A 
ENDBRANCH   4   6
ENDBRANCH   3   4
ENDBRANCH   1   3
BRANCH   1  11
ATOM     11  C   UNL d   1      33.063  21.192 -21.534  0.00  0.00     0.043 C 
BRANCH  11  12
ATOM     12  C   UNL d   1      32.434  21.556 -21.088  0.00  0.00     0.202 C 
ATOM     13  O   UNL d   1      31.761  21.130 -20.909  0.00  0.00    -0.286 OA
BRANCH  12  14
ATOM     14  C   UNL d   1      32.518  22.353 -20.838  0.00  0.00     0.068 A 
ATOM     15  S   UNL d   1      32.367  23.042 -21.312  0.00  0.00    -0.083 SA
ATOM     16  C   UNL d   1      32.518  23.702 -20.850  0.00  0.00     0.035 A 
ATOM     17  C   UNL d   1      32.759  23.444 -20.098  0.00  0.00     0.008 A 
ATOM     18  C   UNL d   1      32.758  22.632 -20.093  0.00  0.00     0.010 A 
ENDBRANCH  12  14
ENDBRANCH  11  12
ENDBRANCH   1  11
TORSDOF 6
ENDMDL
MODEL 5
REMARK VINA RESULT:      -1.7      2.826      5.506
REMARK  6 active torsions:
REMARK  status: ('A' for Active; 'I' for Inactive)
REMARK    1  A    between atoms: C_3  and  C_1 
REMARK    2  A    between atoms: C_2  and  C_4 
REMARK    3  A    between atoms: C_9  and  C_3 
REMARK    4  A    between atoms: C_4  and  C_10 
REMARK    5  A    between atoms: C_17  and  C_9 
REMARK    6  A    between atoms: C_10  and  C_17 
ROOT
ATOM      1  C   UNL d   1      33.163  20.182 -21.436  0.00  0.00     0.006 C 
ATOM      2  C   UNL d   1      33.235  19.652 -20.779  0.00  0.00     0.000 C 
ENDROOT
BRANCH   1   3
ATOM      3  C   UNL d   1      33.206  20.990 -21.284  0.00  0.00     0.043 C 
BRANCH   3   4
ATOM      4  C   UNL d   1      32.562  21.413 -21.005  0.00  0.00     0.202 C 
ATOM      5  O   UNL d   1      31.830  21.039 -20.834  0.00  0.00    -0.286 OA
BRANCH   4   6
ATOM      6  C   UNL d   1      32.617  22.227 -20.883  0.00  0.00     0.068 A 
ATOM      7  S   UNL d   1      32.521  22.578 -20.140  0.00  0.00    -0.083 SA
ATOM      8  C   UNL d   1      32.609  23.389 -20.206  0.00  0.00     0.035 A 
ATOM      9  C   UNL d   1      32.763  23.554 -21.007  0.00  0.00     0.008 A 
ATOM     10  C   UNL d   1      32.766  22.839 -21.410  0.00  0.00     0.010 A 
ENDBRANCH   4   6
ENDBRANCH   3   4
ENDBRANCH   1   3
BRANCH   1  11
ATOM     11  C   UNL d   1      33.055  19.905 -22.202  0.00  0.00     0.043 C 
BRANCH  11  12
ATOM     12  C   UNL d   1      33.053  19.066 -22.354  0.00  0.00     0.202 C 
ATOM     13  O   UNL d   1      33.240  18.543 -21.756  0.00  0.00    -0.286 OA
BRANCH  12  14
ATOM     14  C   UNL d   1      32.858  18.789 -23.122  0.00  0.00     0.068 A 
ATOM     15  S   UNL d   1      33.204  19.056 -23.851  0.00  0.00    -0.083 SA
ATOM     16  C   UNL d   1      32.853  18.640 -24.463  0.00  0.00     0.035 A 
ATOM     17  C   UNL d   1      32.294  18.118 -24.136  0.00  0.00     0.008 A 
ATOM     18  C   UNL d   1      32.299  18.210 -23.330  0.00  0.00     0.010 A 
ENDBRANCH  12  14
ENDBRANCH  11  12
ENDBRANCH   1  11
TORSDOF 6
ENDMDL
MODEL 6
REMARK VINA RESULT:      -1.4      2.149      4.525
REMARK  6 active torsions:
REMARK  status: ('A' for Active; 'I' for Inactive)
REMARK    1  A    between atoms: C_3  and  C_1 
REMARK    2  A    between atoms: C_2  and  C_4 
REMARK    3  A    between atoms: C_9  and  C_3 
REMARK    4  A    between atoms: C_4  and  C_10 
REMARK    5  A    between atoms: C_17  and  C_9 
REMARK    6  A    between atoms: C_10  and  C_17 
ROOT
ATOM      1  C   UNL d   1      32.985  18.858 -23.637  0.00  0.00     0.006 C 
ATOM      2  C   UNL d   1      32.846  19.373 -24.295  0.00  0.00     0.000 C 
ENDROOT
BRANCH   1   3
ATOM      3  C   UNL d   1      32.997  19.192 -22.884  0.00  0.00     0.043 C 
BRANCH   3   4
ATOM      4  C   UNL d   1      33.130  19.991 -22.767  0.00  0.00     0.202 C 
ATOM      5  O   UNL d   1      33.241  20.518 -23.411  0.00  0.00    -0.286 OA
BRANCH   4   6
ATOM      6  C   UNL d   1      33.158  20.303 -22.004  0.00  0.00     0.068 A 
ATOM      7  S   UNL d   1      33.119  21.115 -21.848  0.00  0.00    -0.083 SA
ATOM      8  C   UNL d   1      33.161  21.242 -21.041  0.00  0.00     0.035 A 
ATOM      9  C   UNL d   1      33.227  20.495 -20.679  0.00  0.00     0.008 A 
ATOM     10  C   UNL d   1      33.224  19.931 -21.275  0.00  0.00     0.010 A 
ENDBRANCH   4   6
ENDBRANCH   3   4
ENDBRANCH   1   3
BRANCH   1  11
ATOM     11  C   UNL d   1      33.103  18.051 -23.740  0.00  0.00     0.043 C 
BRANCH  11  12
ATOM     12  C   UNL d   1      32.438  17.541 -23.896  0.00  0.00     0.202 C 
ATOM     13  O   UNL d   1      31.747  17.853 -24.201  0.00  0.00    -0.286 OA
BRANCH  12  14
ATOM     14  C   UNL d   1      32.503  16.720 -23.734  0.00  0.00     0.068 A 
ATOM     15  S   UNL d   1      31.877  16.216 -23.460  0.00  0.00    -0.083 SA
ATOM     16  C   UNL d   1      32.184  15.460 -23.374  0.00  0.00     0.035 A 
ATOM     17  C   UNL d   1      32.987  15.479 -23.588  0.00  0.00     0.008 A 
ATOM     18  C   UNL d   1      33.177  16.238 -23.804  0.00  0.00     0.010 A 
ENDBRANCH  12  14
ENDBRANCH  11  12
ENDBRANCH   1  11
TORSDOF 6
ENDMDL
MODEL 7
REMARK VINA RESULT:      -0.8      3.767      6.432
REMARK  6 active torsions:
REMARK  status: ('A' for Active; 'I' for Inactive)
REMARK    1  A    between atoms: C_3  and  C_1 
REMARK    2  A    between atoms: C_2  and  C_4 
REMARK    3  A    between atoms: C_9  and  C_3 
REMARK    4  A    between atoms: C_4  and  C_10 
REMARK    5  A    between atoms: C_17  and  C_9 
REMARK    6  A    between atoms: C_10  and  C_17 
ROOT
ATOM      1  C   UNL d   1      32.900  21.704 -21.429  0.00  0.00     0.006 C 
ATOM      2  C   UNL d   1      32.555  22.146 -22.064  0.00  0.00     0.000 C 
ENDROOT
BRANCH   1   3
ATOM      3  C   UNL d   1      33.114  22.114 -20.747  0.00  0.00     0.043 C 
BRANCH   3   4
ATOM      4  C   UNL d   1      32.559  22.486 -20.273  0.00  0.00     0.202 C 
ATOM      5  O   UNL d   1      31.749  22.517 -20.486  0.00  0.00    -0.286 OA
BRANCH   4   6
ATOM      6  C   UNL d   1      32.787  22.845 -19.566  0.00  0.00     0.068 A 
ATOM      7  S   UNL d   1      32.913  22.420 -18.867  0.00  0.00    -0.083 SA
ATOM      8  C   UNL d   1      33.133  22.935 -18.270  0.00  0.00     0.035 A 
ATOM      9  C   UNL d   1      33.146  23.699 -18.597  0.00  0.00     0.008 A 
ATOM     10  C   UNL d   1      32.934  23.633 -19.387  0.00  0.00     0.010 A 
ENDBRANCH   4   6
ENDBRANCH   3   4
ENDBRANCH   1   3
BRANCH   1  11
ATOM     11  C   UNL d   1      33.018  20.893 -21.484  0.00  0.00     0.043 C 
BRANCH  11  12
ATOM     12  C   UNL d   1      32.976  20.508 -22.244  0.00  0.00     0.202 C 
ATOM     13  O   UNL d   1      32.836  20.949 -22.917  0.00  0.00    -0.286 OA
BRANCH  12  14
ATOM     14  C   UNL d   1      33.078  19.676 -22.289  0.00  0.00     0.068 A 
ATOM     15  S   UNL d   1      33.150  19.222 -23.003  0.00  0.00    -0.083 SA
ATOM     16  C   UNL d   1      33.241  18.435 -22.791  0.00  0.00     0.035 A 
ATOM     17  C   UNL d   1      33.228  18.386 -21.961  0.00  0.00     0.008 A 
ATOM     18  C   UNL d   1      33.130  19.133 -21.662  0.00  0.00     0.010 A 
ENDBRANCH  12  14
ENDBRANCH  11  12
ENDBRANCH   1  11
TORSDOF 6
ENDMDL
MODEL 8
REMARK VINA RESULT:       0.1      4.910      6.876
REMARK  6 active torsions:
REMARK  status: ('A' for Active; 'I' for Inactive)
REMARK    1  A    between atoms: C_3  and  C_1 
REMARK    2  A    between atoms: C_2  and  C_4 
REMARK    3  A    between atoms: C_9  and  C_3 
REMARK    4  A    between atoms: C_4  and  C_10 
REMARK    5  A    between atoms: C_17  and  C_9 
REMARK    6  A    between atoms: C_10  and  C_17 
ROOT
ATOM      1  C   UNL d   1      32.466  22.208 -20.036  0.00  0.00     0.006 C 
ATOM      2  C   UNL d   1      31.700  22.485 -20.270  0.00  0.00     0.000 C 
ENDROOT
BRANCH   1   3
ATOM      3  C   UNL d   1      32.907  21.786 -20.589  0.00  0.00     0.043 C 
BRANCH   3   4
ATOM      4  C   UNL d   1      32.610  21.599 -21.329  0.00  0.00     0.202 C 
ATOM      5  O   UNL d   1      32.102  22.122 -21.744  0.00  0.00    -0.286 OA
BRANCH   4   6
ATOM      6  C   UNL d   1      32.804  20.882 -21.688  0.00  0.00     0.068 A 
ATOM      7  S   UNL d   1      33.106  20.236 -21.268  0.00  0.00    -0.083 SA
ATOM      8  C   UNL d   1      33.241  19.614 -21.782  0.00  0.00     0.035 A 
ATOM      9  C   UNL d   1      33.019  19.871 -22.542  0.00  0.00     0.008 A 
ATOM     10  C   UNL d   1      32.755  20.645 -22.473  0.00  0.00     0.010 A 
ENDBRANCH   4   6
ENDBRANCH   3   4
ENDBRANCH   1   3
BRANCH   1  11
ATOM     11  C   UNL d   1      32.763  22.352 -19.284  0.00  0.00     0.043 C 
BRANCH  11  12
ATOM     12  C   UNL d   1      32.569  23.077 -18.882  0.00  0.00     0.202 C 
ATOM     13  O   UNL d   1      32.242  23.700 -19.298  0.00  0.00    -0.286 OA
BRANCH  12  14
ATOM     14  C   UNL d   1      32.717  23.142 -18.058  0.00  0.00     0.068 A 
ATOM     15  S   UNL d   1      32.357  23.702 -17.530  0.00  0.00    -0.083 SA
ATOM     16  C   UNL d   1      32.660  23.570 -16.780  0.00  0.00     0.035 A 
ATOM     17  C   UNL d   1      33.202  22.941 -16.825  0.00  0.00     0.008 A 
ATOM     18  C   UNL d   1      33.235  22.686 -17.594  0.00  0.00     0.010 A 
ENDBRANCH  12  14
ENDBRANCH  11  12
ENDBRANCH   1  11
TORSDOF 6
ENDMDL
