MODEL 1
REMARK VINA RESULT:     -11.7      0.000      0.000
REMARK  2 active torsions:
REMARK  status: ('A' for Active; 'I' for Inactive)
REMARK    1  A    between atoms: C_10  and  N_1 
REMARK    2  A    between atoms: C_11  and  C_10 
ROOT
ATOM      1  N   UNL d   1      51.967  33.848  53.189  0.00  0.00    -0.187 N 
ATOM      2  N   UNL d   1      51.990  32.935  52.978  0.00  0.00    -0.162 NA
ATOM      3  C   UNL d   1      52.614  32.384  53.273  0.00  0.00     0.102 A 
ATOM      4  C   UNL d   1      53.133  32.818  53.740  0.00  0.00     0.024 A 
ATOM      5  C   UNL d   1      52.571  34.130  53.677  0.00  0.00     0.281 A 
ATOM      6  C   UNL d   1      53.154  33.615  53.953  0.00  0.00     0.059 A 
ATOM      7  C   UNL d   1      53.721  32.299  54.018  0.00  0.00     0.002 A 
ATOM      8  C   UNL d   1      52.878  31.604  53.262  0.00  0.00     0.019 A 
ATOM      9  C   UNL d   1      53.559  31.549  53.720  0.00  0.00     0.002 A 
ATOM     10  O   UNL d   1      52.586  34.942  53.890  0.00  0.00    -0.265 OA
ATOM     11  C   UNL d   1      53.759  33.902  54.443  0.00  0.00     0.005 A 
ATOM     12  C   UNL d   1      54.322  32.584  54.505  0.00  0.00     0.000 A 
ATOM     13  C   UNL d   1      52.583  30.930  52.890  0.00  0.00     0.002 A 
ATOM     14  C   UNL d   1      53.949  30.826  53.810  0.00  0.00     0.000 A 
ATOM     15  C   UNL d   1      54.347  33.383  54.721  0.00  0.00     0.000 A 
ATOM     16  C   UNL d   1      53.649  30.156  53.436  0.00  0.00     0.000 A 
ATOM     17  C   UNL d   1      52.969  30.202  52.976  0.00  0.00     0.000 A 
ENDROOT
BRANCH   1  18
ATOM     18  C   UNL d   1      51.481  34.502  53.015  0.00  0.00     0.174 C 
BRANCH  18  19
ATOM     19  C   UNL d   1      50.822  34.417  52.518  0.00  0.00     0.231 C 
ATOM     20  O   UNL d   1      50.072  34.523  52.819  0.00  0.00    -0.643 OA
ATOM     21  O   UNL d   1      50.571  34.254  51.768  0.00  0.00    -0.643 OA
ENDBRANCH  18  19
ENDBRANCH   1  18
TORSDOF 2
ENDMDL
MODEL 2
REMARK VINA RESULT:     -11.1      2.016      3.486
REMARK  2 active torsions:
REMARK  status: ('A' for Active; 'I' for Inactive)
REMARK    1  A    between atoms: C_10  and  N_1 
REMARK    2  A    between atoms: C_11  and  C_10 
ROOT
ATOM      1  N   UNL d   1      52.983  31.391  53.302  0.00  0.00    -0.187 N 
ATOM      2  N   UNL d   1      53.595  31.721  53.932  0.00  0.00    -0.162 NA
ATOM      3  C   UNL d   1      53.670  32.576  54.133  0.00  0.00     0.102 A 
ATOM      4  C   UNL d   1      53.124  32.992  53.679  0.00  0.00     0.024 A 
ATOM      5  C   UNL d   1      52.500  31.947  52.929  0.00  0.00     0.281 A 
ATOM      6  C   UNL d   1      52.570  32.748  53.117  0.00  0.00     0.059 A 
ATOM      7  C   UNL d   1      53.194  33.799  53.869  0.00  0.00     0.002 A 
ATOM      8  C   UNL d   1      54.074  33.122  54.599  0.00  0.00     0.019 A 
ATOM      9  C   UNL d   1      53.783  33.874  54.438  0.00  0.00     0.002 A 
ATOM     10  O   UNL d   1      51.939  31.693  52.359  0.00  0.00    -0.265 OA
ATOM     11  C   UNL d   1      52.083  33.304  52.741  0.00  0.00     0.005 A 
ATOM     12  C   UNL d   1      52.711  34.351  53.495  0.00  0.00     0.000 A 
ATOM     13  C   UNL d   1      54.676  33.029  55.155  0.00  0.00     0.002 A 
ATOM     14  C   UNL d   1      54.088  34.536  54.828  0.00  0.00     0.000 A 
ATOM     15  C   UNL d   1      52.154  34.111  52.931  0.00  0.00     0.000 A 
ATOM     16  C   UNL d   1      54.690  34.436  55.383  0.00  0.00     0.000 A 
ATOM     17  C   UNL d   1      54.986  33.689  55.550  0.00  0.00     0.000 A 
ENDROOT
BRANCH   1  18
ATOM     18  C   UNL d   1      52.772  30.649  52.989  0.00  0.00     0.174 C 
BRANCH  18  19
ATOM     19  C   UNL d   1      53.033  29.948  53.350  0.00  0.00     0.231 C 
ATOM     20  O   UNL d   1      52.515  29.326  53.447  0.00  0.00    -0.643 OA
ATOM     21  O   UNL d   1      53.659  29.568  53.689  0.00  0.00    -0.643 OA
ENDBRANCH  18  19
ENDBRANCH   1  18
TORSDOF 2
ENDMDL
MODEL 3
REMARK VINA RESULT:     -10.5      1.454      2.802
REMARK  2 active torsions:
REMARK  status: ('A' for Active; 'I' for Inactive)
REMARK    1  A    between atoms: C_10  and  N_1 
REMARK    2  A    between atoms: C_11  and  C_10 
ROOT
ATOM      1  N   UNL d   1      53.973  33.572  54.525  0.00  0.00    -0.187 N 
ATOM      2  N   UNL d   1      54.080  32.648  54.406  0.00  0.00    -0.162 NA
ATOM      3  C   UNL d   1      53.549  32.159  53.900  0.00  0.00     0.102 A 
ATOM      4  C   UNL d   1      52.978  32.657  53.578  0.00  0.00     0.024 A 
ATOM      5  C   UNL d   1      53.341  33.925  54.126  0.00  0.00     0.281 A 
ATOM      6  C   UNL d   1      52.844  33.467  53.653  0.00  0.00     0.059 A 
ATOM      7  C   UNL d   1      52.476  32.195  53.101  0.00  0.00     0.002 A 
ATOM      8  C   UNL d   1      53.401  31.398  53.623  0.00  0.00     0.019 A 
ATOM      9  C   UNL d   1      52.742  31.417  53.132  0.00  0.00     0.002 A 
ATOM     10  O   UNL d   1      53.210  34.750  54.207  0.00  0.00    -0.265 OA
ATOM     11  C   UNL d   1      52.210  33.825  53.254  0.00  0.00     0.005 A 
ATOM     12  C   UNL d   1      51.847  32.551  52.705  0.00  0.00     0.000 A 
ATOM     13  C   UNL d   1      53.786  30.681  53.758  0.00  0.00     0.002 A 
ATOM     14  C   UNL d   1      52.463  30.727  52.772  0.00  0.00     0.000 A 
ATOM     15  C   UNL d   1      51.709  33.364  52.777  0.00  0.00     0.000 A 
ATOM     16  C   UNL d   1      52.853  30.014  52.911  0.00  0.00     0.000 A 
ATOM     17  C   UNL d   1      53.512  29.985  53.400  0.00  0.00     0.000 A 
ENDROOT
BRANCH   1  18
ATOM     18  C   UNL d   1      54.355  34.181  54.945  0.00  0.00     0.174 C 
BRANCH  18  19
ATOM     19  C   UNL d   1      55.133  34.082  55.218  0.00  0.00     0.231 C 
ATOM     20  O   UNL d   1      55.273  33.993  56.016  0.00  0.00    -0.643 OA
ATOM     21  O   UNL d   1      55.910  34.028  55.007  0.00  0.00    -0.643 OA
ENDBRANCH  18  19
ENDBRANCH   1  18
TORSDOF 2
ENDMDL
MODEL 4
REMARK VINA RESULT:     -10.5      2.054      3.388
REMARK  2 active torsions:
REMARK  status: ('A' for Active; 'I' for Inactive)
REMARK    1  A    between atoms: C_10  and  N_1 
REMARK    2  A    between atoms: C_11  and  C_10 
ROOT
ATOM      1  N   UNL d   1      53.140  31.238  53.409  0.00  0.00    -0.187 N 
ATOM      2  N   UNL d   1      52.364  31.707  53.170  0.00  0.00    -0.162 NA
ATOM      3  C   UNL d   1      52.281  32.581  53.251  0.00  0.00     0.102 A 
ATOM      4  C   UNL d   1      52.984  32.875  53.562  0.00  0.00     0.024 A 
ATOM      5  C   UNL d   1      53.765  31.687  53.710  0.00  0.00     0.281 A 
ATOM      6  C   UNL d   1      53.687  32.505  53.786  0.00  0.00     0.059 A 
ATOM      7  C   UNL d   1      52.905  33.699  53.639  0.00  0.00     0.002 A 
ATOM      8  C   UNL d   1      51.773  33.219  53.137  0.00  0.00     0.019 A 
ATOM      9  C   UNL d   1      52.154  33.907  53.375  0.00  0.00     0.002 A 
ATOM     10  O   UNL d   1      54.478  31.306  53.937  0.00  0.00    -0.265 OA
ATOM     11  C   UNL d   1      54.317  32.953  54.089  0.00  0.00     0.005 A 
ATOM     12  C   UNL d   1      53.531  34.144  53.939  0.00  0.00     0.000 A 
ATOM     13  C   UNL d   1      51.003  33.262  52.844  0.00  0.00     0.002 A 
ATOM     14  C   UNL d   1      51.774  34.640  53.323  0.00  0.00     0.000 A 
ATOM     15  C   UNL d   1      54.238  33.778  54.165  0.00  0.00     0.000 A 
ATOM     16  C   UNL d   1      51.005  34.675  53.029  0.00  0.00     0.000 A 
ATOM     17  C   UNL d   1      50.616  33.993  52.789  0.00  0.00     0.000 A 
ENDROOT
BRANCH   1  18
ATOM     18  C   UNL d   1      53.400  30.447  53.407  0.00  0.00     0.174 C 
BRANCH  18  19
ATOM     19  C   UNL d   1      52.852  29.823  53.398  0.00  0.00     0.231 C 
ATOM     20  O   UNL d   1      52.957  29.186  53.897  0.00  0.00    -0.643 OA
ATOM     21  O   UNL d   1      52.173  29.539  53.067  0.00  0.00    -0.643 OA
ENDBRANCH  18  19
ENDBRANCH   1  18
TORSDOF 2
ENDMDL
MODEL 5
REMARK VINA RESULT:     -10.0      1.986      3.623
REMARK  2 active torsions:
REMARK  status: ('A' for Active; 'I' for Inactive)
REMARK    1  A    between atoms: C_10  and  N_1 
REMARK    2  A    between atoms: C_11  and  C_10 
ROOT
ATOM      1  N   UNL d   1      54.148  33.210  54.255  0.00  0.00    -0.187 N 
ATOM      2  N   UNL d   1      53.451  33.816  54.090  0.00  0.00    -0.162 NA
ATOM      3  C   UNL d   1      52.713  33.600  53.657  0.00  0.00     0.102 A 
ATOM      4  C   UNL d   1      52.768  32.808  53.444  0.00  0.00     0.024 A 
ATOM      5  C   UNL d   1      54.045  32.442  53.970  0.00  0.00     0.281 A 
ATOM      6  C   UNL d   1      53.355  32.240  53.565  0.00  0.00     0.059 A 
ATOM      7  C   UNL d   1      52.072  32.604  53.035  0.00  0.00     0.002 A 
ATOM      8  C   UNL d   1      51.991  33.884  53.383  0.00  0.00     0.019 A 
ATOM      9  C   UNL d   1      51.595  33.274  53.000  0.00  0.00     0.002 A 
ATOM     10  O   UNL d   1      54.646  31.870  54.096  0.00  0.00    -0.265 OA
ATOM     11  C   UNL d   1      53.255  31.468  53.280  0.00  0.00     0.005 A 
ATOM     12  C   UNL d   1      51.973  31.837  52.753  0.00  0.00     0.000 A 
ATOM     13  C   UNL d   1      51.639  34.628  53.433  0.00  0.00     0.002 A 
ATOM     14  C   UNL d   1      50.849  33.399  52.666  0.00  0.00     0.000 A 
ATOM     15  C   UNL d   1      52.559  31.265  52.872  0.00  0.00     0.000 A 
ATOM     16  C   UNL d   1      50.503  34.145  52.720  0.00  0.00     0.000 A 
ATOM     17  C   UNL d   1      50.891  34.761  53.100  0.00  0.00     0.000 A 
ENDROOT
BRANCH   1  18
ATOM     18  C   UNL d   1      54.891  33.224  54.630  0.00  0.00     0.174 C 
BRANCH  18  19
ATOM     19  C   UNL d   1      55.095  33.846  55.142  0.00  0.00     0.231 C 
ATOM     20  O   UNL d   1      55.786  34.260  55.020  0.00  0.00    -0.643 OA
ATOM     21  O   UNL d   1      54.875  34.270  55.792  0.00  0.00    -0.643 OA
ENDBRANCH  18  19
ENDBRANCH   1  18
TORSDOF 2
ENDMDL
MODEL 6
REMARK VINA RESULT:     -10.0      0.809      2.413
REMARK  2 active torsions:
REMARK  status: ('A' for Active; 'I' for Inactive)
REMARK    1  A    between atoms: C_10  and  N_1 
REMARK    2  A    between atoms: C_11  and  C_10 
ROOT
ATOM      1  N   UNL d   1      51.647  33.325  53.187  0.00  0.00    -0.187 N 
ATOM      2  N   UNL d   1      52.216  33.825  53.739  0.00  0.00    -0.162 NA
ATOM      3  C   UNL d   1      52.990  33.525  54.038  0.00  0.00     0.102 A 
ATOM      4  C   UNL d   1      53.095  32.762  53.747  0.00  0.00     0.024 A 
ATOM      5  C   UNL d   1      51.903  32.566  52.984  0.00  0.00     0.281 A 
ATOM      6  C   UNL d   1      52.626  32.285  53.263  0.00  0.00     0.059 A 
ATOM      7  C   UNL d   1      53.824  32.479  54.029  0.00  0.00     0.002 A 
ATOM      8  C   UNL d   1      53.649  33.711  54.495  0.00  0.00     0.019 A 
ATOM      9  C   UNL d   1      54.163  33.069  54.491  0.00  0.00     0.002 A 
ATOM     10  O   UNL d   1      51.422  32.085  52.491  0.00  0.00    -0.265 OA
ATOM     11  C   UNL d   1      52.880  31.523  53.057  0.00  0.00     0.005 A 
ATOM     12  C   UNL d   1      54.076  31.722  53.823  0.00  0.00     0.000 A 
ATOM     13  C   UNL d   1      53.849  34.389  54.919  0.00  0.00     0.002 A 
ATOM     14  C   UNL d   1      54.877  33.098  54.907  0.00  0.00     0.000 A 
ATOM     15  C   UNL d   1      53.610  31.239  53.339  0.00  0.00     0.000 A 
ATOM     16  C   UNL d   1      55.071  33.779  55.329  0.00  0.00     0.000 A 
ATOM     17  C   UNL d   1      54.563  34.425  55.339  0.00  0.00     0.000 A 
ENDROOT
BRANCH   1  18
ATOM     18  C   UNL d   1      50.908  33.430  52.818  0.00  0.00     0.174 C 
BRANCH  18  19
ATOM     19  C   UNL d   1      50.522  34.165  52.847  0.00  0.00     0.231 C 
ATOM     20  O   UNL d   1      50.150  34.453  52.181  0.00  0.00    -0.643 OA
ATOM     21  O   UNL d   1      50.333  34.799  53.310  0.00  0.00    -0.643 OA
ENDBRANCH  18  19
ENDBRANCH   1  18
TORSDOF 2
ENDMDL
