MODEL 1
REMARK VINA RESULT:      62.3      0.000      0.000
REMARK  5 active torsions:
REMARK  status: ('A' for Active; 'I' for Inactive)
REMARK    1  A    between atoms: C_6  and  C_1 
REMARK    2  A    between atoms: C_11  and  N_3 
REMARK    3  A    between atoms: C_14  and  C_11 
REMARK    4  A    between atoms: O_12  and  C_14 
REMARK    5  A    between atoms: C_13  and  O_12 
ROOT
ATOM      1  C   UNL d   1     -55.155-101.121 -43.894  0.00  0.00     0.171 A 
ATOM      2  N   UNL d   1     -55.069-101.559 -43.196  0.00  0.00    -0.225 NA
ATOM      3  N   UNL d   1     -55.077-100.325 -43.675  0.00  0.00    -0.286 N 
ATOM      4  C   UNL d   1     -54.949-100.284 -42.880  0.00  0.00     0.083 A 
ATOM      5  C   UNL d   1     -54.944-101.054 -42.582  0.00  0.00     0.099 A 
ATOM      6  C   UNL d   1     -54.833 -99.644 -42.373  0.00  0.00     0.019 A 
ATOM      7  C   UNL d   1     -54.824-101.155 -41.787  0.00  0.00     0.021 A 
ATOM      8  C   UNL d   1     -54.717 -99.782 -41.592  0.00  0.00     0.002 A 
ATOM      9  C   UNL d   1     -54.713-100.552 -41.293  0.00  0.00     0.002 A 
ENDROOT
BRANCH   3  10
ATOM     10  C   UNL d   1     -55.145 -99.798 -44.290  0.00  0.00     0.108 C 
BRANCH  10  11
ATOM     11  C   UNL d   1     -55.398 -99.031 -44.190  0.00  0.00     0.142 C 
BRANCH  11  12
ATOM     12  O   UNL d   1     -56.155 -98.792 -44.354  0.00  0.00    -0.304 OA
BRANCH  12  13
ATOM     13  C   UNL d   1     -56.916 -98.822 -44.267  0.00  0.00     0.100 A 
ATOM     14  C   UNL d   1     -57.039 -98.758 -45.080  0.00  0.00     0.025 A 
ATOM     15  C   UNL d   1     -57.807 -98.755 -45.382  0.00  0.00     0.002 A 
ATOM     16  C   UNL d   1     -58.456 -98.817 -44.871  0.00  0.00     0.000 A 
ATOM     17  C   UNL d   1     -58.334 -98.881 -44.058  0.00  0.00     0.002 A 
ATOM     18  C   UNL d   1     -57.562 -98.884 -43.756  0.00  0.00     0.025 A 
ENDBRANCH  12  13
ENDBRANCH  11  12
ENDBRANCH  10  11
ENDBRANCH   3  10
BRANCH   1  19
ATOM     19  C   UNL d   1     -55.291-101.416 -44.651  0.00  0.00     0.134 A 
ATOM     20  O   UNL d   1     -55.977-101.767 -44.899  0.00  0.00    -0.302 OA
ATOM     21  C   UNL d   1     -55.880-101.983 -45.699  0.00  0.00     0.123 A 
ATOM     22  C   UNL d   1     -55.119-101.752 -45.925  0.00  0.00     0.029 A 
ATOM     23  C   UNL d   1     -54.758-101.398 -45.262  0.00  0.00     0.030 A 
ENDBRANCH   1  19
TORSDOF 5
ENDMDL
