MODEL 1
REMARK VINA RESULT:      72.8      0.000      0.000
REMARK  6 active torsions:
REMARK  status: ('A' for Active; 'I' for Inactive)
REMARK    1  A    between atoms: C_22  and  C_3 
REMARK    2  A    between atoms: S_17  and  C_5 
REMARK    3  A    between atoms: C_11  and  C_16 
REMARK       I    between atoms: N_14  and  C_11 
REMARK    4  A    between atoms: C_19  and  N_14 
REMARK    5  A    between atoms: C_16  and  C_20 
REMARK    6  A    between atoms: C_20  and  S_17 
ROOT
ATOM      1  C   UNL d   1      59.523  49.703  51.405  0.00  0.00     0.092 A 
ATOM      2  C   UNL d   1      58.172  49.699  50.951  0.00  0.00     0.057 A 
ATOM      3  C   UNL d   1      58.716  49.700  51.569  0.00  0.00     0.016 A 
ATOM      4  N   UNL d   1      59.242  49.702  50.005  0.00  0.00    -0.239 NA
ATOM      5  C   UNL d   1      59.786  49.704  50.623  0.00  0.00     0.120 A 
ATOM      6  C   UNL d   1      58.435  49.700  50.169  0.00  0.00     0.081 A 
ATOM      7  C   UNL d   1      57.365  49.696  51.115  0.00  0.00     0.193 A 
ATOM      8  C   UNL d   1      60.077  49.704  52.031  0.00  0.00     0.103 C 
ATOM      9  N   UNL d   1      60.621  49.705  52.662  0.00  0.00    -0.191 NA
ATOM     10  C   UNL d   1      57.077  49.696  49.712  0.00  0.00     0.042 A 
ATOM     11  C   UNL d   1      56.814  49.695  50.494  0.00  0.00     0.019 A 
ATOM     12  C   UNL d   1      57.891  49.699  49.551  0.00  0.00    -0.003 A 
ATOM     13  O   UNL d   1      57.103  49.695  51.896  0.00  0.00    -0.287 OA
ATOM     14  C   UNL d   1      57.062  49.696  48.881  0.00  0.00     0.009 C 
ATOM     15  C   UNL d   1      56.268  49.694  49.867  0.00  0.00     0.009 C 
ENDROOT
BRANCH   3  16
ATOM     16  C   UNL d   1      58.454  49.699  52.350  0.00  0.00     0.001 C 
ATOM     17  C   UNL d   1      58.912  49.350  52.940  0.00  0.00     0.000 C 
ENDBRANCH   3  16
BRANCH   5  18
ATOM     18  S   UNL d   1      60.604  49.706  50.463  0.00  0.00    -0.067 SA
BRANCH  18  19
ATOM     19  C   UNL d   1      60.892  49.369  49.767  0.00  0.00     0.042 C 
BRANCH  19  20
ATOM     20  C   UNL d   1      61.603  48.948  49.777  0.00  0.00     0.070 C 
BRANCH  20  21
ATOM     21  C   UNL d   1      61.590  48.118  49.882  0.00  0.00     0.280 C 
ATOM     22  N   UNL d   1      61.772  47.624  49.244  0.00  0.00    -0.208 NA
ATOM     23  O   UNL d   1      61.395  47.803  50.619  0.00  0.00    -0.265 OA
BRANCH  22  24
ATOM     24  C   UNL d   1      61.759  46.793  49.349  0.00  0.00     0.085 A 
ATOM     25  C   UNL d   1      61.326  46.471  49.970  0.00  0.00     0.021 A 
ATOM     26  C   UNL d   1      61.308  45.655  50.079  0.00  0.00     0.031 A 
ATOM     27  C   UNL d   1      61.725  45.161  49.565  0.00  0.00     0.140 A 
ATOM     28  C   UNL d   1      62.161  45.490  48.939  0.00  0.00     0.031 A 
ATOM     29  F   UNL d   1      61.713  44.335  49.668  0.00  0.00    -0.204 F 
ATOM     30  C   UNL d   1      62.178  46.306  48.832  0.00  0.00     0.021 A 
ENDBRANCH  22  24
ENDBRANCH  20  21
ENDBRANCH  19  20
ENDBRANCH  18  19
ENDBRANCH   5  18
TORSDOF 6
ENDMDL
