MODEL 1
REMARK VINA RESULT:      -6.9      0.000      0.000
REMARK  9 active torsions:
REMARK  status: ('A' for Active; 'I' for Inactive)
REMARK    1  A    between atoms: N_4  and  C_1 
REMARK       I    between atoms: C_7  and  N_4 
REMARK    2  A    between atoms: C_13  and  C_7 
REMARK    3  A    between atoms: C_8  and  C_14 
REMARK    4  A    between atoms: O_12  and  C_8 
REMARK    5  A    between atoms: S_11  and  C_13 
REMARK    6  A    between atoms: C_14  and  S_11 
REMARK    7  A    between atoms: C_16  and  O_12 
REMARK    8  A    between atoms: C_17  and  C_16 
REMARK    9  A    between atoms: C_18  and  C_17 
ROOT
ATOM      1  C   UNL d   1      52.640  32.883  53.337  0.00  0.00     0.127 C 
ENDROOT
BRANCH   1   2
ATOM      2  S   UNL d   1      51.991  33.156  52.905  0.00  0.00    -0.089 SA
BRANCH   2   3
ATOM      3  C   UNL d   1      51.601  33.844  53.138  0.00  0.00     0.103 C 
BRANCH   3   4
ATOM      4  C   UNL d   1      50.984  34.143  52.685  0.00  0.00     0.307 C 
ATOM      5  O   UNL d   1      51.091  34.284  51.885  0.00  0.00    -0.258 OA
BRANCH   4   6
ATOM      6  O   UNL d   1      50.264  34.299  53.039  0.00  0.00    -0.271 OA
BRANCH   6   7
ATOM      7  C   UNL d   1      49.755  34.863  52.718  0.00  0.00     0.126 C 
BRANCH   7   8
ATOM      8  C   UNL d   1      49.156  35.190  53.182  0.00  0.00     0.027 C 
BRANCH   8   9
ATOM      9  C   UNL d   1      48.516  35.568  52.823  0.00  0.00     0.002 C 
ATOM     10  C   UNL d   1      48.039  36.069  53.251  0.00  0.00     0.000 C 
ENDBRANCH   8   9
ENDBRANCH   7   8
ENDBRANCH   6   7
ENDBRANCH   4   6
ENDBRANCH   3   4
ENDBRANCH   2   3
ENDBRANCH   1   2
BRANCH   1  11
ATOM     11  C   UNL d   1      53.040  32.203  53.096  0.00  0.00     0.275 C 
ATOM     12  N   UNL d   1      53.709  31.961  53.501  0.00  0.00    -0.187 NA
ATOM     13  O   UNL d   1      52.766  31.770  52.450  0.00  0.00    -0.266 OA
BRANCH  12  14
ATOM     14  C   UNL d   1      53.983  32.394  54.147  0.00  0.00     0.194 A 
ATOM     15  N   UNL d   1      53.715  32.322  54.924  0.00  0.00    -0.107 NA
ATOM     16  O   UNL d   1      54.140  32.858  55.384  0.00  0.00    -0.210 OA
ATOM     17  C   UNL d   1      54.665  33.261  54.909  0.00  0.00     0.128 A 
ATOM     18  C   UNL d   1      54.572  32.977  54.138  0.00  0.00     0.068 A 
ATOM     19  C   UNL d   1      55.197  33.851  55.160  0.00  0.00     0.029 C 
ENDBRANCH  12  14
ENDBRANCH   1  11
TORSDOF 9
ENDMDL
MODEL 2
REMARK VINA RESULT:      -6.1      1.305      2.021
REMARK  9 active torsions:
REMARK  status: ('A' for Active; 'I' for Inactive)
REMARK    1  A    between atoms: N_4  and  C_1 
REMARK       I    between atoms: C_7  and  N_4 
REMARK    2  A    between atoms: C_13  and  C_7 
REMARK    3  A    between atoms: C_8  and  C_14 
REMARK    4  A    between atoms: O_12  and  C_8 
REMARK    5  A    between atoms: S_11  and  C_13 
REMARK    6  A    between atoms: C_14  and  S_11 
REMARK    7  A    between atoms: C_16  and  O_12 
REMARK    8  A    between atoms: C_17  and  C_16 
REMARK    9  A    between atoms: C_18  and  C_17 
ROOT
ATOM      1  C   UNL d   1      52.158  33.277  53.205  0.00  0.00     0.127 C 
ENDROOT
BRANCH   1   2
ATOM      2  S   UNL d   1      51.647  33.913  53.078  0.00  0.00    -0.089 SA
BRANCH   2   3
ATOM      3  C   UNL d   1      50.831  33.804  53.136  0.00  0.00     0.103 C 
BRANCH   3   4
ATOM      4  C   UNL d   1      50.318  34.302  52.732  0.00  0.00     0.307 C 
ATOM      5  O   UNL d   1      50.287  34.287  51.913  0.00  0.00    -0.258 OA
BRANCH   4   6
ATOM      6  O   UNL d   1      49.839  34.814  53.154  0.00  0.00    -0.271 OA
BRANCH   6   7
ATOM      7  C   UNL d   1      49.151  35.116  52.814  0.00  0.00     0.126 C 
BRANCH   7   8
ATOM      8  C   UNL d   1      48.658  35.612  53.252  0.00  0.00     0.027 C 
BRANCH   8   9
ATOM      9  C   UNL d   1      48.023  35.990  52.886  0.00  0.00     0.002 C 
ATOM     10  C   UNL d   1      47.505  36.442  53.321  0.00  0.00     0.000 C 
ENDBRANCH   8   9
ENDBRANCH   7   8
ENDBRANCH   6   7
ENDBRANCH   4   6
ENDBRANCH   3   4
ENDBRANCH   2   3
ENDBRANCH   1   2
BRANCH   1  11
ATOM     11  C   UNL d   1      52.946  33.413  53.409  0.00  0.00     0.275 C 
ATOM     12  N   UNL d   1      53.482  32.797  53.390  0.00  0.00    -0.187 NA
ATOM     13  O   UNL d   1      53.189  34.170  53.630  0.00  0.00    -0.266 OA
BRANCH  12  14
ATOM     14  C   UNL d   1      53.239  32.040  53.169  0.00  0.00     0.194 A 
ATOM     15  N   UNL d   1      52.904  31.834  52.445  0.00  0.00    -0.107 NA
ATOM     16  O   UNL d   1      52.747  31.026  52.463  0.00  0.00    -0.210 OA
ATOM     17  C   UNL d   1      52.979  30.725  53.185  0.00  0.00     0.128 A 
ATOM     18  C   UNL d   1      53.285  31.351  53.628  0.00  0.00     0.068 A 
ATOM     19  C   UNL d   1      52.915  29.930  53.426  0.00  0.00     0.029 C 
ENDBRANCH  12  14
ENDBRANCH   1  11
TORSDOF 9
ENDMDL
MODEL 3
REMARK VINA RESULT:      -6.1      2.235      4.092
REMARK  9 active torsions:
REMARK  status: ('A' for Active; 'I' for Inactive)
REMARK    1  A    between atoms: N_4  and  C_1 
REMARK       I    between atoms: C_7  and  N_4 
REMARK    2  A    between atoms: C_13  and  C_7 
REMARK    3  A    between atoms: C_8  and  C_14 
REMARK    4  A    between atoms: O_12  and  C_8 
REMARK    5  A    between atoms: S_11  and  C_13 
REMARK    6  A    between atoms: C_14  and  S_11 
REMARK    7  A    between atoms: C_16  and  O_12 
REMARK    8  A    between atoms: C_17  and  C_16 
REMARK    9  A    between atoms: C_18  and  C_17 
ROOT
ATOM      1  C   UNL d   1      52.570  33.446  53.478  0.00  0.00     0.127 C 
ENDROOT
BRANCH   1   2
ATOM      2  S   UNL d   1      52.377  32.853  52.937  0.00  0.00    -0.089 SA
BRANCH   2   3
ATOM      3  C   UNL d   1      52.200  32.093  53.205  0.00  0.00     0.103 C 
BRANCH   3   4
ATOM      4  C   UNL d   1      52.638  31.450  52.940  0.00  0.00     0.307 C 
ATOM      5  O   UNL d   1      52.674  31.276  52.140  0.00  0.00    -0.258 OA
BRANCH   4   6
ATOM      6  O   UNL d   1      53.038  30.985  53.482  0.00  0.00    -0.271 OA
BRANCH   6   7
ATOM      7  C   UNL d   1      52.979  30.163  53.449  0.00  0.00     0.126 C 
BRANCH   7   8
ATOM      8  C   UNL d   1      53.444  29.696  53.946  0.00  0.00     0.027 C 
BRANCH   8   9
ATOM      9  C   UNL d   1      53.111  29.048  54.333  0.00  0.00     0.002 C 
ATOM     10  C   UNL d   1      53.565  28.579  54.818  0.00  0.00     0.000 C 
ENDBRANCH   8   9
ENDBRANCH   7   8
ENDBRANCH   6   7
ENDBRANCH   4   6
ENDBRANCH   3   4
ENDBRANCH   2   3
ENDBRANCH   1   2
BRANCH   1  11
ATOM     11  C   UNL d   1      52.524  34.239  53.255  0.00  0.00     0.275 C 
ATOM     12  N   UNL d   1      52.954  34.801  53.665  0.00  0.00    -0.187 NA
ATOM     13  O   UNL d   1      52.046  34.463  52.621  0.00  0.00    -0.266 OA
BRANCH  12  14
ATOM     14  C   UNL d   1      53.433  34.577  54.299  0.00  0.00     0.194 A 
ATOM     15  N   UNL d   1      53.220  34.602  55.096  0.00  0.00    -0.107 NA
ATOM     16  O   UNL d   1      53.863  34.330  55.534  0.00  0.00    -0.210 OA
ATOM     17  C   UNL d   1      54.470  34.137  55.026  0.00  0.00     0.128 A 
ATOM     18  C   UNL d   1      54.208  34.288  54.256  0.00  0.00     0.068 A 
ATOM     19  C   UNL d   1      55.217  33.841  55.247  0.00  0.00     0.029 C 
ENDBRANCH  12  14
ENDBRANCH   1  11
TORSDOF 9
ENDMDL
MODEL 4
REMARK VINA RESULT:      -6.0      1.973      4.624
REMARK  9 active torsions:
REMARK  status: ('A' for Active; 'I' for Inactive)
REMARK    1  A    between atoms: N_4  and  C_1 
REMARK       I    between atoms: C_7  and  N_4 
REMARK    2  A    between atoms: C_13  and  C_7 
REMARK    3  A    between atoms: C_8  and  C_14 
REMARK    4  A    between atoms: O_12  and  C_8 
REMARK    5  A    between atoms: S_11  and  C_13 
REMARK    6  A    between atoms: C_14  and  S_11 
REMARK    7  A    between atoms: C_16  and  O_12 
REMARK    8  A    between atoms: C_17  and  C_16 
REMARK    9  A    between atoms: C_18  and  C_17 
ROOT
ATOM      1  C   UNL d   1      53.349  34.325  54.215  0.00  0.00     0.127 C 
ENDROOT
BRANCH   1   2
ATOM      2  S   UNL d   1      53.797  33.912  54.772  0.00  0.00    -0.089 SA
BRANCH   2   3
ATOM      3  C   UNL d   1      54.321  33.325  54.525  0.00  0.00     0.103 C 
BRANCH   3   4
ATOM      4  C   UNL d   1      54.149  32.534  54.662  0.00  0.00     0.307 C 
ATOM      5  O   UNL d   1      53.995  32.271  55.424  0.00  0.00    -0.258 OA
BRANCH   4   6
ATOM      6  O   UNL d   1      54.132  32.011  54.034  0.00  0.00    -0.271 OA
BRANCH   6   7
ATOM      7  C   UNL d   1      53.629  31.357  54.049  0.00  0.00     0.126 C 
BRANCH   7   8
ATOM      8  C   UNL d   1      53.644  30.811  53.430  0.00  0.00     0.027 C 
BRANCH   8   9
ATOM      9  C   UNL d   1      52.941  30.468  53.166  0.00  0.00     0.002 C 
ATOM     10  C   UNL d   1      52.807  29.672  53.265  0.00  0.00     0.000 C 
ENDBRANCH   8   9
ENDBRANCH   7   8
ENDBRANCH   6   7
ENDBRANCH   4   6
ENDBRANCH   3   4
ENDBRANCH   2   3
ENDBRANCH   1   2
BRANCH   1  11
ATOM     11  C   UNL d   1      53.046  35.071  54.398  0.00  0.00     0.275 C 
ATOM     12  N   UNL d   1      52.413  35.367  53.974  0.00  0.00    -0.187 NA
ATOM     13  O   UNL d   1      53.381  35.513  55.008  0.00  0.00    -0.266 OA
BRANCH  12  14
ATOM     14  C   UNL d   1      52.077  34.925  53.364  0.00  0.00     0.194 A 
ATOM     15  N   UNL d   1      52.419  34.782  52.628  0.00  0.00    -0.107 NA
ATOM     16  O   UNL d   1      51.894  34.317  52.195  0.00  0.00    -0.210 OA
ATOM     17  C   UNL d   1      51.233  34.168  52.648  0.00  0.00     0.128 A 
ATOM     18  C   UNL d   1      51.341  34.544  53.376  0.00  0.00     0.068 A 
ATOM     19  C   UNL d   1      50.571  33.719  52.414  0.00  0.00     0.029 C 
ENDBRANCH  12  14
ENDBRANCH   1  11
TORSDOF 9
ENDMDL
MODEL 5
REMARK VINA RESULT:      -6.0      2.106      5.013
REMARK  9 active torsions:
REMARK  status: ('A' for Active; 'I' for Inactive)
REMARK    1  A    between atoms: N_4  and  C_1 
REMARK       I    between atoms: C_7  and  N_4 
REMARK    2  A    between atoms: C_13  and  C_7 
REMARK    3  A    between atoms: C_8  and  C_14 
REMARK    4  A    between atoms: O_12  and  C_8 
REMARK    5  A    between atoms: S_11  and  C_13 
REMARK    6  A    between atoms: C_14  and  S_11 
REMARK    7  A    between atoms: C_16  and  O_12 
REMARK    8  A    between atoms: C_17  and  C_16 
REMARK    9  A    between atoms: C_18  and  C_17 
ROOT
ATOM      1  C   UNL d   1      52.567  33.043  53.031  0.00  0.00     0.127 C 
ENDROOT
BRANCH   1   2
ATOM      2  S   UNL d   1      53.017  32.357  53.117  0.00  0.00    -0.089 SA
BRANCH   2   3
ATOM      3  C   UNL d   1      52.644  31.630  53.230  0.00  0.00     0.103 C 
BRANCH   3   4
ATOM      4  C   UNL d   1      53.007  30.936  52.984  0.00  0.00     0.307 C 
ATOM      5  O   UNL d   1      52.958  30.700  52.201  0.00  0.00    -0.258 OA
BRANCH   4   6
ATOM      6  O   UNL d   1      53.419  30.483  53.527  0.00  0.00    -0.271 OA
BRANCH   6   7
ATOM      7  C   UNL d   1      53.153  29.728  53.725  0.00  0.00     0.126 C 
BRANCH   7   8
ATOM      8  C   UNL d   1      53.583  29.267  54.258  0.00  0.00     0.027 C 
BRANCH   8   9
ATOM      9  C   UNL d   1      53.188  28.817  54.825  0.00  0.00     0.002 C 
ATOM     10  C   UNL d   1      53.580  28.234  55.236  0.00  0.00     0.000 C 
ENDBRANCH   8   9
ENDBRANCH   7   8
ENDBRANCH   6   7
ENDBRANCH   4   6
ENDBRANCH   3   4
ENDBRANCH   2   3
ENDBRANCH   1   2
BRANCH   1  11
ATOM     11  C   UNL d   1      52.869  33.770  53.278  0.00  0.00     0.275 C 
ATOM     12  N   UNL d   1      52.445  34.455  53.138  0.00  0.00    -0.187 NA
ATOM     13  O   UNL d   1      53.597  33.804  53.666  0.00  0.00    -0.266 OA
BRANCH  12  14
ATOM     14  C   UNL d   1      51.718  34.421  52.750  0.00  0.00     0.194 A 
ATOM     15  N   UNL d   1      51.607  34.288  51.944  0.00  0.00    -0.107 NA
ATOM     16  O   UNL d   1      50.796  34.300  51.799  0.00  0.00    -0.210 OA
ATOM     17  C   UNL d   1      50.401  34.438  52.498  0.00  0.00     0.128 A 
ATOM     18  C   UNL d   1      50.969  34.515  53.094  0.00  0.00     0.068 A 
ATOM     19  C   UNL d   1      49.575  34.492  52.591  0.00  0.00     0.029 C 
ENDBRANCH  12  14
ENDBRANCH   1  11
TORSDOF 9
ENDMDL
MODEL 6
REMARK VINA RESULT:      -4.1      9.574     10.504
REMARK  9 active torsions:
REMARK  status: ('A' for Active; 'I' for Inactive)
REMARK    1  A    between atoms: N_4  and  C_1 
REMARK       I    between atoms: C_7  and  N_4 
REMARK    2  A    between atoms: C_13  and  C_7 
REMARK    3  A    between atoms: C_8  and  C_14 
REMARK    4  A    between atoms: O_12  and  C_8 
REMARK    5  A    between atoms: S_11  and  C_13 
REMARK    6  A    between atoms: C_14  and  S_11 
REMARK    7  A    between atoms: C_16  and  O_12 
REMARK    8  A    between atoms: C_17  and  C_16 
REMARK    9  A    between atoms: C_18  and  C_17 
ROOT
ATOM      1  C   UNL d   1      44.896  29.309  57.484  0.00  0.00     0.127 C 
ENDROOT
BRANCH   1   2
ATOM      2  S   UNL d   1      45.029  28.677  56.971  0.00  0.00    -0.089 SA
BRANCH   2   3
ATOM      3  C   UNL d   1      44.792  27.916  57.185  0.00  0.00     0.103 C 
BRANCH   3   4
ATOM      4  C   UNL d   1      45.128  27.261  56.821  0.00  0.00     0.307 C 
ATOM      5  O   UNL d   1      45.943  27.169  56.809  0.00  0.00    -0.258 OA
BRANCH   4   6
ATOM      6  O   UNL d   1      44.645  26.702  56.471  0.00  0.00    -0.271 OA
BRANCH   6   7
ATOM      7  C   UNL d   1      44.935  25.950  56.296  0.00  0.00     0.126 C 
BRANCH   7   8
ATOM      8  C   UNL d   1      44.424  25.365  56.017  0.00  0.00     0.027 C 
BRANCH   8   9
ATOM      9  C   UNL d   1      44.721  24.739  55.569  0.00  0.00     0.002 C 
ATOM     10  C   UNL d   1      44.318  24.033  55.528  0.00  0.00     0.000 C 
ENDBRANCH   8   9
ENDBRANCH   7   8
ENDBRANCH   6   7
ENDBRANCH   4   6
ENDBRANCH   3   4
ENDBRANCH   2   3
ENDBRANCH   1   2
BRANCH   1  11
ATOM     11  C   UNL d   1      44.767  30.066  57.183  0.00  0.00     0.275 C 
ATOM     12  N   UNL d   1      44.784  30.711  57.685  0.00  0.00    -0.187 NA
ATOM     13  O   UNL d   1      44.620  30.170  56.378  0.00  0.00    -0.266 OA
BRANCH  12  14
ATOM     14  C   UNL d   1      44.931  30.608  58.490  0.00  0.00     0.194 A 
ATOM     15  N   UNL d   1      45.635  30.334  58.820  0.00  0.00    -0.107 NA
ATOM     16  O   UNL d   1      45.537  30.318  59.638  0.00  0.00    -0.210 OA
ATOM     17  C   UNL d   1      44.787  30.576  59.823  0.00  0.00     0.128 A 
ATOM     18  C   UNL d   1      44.405  30.758  59.113  0.00  0.00     0.068 A 
ATOM     19  C   UNL d   1      44.467  30.642  60.589  0.00  0.00     0.029 C 
ENDBRANCH  12  14
ENDBRANCH   1  11
TORSDOF 9
ENDMDL
MODEL 7
REMARK VINA RESULT:      -3.9      9.933     10.692
REMARK  9 active torsions:
REMARK  status: ('A' for Active; 'I' for Inactive)
REMARK    1  A    between atoms: N_4  and  C_1 
REMARK       I    between atoms: C_7  and  N_4 
REMARK    2  A    between atoms: C_13  and  C_7 
REMARK    3  A    between atoms: C_8  and  C_14 
REMARK    4  A    between atoms: O_12  and  C_8 
REMARK    5  A    between atoms: S_11  and  C_13 
REMARK    6  A    between atoms: C_14  and  S_11 
REMARK    7  A    between atoms: C_16  and  O_12 
REMARK    8  A    between atoms: C_17  and  C_16 
REMARK    9  A    between atoms: C_18  and  C_17 
ROOT
ATOM      1  C   UNL d   1      44.985  29.119  58.133  0.00  0.00     0.127 C 
ENDROOT
BRANCH   1   2
ATOM      2  S   UNL d   1      44.747  29.849  58.437  0.00  0.00    -0.089 SA
BRANCH   2   3
ATOM      3  C   UNL d   1      45.045  30.110  59.161  0.00  0.00     0.103 C 
BRANCH   3   4
ATOM      4  C   UNL d   1      44.652  30.696  59.581  0.00  0.00     0.307 C 
ATOM      5  O   UNL d   1      44.594  31.455  59.275  0.00  0.00    -0.258 OA
BRANCH   4   6
ATOM      6  O   UNL d   1      44.320  30.517  60.307  0.00  0.00    -0.271 OA
BRANCH   6   7
ATOM      7  C   UNL d   1      44.568  30.912  60.988  0.00  0.00     0.126 C 
BRANCH   7   8
ATOM      8  C   UNL d   1      44.486  30.553  61.726  0.00  0.00     0.027 C 
BRANCH   8   9
ATOM      9  C   UNL d   1      44.316  31.011  62.390  0.00  0.00     0.002 C 
ATOM     10  C   UNL d   1      44.468  30.726  63.138  0.00  0.00     0.000 C 
ENDBRANCH   8   9
ENDBRANCH   7   8
ENDBRANCH   6   7
ENDBRANCH   4   6
ENDBRANCH   3   4
ENDBRANCH   2   3
ENDBRANCH   1   2
BRANCH   1  11
ATOM     11  C   UNL d   1      45.080  29.022  57.319  0.00  0.00     0.275 C 
ATOM     12  N   UNL d   1      45.195  28.273  57.011  0.00  0.00    -0.187 NA
ATOM     13  O   UNL d   1      45.060  29.678  56.820  0.00  0.00    -0.266 OA
BRANCH  12  14
ATOM     14  C   UNL d   1      45.216  27.617  57.510  0.00  0.00     0.194 A 
ATOM     15  N   UNL d   1      45.767  27.483  58.108  0.00  0.00    -0.107 NA
ATOM     16  O   UNL d   1      45.579  26.764  58.464  0.00  0.00    -0.210 OA
ATOM     17  C   UNL d   1      44.923  26.448  58.098  0.00  0.00     0.128 A 
ATOM     18  C   UNL d   1      44.692  26.974  57.504  0.00  0.00     0.068 A 
ATOM     19  C   UNL d   1      44.555  25.726  58.292  0.00  0.00     0.029 C 
ENDBRANCH  12  14
ENDBRANCH   1  11
TORSDOF 9
ENDMDL
