MODEL 1
REMARK VINA RESULT:      32.5      0.000      0.000
REMARK  4 active torsions:
REMARK  status: ('A' for Active; 'I' for Inactive)
REMARK    1  A    between atoms: C_5  and  N_1 
REMARK    2  A    between atoms: C_7  and  C_5 
REMARK    3  A    between atoms: O_14  and  C_10 
REMARK    4  A    between atoms: C_17  and  O_14 
ROOT
ATOM      1  N   UNL d   1      58.848  49.667  50.331  0.00  0.00    -0.251 N 
ATOM      2  C   UNL d   1      59.164  49.638  49.566  0.00  0.00     0.378 A 
ATOM      3  C   UNL d   1      59.475  49.650  50.870  0.00  0.00     0.092 A 
ATOM      4  O   UNL d   1      59.988  49.602  49.634  0.00  0.00    -0.258 OA
ATOM      5  C   UNL d   1      60.178  49.609  50.439  0.00  0.00     0.121 A 
ATOM      6  O   UNL d   1      58.739  49.642  48.861  0.00  0.00    -0.237 OA
ATOM      7  C   UNL d   1      59.487  49.666  51.690  0.00  0.00     0.020 A 
ATOM      8  C   UNL d   1      60.900  49.585  50.845  0.00  0.00     0.026 A 
ATOM      9  C   UNL d   1      60.204  49.642  52.089  0.00  0.00     0.002 A 
ATOM     10  C   UNL d   1      60.912  49.601  51.666  0.00  0.00     0.002 A 
ATOM     11  C   UNL d   1      60.218  49.658  52.913  0.00  0.00     0.000 C 
ENDROOT
BRANCH   1  12
ATOM     12  C   UNL d   1      58.056  49.707  50.557  0.00  0.00     0.087 C 
BRANCH  12  13
ATOM     13  C   UNL d   1      57.469  49.364  50.087  0.00  0.00     0.041 A 
ATOM     14  C   UNL d   1      56.700  49.337  50.347  0.00  0.00     0.102 A 
ATOM     15  C   UNL d   1      56.121  48.997  49.880  0.00  0.00     0.025 A 
ATOM     16  C   UNL d   1      56.314  48.681  49.146  0.00  0.00     0.002 A 
ATOM     17  C   UNL d   1      57.096  48.709  48.882  0.00  0.00     0.000 A 
ATOM     18  C   UNL d   1      57.676  49.053  49.357  0.00  0.00     0.004 A 
BRANCH  14  19
ATOM     19  O   UNL d   1      56.498  49.653  51.085  0.00  0.00    -0.305 OA
BRANCH  19  20
ATOM     20  C   UNL d   1      56.154  49.171  51.661  0.00  0.00     0.123 C 
ATOM     21  C   UNL d   1      56.034  49.461  52.426  0.00  0.00     0.029 C 
ENDBRANCH  19  20
ENDBRANCH  14  19
ENDBRANCH  12  13
ENDBRANCH   1  12
TORSDOF 4
ENDMDL
