MODEL 1
REMARK VINA RESULT:      14.0      0.000      0.000
REMARK  4 active torsions:
REMARK  status: ('A' for Active; 'I' for Inactive)
REMARK    1  A    between atoms: C_8  and  N_1 
REMARK    2  A    between atoms: C_6  and  C_5 
REMARK    3  A    between atoms: C_7  and  C_6 
REMARK       I    between atoms: N_10  and  C_7 
REMARK    4  A    between atoms: C_13  and  N_10 
ROOT
ATOM      1  N   UNL d   1      45.465 -13.907  44.140  0.00  0.00    -0.236 N 
ATOM      2  C   UNL d   1      46.152 -13.860  44.594  0.00  0.00     0.298 A 
ATOM      3  C   UNL d   1      45.155 -14.659  44.218  0.00  0.00     0.274 A 
ATOM      4  S   UNL d   1      46.263 -14.595  44.955  0.00  0.00    -0.022 SA
ATOM      5  C   UNL d   1      45.645 -15.091  44.722  0.00  0.00     0.095 A 
ATOM      6  O   UNL d   1      46.644 -13.202  44.678  0.00  0.00    -0.259 OA
ATOM      7  O   UNL d   1      44.471 -14.944  43.858  0.00  0.00    -0.266 OA
ENDROOT
BRANCH   5   8
ATOM      8  C   UNL d   1      45.540 -15.877  44.954  0.00  0.00     0.074 C 
BRANCH   8   9
ATOM      9  C   UNL d   1      45.837 -16.481  44.488  0.00  0.00     0.280 C 
ATOM     10  N   UNL d   1      45.748 -17.267  44.724  0.00  0.00    -0.208 NA
ATOM     11  O   UNL d   1      46.227 -16.304  43.782  0.00  0.00    -0.265 OA
BRANCH  10  12
ATOM     12  C   UNL d   1      46.047 -17.877  44.257  0.00  0.00     0.085 A 
ATOM     13  C   UNL d   1      46.088 -17.789  43.437  0.00  0.00     0.019 A 
ATOM     14  C   UNL d   1      46.388 -18.401  42.969  0.00  0.00     0.002 A 
ATOM     15  C   UNL d   1      46.646 -19.102  43.315  0.00  0.00     0.000 A 
ATOM     16  C   UNL d   1      46.600 -19.181  44.147  0.00  0.00     0.002 A 
ATOM     17  C   UNL d   1      46.305 -18.576  44.603  0.00  0.00     0.019 A 
ENDBRANCH  10  12
ENDBRANCH   8   9
ENDBRANCH   5   8
BRANCH   1  18
ATOM     18  C   UNL d   1      45.144 -13.298  43.685  0.00  0.00     0.070 A 
ATOM     19  C   UNL d   1      45.637 -12.821  43.222  0.00  0.00     0.018 A 
ATOM     20  C   UNL d   1      45.310 -12.215  42.769  0.00  0.00     0.002 A 
ATOM     21  C   UNL d   1      44.502 -12.083  42.773  0.00  0.00     0.000 A 
ATOM     22  C   UNL d   1      44.006 -12.561  43.237  0.00  0.00     0.002 A 
ATOM     23  C   UNL d   1      44.330 -13.167  43.691  0.00  0.00     0.018 A 
ENDBRANCH   1  18
TORSDOF 4
ENDMDL
MODEL 2
REMARK VINA RESULT:      14.2      1.147      5.047
REMARK  4 active torsions:
REMARK  status: ('A' for Active; 'I' for Inactive)
REMARK    1  A    between atoms: C_8  and  N_1 
REMARK    2  A    between atoms: C_6  and  C_5 
REMARK    3  A    between atoms: C_7  and  C_6 
REMARK       I    between atoms: N_10  and  C_7 
REMARK    4  A    between atoms: C_13  and  N_10 
ROOT
ATOM      1  N   UNL d   1      46.265 -17.927  43.561  0.00  0.00    -0.236 N 
ATOM      2  C   UNL d   1      46.383 -17.309  43.028  0.00  0.00     0.298 A 
ATOM      3  C   UNL d   1      46.009 -17.612  44.271  0.00  0.00     0.274 A 
ATOM      4  S   UNL d   1      46.196 -16.604  43.419  0.00  0.00    -0.022 SA
ATOM      5  C   UNL d   1      45.964 -16.792  44.189  0.00  0.00     0.095 A 
ATOM      6  O   UNL d   1      46.640 -17.373  42.246  0.00  0.00    -0.259 OA
ATOM      7  O   UNL d   1      45.826 -18.034  44.954  0.00  0.00    -0.266 OA
ENDROOT
BRANCH   5   8
ATOM      8  C   UNL d   1      45.730 -16.254  44.770  0.00  0.00     0.074 C 
BRANCH   8   9
ATOM      9  C   UNL d   1      45.837 -15.451  44.647  0.00  0.00     0.280 C 
ATOM     10  N   UNL d   1      45.185 -14.948  44.612  0.00  0.00    -0.208 NA
ATOM     11  O   UNL d   1      46.599 -15.145  44.559  0.00  0.00    -0.265 OA
BRANCH  10  12
ATOM     12  C   UNL d   1      45.289 -14.139  44.488  0.00  0.00     0.085 A 
ATOM     13  C   UNL d   1      45.827 -13.717  44.949  0.00  0.00     0.019 A 
ATOM     14  C   UNL d   1      45.932 -12.906  44.825  0.00  0.00     0.002 A 
ATOM     15  C   UNL d   1      45.502 -12.514  44.242  0.00  0.00     0.000 A 
ATOM     16  C   UNL d   1      44.960 -12.952  43.780  0.00  0.00     0.002 A 
ATOM     17  C   UNL d   1      44.860 -13.750  43.906  0.00  0.00     0.019 A 
ENDBRANCH  10  12
ENDBRANCH   8   9
ENDBRANCH   5   8
BRANCH   1  18
ATOM     18  C   UNL d   1      46.385 -18.728  43.405  0.00  0.00     0.070 A 
ATOM     19  C   UNL d   1      46.492 -19.261  44.029  0.00  0.00     0.018 A 
ATOM     20  C   UNL d   1      46.611 -20.060  43.868  0.00  0.00     0.002 A 
ATOM     21  C   UNL d   1      46.625 -20.330  43.095  0.00  0.00     0.000 A 
ATOM     22  C   UNL d   1      46.518 -19.796  42.467  0.00  0.00     0.002 A 
ATOM     23  C   UNL d   1      46.398 -18.998  42.625  0.00  0.00     0.018 A 
ENDBRANCH   1  18
TORSDOF 4
ENDMDL
