MODEL 1
REMARK VINA RESULT:      -8.7      0.000      0.000
REMARK  7 active torsions:
REMARK  status: ('A' for Active; 'I' for Inactive)
REMARK    1  A    between atoms: N_7  and  C_1 
REMARK    2  A    between atoms: N_8  and  C_4 
REMARK    3  A    between atoms: N_9  and  C_5 
REMARK    4  A    between atoms: C_14  and  N_8 
REMARK    5  A    between atoms: C_13  and  N_9 
REMARK    6  A    between atoms: C_20  and  C_14 
REMARK    7  A    between atoms: O_21  and  C_15 
ROOT
ATOM      1  C   UNL d   1      53.433  34.057  54.196  0.00  0.00     0.201 A 
ATOM      2  N   UNL d   1      53.096  33.038  53.307  0.00  0.00    -0.038 NA
ATOM      3  N   UNL d   1      54.379  32.990  53.960  0.00  0.00    -0.036 NA
ATOM      4  C   UNL d   1      52.881  33.734  53.675  0.00  0.00     0.206 A 
ATOM      5  C   UNL d   1      53.848  32.664  53.450  0.00  0.00     0.753 A 
ATOM      6  C   UNL d   1      54.185  33.684  54.339  0.00  0.00     0.227 A 
ATOM      7  N   UNL d   1      54.725  34.018  54.860  0.00  0.00    -0.125 N 
ENDROOT
BRANCH   5   8
ATOM      8  N   UNL d   1      54.048  31.968  53.073  0.00  0.00    -0.059 NA
BRANCH   8   9
ATOM      9  C   UNL d   1      53.746  31.224  53.355  0.00  0.00     0.100 A 
ATOM     10  C   UNL d   1      53.207  30.784  52.898  0.00  0.00     0.022 A 
ATOM     11  C   UNL d   1      52.906  30.048  53.172  0.00  0.00     0.026 A 
ATOM     12  C   UNL d   1      53.132  29.734  53.905  0.00  0.00     0.094 A 
ATOM     13  C   UNL d   1      53.666  30.176  54.351  0.00  0.00     0.026 A 
ATOM     14  C   UNL d   1      53.972  30.921  54.074  0.00  0.00     0.022 A 
BRANCH  12  15
ATOM     15  O   UNL d   1      52.829  28.993  54.181  0.00  0.00    -0.328 OA
ATOM     16  C   UNL d   1      53.215  28.569  54.766  0.00  0.00     0.181 C 
ENDBRANCH  12  15
ENDBRANCH   8   9
ENDBRANCH   5   8
BRANCH   4  17
ATOM     17  N   UNL d   1      52.157  34.097  53.540  0.00  0.00    -0.223 NA
BRANCH  17  18
ATOM     18  C   UNL d   1      51.534  33.656  53.239  0.00  0.00     0.101 C 
BRANCH  18  19
ATOM     19  C   UNL d   1      50.901  34.036  52.881  0.00  0.00     0.019 A 
ATOM     20  C   UNL d   1      50.851  34.071  52.060  0.00  0.00     0.002 A 
ATOM     21  C   UNL d   1      50.226  34.446  51.707  0.00  0.00     0.000 A 
ATOM     22  C   UNL d   1      49.639  34.794  52.168  0.00  0.00     0.000 A 
ATOM     23  C   UNL d   1      49.681  34.764  52.984  0.00  0.00     0.000 A 
ATOM     24  C   UNL d   1      50.322  34.379  53.346  0.00  0.00     0.002 A 
ENDBRANCH  18  19
ENDBRANCH  17  18
ENDBRANCH   4  17
BRANCH   1  25
ATOM     25  N   UNL d   1      53.225  34.775  54.583  0.00  0.00    -0.107 N 
ATOM     26  O   UNL d   1      52.946  34.713  55.362  0.00  0.00    -0.531 OA
ATOM     27  O   UNL d   1      53.301  35.530  54.184  0.00  0.00    -0.531 OA
ENDBRANCH   1  25
TORSDOF 7
ENDMDL
MODEL 2
REMARK VINA RESULT:      -8.6      1.317      4.175
REMARK  7 active torsions:
REMARK  status: ('A' for Active; 'I' for Inactive)
REMARK    1  A    between atoms: N_7  and  C_1 
REMARK    2  A    between atoms: N_8  and  C_4 
REMARK    3  A    between atoms: N_9  and  C_5 
REMARK    4  A    between atoms: C_14  and  N_8 
REMARK    5  A    between atoms: C_13  and  N_9 
REMARK    6  A    between atoms: C_20  and  C_14 
REMARK    7  A    between atoms: O_21  and  C_15 
ROOT
ATOM      1  C   UNL d   1      53.823  33.520  54.604  0.00  0.00     0.201 A 
ATOM      2  N   UNL d   1      53.181  33.462  53.368  0.00  0.00    -0.038 NA
ATOM      3  N   UNL d   1      53.290  34.736  54.033  0.00  0.00    -0.036 NA
ATOM      4  C   UNL d   1      53.572  33.064  53.964  0.00  0.00     0.206 A 
ATOM      5  C   UNL d   1      53.039  34.301  53.403  0.00  0.00     0.753 A 
ATOM      6  C   UNL d   1      53.682  34.359  54.638  0.00  0.00     0.227 A 
ATOM      7  N   UNL d   1      53.939  34.800  55.282  0.00  0.00    -0.125 N 
ENDROOT
BRANCH   5   8
ATOM      8  N   UNL d   1      52.646  34.684  52.797  0.00  0.00    -0.059 NA
BRANCH   8   9
ATOM      9  C   UNL d   1      51.813  34.557  52.678  0.00  0.00     0.100 A 
ATOM     10  C   UNL d   1      51.532  34.223  51.969  0.00  0.00     0.022 A 
ATOM     11  C   UNL d   1      50.710  34.095  51.846  0.00  0.00     0.026 A 
ATOM     12  C   UNL d   1      50.150  34.297  52.422  0.00  0.00     0.094 A 
ATOM     13  C   UNL d   1      50.436  34.629  53.121  0.00  0.00     0.026 A 
ATOM     14  C   UNL d   1      51.269  34.758  53.246  0.00  0.00     0.022 A 
BRANCH  12  15
ATOM     15  O   UNL d   1      49.322  34.169  52.297  0.00  0.00    -0.328 OA
ATOM     16  C   UNL d   1      48.892  34.645  51.787  0.00  0.00     0.181 C 
ENDBRANCH  12  15
ENDBRANCH   8   9
ENDBRANCH   5   8
BRANCH   4  17
ATOM     17  N   UNL d   1      53.710  32.255  53.936  0.00  0.00    -0.223 NA
BRANCH  17  18
ATOM     18  C   UNL d   1      53.535  31.839  53.250  0.00  0.00     0.101 C 
BRANCH  18  19
ATOM     19  C   UNL d   1      53.338  31.045  53.295  0.00  0.00     0.019 A 
ATOM     20  C   UNL d   1      52.586  30.792  53.076  0.00  0.00     0.002 A 
ATOM     21  C   UNL d   1      52.392  30.007  53.120  0.00  0.00     0.000 A 
ATOM     22  C   UNL d   1      52.946  29.459  53.383  0.00  0.00     0.000 A 
ATOM     23  C   UNL d   1      53.696  29.700  53.602  0.00  0.00     0.000 A 
ATOM     24  C   UNL d   1      53.895  30.506  53.557  0.00  0.00     0.002 A 
ENDBRANCH  18  19
ENDBRANCH  17  18
ENDBRANCH   4  17
BRANCH   1  25
ATOM     25  N   UNL d   1      54.228  33.123  55.227  0.00  0.00    -0.107 N 
ATOM     26  O   UNL d   1      55.056  33.189  55.237  0.00  0.00    -0.531 OA
ATOM     27  O   UNL d   1      53.798  32.675  55.817  0.00  0.00    -0.531 OA
ENDBRANCH   1  25
TORSDOF 7
ENDMDL
MODEL 3
REMARK VINA RESULT:      -7.1      1.392      3.231
REMARK  7 active torsions:
REMARK  status: ('A' for Active; 'I' for Inactive)
REMARK    1  A    between atoms: N_7  and  C_1 
REMARK    2  A    between atoms: N_8  and  C_4 
REMARK    3  A    between atoms: N_9  and  C_5 
REMARK    4  A    between atoms: C_14  and  N_8 
REMARK    5  A    between atoms: C_13  and  N_9 
REMARK    6  A    between atoms: C_20  and  C_14 
REMARK    7  A    between atoms: O_21  and  C_15 
ROOT
ATOM      1  C   UNL d   1      52.238  33.387  53.075  0.00  0.00     0.201 A 
ATOM      2  N   UNL d   1      53.085  32.280  53.047  0.00  0.00    -0.038 NA
ATOM      3  N   UNL d   1      51.811  32.194  52.379  0.00  0.00    -0.036 NA
ATOM      4  C   UNL d   1      52.957  33.048  53.294  0.00  0.00     0.206 A 
ATOM      5  C   UNL d   1      52.509  31.852  52.587  0.00  0.00     0.753 A 
ATOM      6  C   UNL d   1      51.663  32.959  52.615  0.00  0.00     0.227 A 
ATOM      7  N   UNL d   1      50.951  33.310  52.404  0.00  0.00    -0.125 N 
ENDROOT
BRANCH   5   8
ATOM      8  N   UNL d   1      52.654  31.084  52.348  0.00  0.00    -0.059 NA
BRANCH   8   9
ATOM      9  C   UNL d   1      52.799  30.474  52.923  0.00  0.00     0.100 A 
ATOM     10  C   UNL d   1      53.576  30.234  53.100  0.00  0.00     0.022 A 
ATOM     11  C   UNL d   1      53.725  29.632  53.668  0.00  0.00     0.026 A 
ATOM     12  C   UNL d   1      53.107  29.255  54.071  0.00  0.00     0.094 A 
ATOM     13  C   UNL d   1      52.340  29.498  53.890  0.00  0.00     0.026 A 
ATOM     14  C   UNL d   1      52.189  30.109  53.315  0.00  0.00     0.022 A 
BRANCH  12  15
ATOM     15  O   UNL d   1      53.257  28.648  54.643  0.00  0.00    -0.328 OA
ATOM     16  C   UNL d   1      53.314  28.824  55.442  0.00  0.00     0.181 C 
ENDBRANCH  12  15
ENDBRANCH   8   9
ENDBRANCH   5   8
BRANCH   4  17
ATOM     17  N   UNL d   1      53.508  33.464  53.738  0.00  0.00    -0.223 NA
BRANCH  17  18
ATOM     18  C   UNL d   1      54.206  33.096  53.964  0.00  0.00     0.101 C 
BRANCH  18  19
ATOM     19  C   UNL d   1      54.665  33.424  54.558  0.00  0.00     0.019 A 
ATOM     20  C   UNL d   1      54.416  33.386  55.342  0.00  0.00     0.002 A 
ATOM     21  C   UNL d   1      54.871  33.710  55.929  0.00  0.00     0.000 A 
ATOM     22  C   UNL d   1      55.583  34.079  55.744  0.00  0.00     0.000 A 
ATOM     23  C   UNL d   1      55.838  34.122  54.969  0.00  0.00     0.000 A 
ATOM     24  C   UNL d   1      55.372  33.789  54.366  0.00  0.00     0.002 A 
ENDBRANCH  18  19
ENDBRANCH  17  18
ENDBRANCH   4  17
BRANCH   1  25
ATOM     25  N   UNL d   1      52.092  34.178  53.323  0.00  0.00    -0.107 N 
ATOM     26  O   UNL d   1      51.652  34.277  54.020  0.00  0.00    -0.531 OA
ATOM     27  O   UNL d   1      52.387  34.844  52.870  0.00  0.00    -0.531 OA
ENDBRANCH   1  25
TORSDOF 7
ENDMDL
MODEL 4
REMARK VINA RESULT:      -6.6      1.621      4.623
REMARK  7 active torsions:
REMARK  status: ('A' for Active; 'I' for Inactive)
REMARK    1  A    between atoms: N_7  and  C_1 
REMARK    2  A    between atoms: N_8  and  C_4 
REMARK    3  A    between atoms: N_9  and  C_5 
REMARK    4  A    between atoms: C_14  and  N_8 
REMARK    5  A    between atoms: C_13  and  N_9 
REMARK    6  A    between atoms: C_20  and  C_14 
REMARK    7  A    between atoms: O_21  and  C_15 
ROOT
ATOM      1  C   UNL d   1      53.232  30.981  53.472  0.00  0.00     0.201 A 
ATOM      2  N   UNL d   1      53.056  32.300  53.058  0.00  0.00    -0.038 NA
ATOM      3  N   UNL d   1      52.212  31.279  52.491  0.00  0.00    -0.036 NA
ATOM      4  C   UNL d   1      53.462  31.771  53.528  0.00  0.00     0.206 A 
ATOM      5  C   UNL d   1      52.428  32.053  52.537  0.00  0.00     0.753 A 
ATOM      6  C   UNL d   1      52.604  30.734  52.952  0.00  0.00     0.227 A 
ATOM      7  N   UNL d   1      52.385  29.944  52.907  0.00  0.00    -0.125 N 
ENDROOT
BRANCH   5   8
ATOM      8  N   UNL d   1      52.032  32.596  52.073  0.00  0.00    -0.059 NA
BRANCH   8   9
ATOM      9  C   UNL d   1      51.549  33.198  52.432  0.00  0.00     0.100 A 
ATOM     10  C   UNL d   1      51.744  34.003  52.350  0.00  0.00     0.022 A 
ATOM     11  C   UNL d   1      51.271  34.602  52.703  0.00  0.00     0.026 A 
ATOM     12  C   UNL d   1      50.595  34.416  53.145  0.00  0.00     0.094 A 
ATOM     13  C   UNL d   1      50.409  33.616  53.221  0.00  0.00     0.026 A 
ATOM     14  C   UNL d   1      50.888  33.009  52.864  0.00  0.00     0.022 A 
BRANCH  12  15
ATOM     15  O   UNL d   1      50.119  35.020  53.500  0.00  0.00    -0.328 OA
ATOM     16  C   UNL d   1      49.382  35.210  53.197  0.00  0.00     0.181 C 
ENDBRANCH  12  15
ENDBRANCH   8   9
ENDBRANCH   5   8
BRANCH   4  17
ATOM     17  N   UNL d   1      54.068  32.005  54.031  0.00  0.00    -0.223 NA
BRANCH  17  18
ATOM     18  C   UNL d   1      54.463  32.709  53.886  0.00  0.00     0.101 C 
BRANCH  18  19
ATOM     19  C   UNL d   1      54.743  33.156  54.515  0.00  0.00     0.019 A 
ATOM     20  C   UNL d   1      54.365  33.123  55.245  0.00  0.00     0.002 A 
ATOM     21  C   UNL d   1      54.641  33.565  55.865  0.00  0.00     0.000 A 
ATOM     22  C   UNL d   1      55.300  34.047  55.768  0.00  0.00     0.000 A 
ATOM     23  C   UNL d   1      55.682  34.086  55.046  0.00  0.00     0.000 A 
ATOM     24  C   UNL d   1      55.399  33.633  54.409  0.00  0.00     0.002 A 
ENDBRANCH  18  19
ENDBRANCH  17  18
ENDBRANCH   4  17
BRANCH   1  25
ATOM     25  N   UNL d   1      53.642  30.424  53.951  0.00  0.00    -0.107 N 
ATOM     26  O   UNL d   1      54.321  30.076  53.624  0.00  0.00    -0.531 OA
ATOM     27  O   UNL d   1      53.364  30.230  54.739  0.00  0.00    -0.531 OA
ENDBRANCH   1  25
TORSDOF 7
ENDMDL
