MODEL 1
REMARK VINA RESULT:       2.7      0.000      0.000
REMARK  6 active torsions:
REMARK  status: ('A' for Active; 'I' for Inactive)
REMARK    1  A    between atoms: C_7  and  C_1 
REMARK    2  A    between atoms: C_9  and  N_2 
REMARK    3  A    between atoms: C_15  and  C_7 
REMARK    4  A    between atoms: C_8  and  C_9 
REMARK       I    between atoms: N_14  and  C_8 
REMARK    5  A    between atoms: C_20  and  N_14 
REMARK    6  A    between atoms: C_34  and  C_33 
ROOT
ATOM      1  C   UNL d   1     -41.936-122.800 -53.464  0.00  0.00     0.095 A 
ATOM      2  N   UNL d   1     -41.533-123.104 -52.122  0.00  0.00    -0.300 N 
ATOM      3  C   UNL d   1     -41.851-121.970 -53.284  0.00  0.00     0.202 A 
ATOM      4  C   UNL d   1     -41.778-123.361 -52.888  0.00  0.00     0.087 A 
ATOM      5  C   UNL d   1     -41.607-121.740 -52.520  0.00  0.00     0.056 A 
ATOM      6  C   UNL d   1     -41.447-122.292 -51.937  0.00  0.00     0.067 A 
ATOM      7  C   UNL d   1     -41.207-122.041 -51.188  0.00  0.00     0.018 A 
ATOM      8  C   UNL d   1     -41.520-120.926 -52.331  0.00  0.00     0.016 A 
ATOM      9  O   UNL d   1     -42.007-121.415 -53.853  0.00  0.00    -0.286 OA
ATOM     10  C   UNL d   1     -41.279-120.683 -51.578  0.00  0.00     0.058 A 
ATOM     11  C   UNL d   1     -41.123-121.241 -51.006  0.00  0.00     0.013 A 
ATOM     12 CL   UNL d   1     -41.196-119.875 -51.400  0.00  0.00    -0.082 Cl
ENDROOT
BRANCH   2  13
ATOM     13  C   UNL d   1     -41.376-123.662 -51.551  0.00  0.00     0.144 C 
BRANCH  13  14
ATOM     14  C   UNL d   1     -41.773-123.634 -50.827  0.00  0.00     0.297 C 
ATOM     15  N   UNL d   1     -41.371-123.796 -50.132  0.00  0.00    -0.207 NA
ATOM     16  O   UNL d   1     -42.571-123.444 -50.807  0.00  0.00    -0.264 OA
BRANCH  15  17
ATOM     17  C   UNL d   1     -41.767-123.769 -49.409  0.00  0.00     0.087 A 
ATOM     18  C   UNL d   1     -41.339-123.694 -48.721  0.00  0.00     0.045 A 
ATOM     19  C   UNL d   1     -41.731-123.666 -47.999  0.00  0.00     0.121 A 
ATOM     20  O   UNL d   1     -41.438-123.593 -47.219  0.00  0.00    -0.299 OA
ATOM     21  C   UNL d   1     -42.556-123.715 -47.977  0.00  0.00     0.119 A 
ATOM     22  C   UNL d   1     -42.093-123.596 -46.702  0.00  0.00     0.304 A 
ATOM     23  O   UNL d   1     -42.788-123.672 -47.170  0.00  0.00    -0.300 OA
ATOM     24  C   UNL d   1     -42.984-123.790 -48.670  0.00  0.00     0.028 A 
ATOM     25  C   UNL d   1     -42.588-123.817 -49.393  0.00  0.00     0.021 A 
ENDBRANCH  15  17
ENDBRANCH  13  14
ENDBRANCH   2  13
BRANCH   1  26
ATOM     26  C   UNL d   1     -42.175-123.039 -54.214  0.00  0.00     0.200 C 
ATOM     27  O   UNL d   1     -42.564-123.752 -54.308  0.00  0.00    -0.286 OA
BRANCH  26  28
ATOM     28  C   UNL d   1     -42.026-122.565 -54.869  0.00  0.00     0.039 A 
ATOM     29  C   UNL d   1     -41.282-122.578 -55.246  0.00  0.00     0.003 A 
ATOM     30  C   UNL d   1     -41.125-122.100 -55.911  0.00  0.00     0.000 A 
ATOM     31  C   UNL d   1     -41.712-121.607 -56.200  0.00  0.00     0.000 A 
ATOM     32  C   UNL d   1     -42.458-121.603 -55.810  0.00  0.00     0.000 A 
ATOM     33  C   UNL d   1     -42.618-122.078 -55.147  0.00  0.00     0.003 A 
BRANCH  31  34
ATOM     34  C   UNL d   1     -41.558-121.130 -56.861  0.00  0.00     0.000 C 
ATOM     35  C   UNL d   1     -42.153-121.013 -57.404  0.00  0.00     0.000 C 
ENDBRANCH  31  34
ENDBRANCH  26  28
ENDBRANCH   1  26
TORSDOF 6
ENDMDL
