MODEL 1
REMARK VINA RESULT:      79.8      0.000      0.000
REMARK  5 active torsions:
REMARK  status: ('A' for Active; 'I' for Inactive)
REMARK    1  A    between atoms: C_4  and  C_1 
REMARK    2  A    between atoms: C_10  and  C_2 
REMARK    3  A    between atoms: C_8  and  C_4 
REMARK    4  A    between atoms: C_9  and  C_4 
REMARK    5  A    between atoms: N_5  and  C_9 
ROOT
ATOM      1  C   UNL d   1      59.876  49.203  50.499  0.00  0.00     0.023 A 
ATOM      2  C   UNL d   1      59.298  49.487  49.969  0.00  0.00     0.081 A 
ATOM      3  N   UNL d   1      59.673  49.705  49.276  0.00  0.00    -0.246 NA
ATOM      4  C   UNL d   1      60.608  49.250  50.123  0.00  0.00     0.019 A 
ATOM      5  C   UNL d   1      60.490  49.561  49.363  0.00  0.00     0.081 A 
ATOM      6  C   UNL d   1      61.369  49.052  50.368  0.00  0.00     0.002 A 
ATOM      7  C   UNL d   1      61.121  49.674  48.853  0.00  0.00     0.019 A 
ATOM      8  C   UNL d   1      62.005  49.165  49.857  0.00  0.00     0.000 A 
ATOM      9  C   UNL d   1      61.889  49.472  49.109  0.00  0.00     0.002 A 
ENDROOT
BRANCH   1  10
ATOM     10  C   UNL d   1      59.744  48.922  51.268  0.00  0.00     0.048 C 
BRANCH  10  11
ATOM     11  C   UNL d   1      60.233  49.153  51.883  0.00  0.00     0.102 A 
ATOM     12  O   UNL d   1      61.043  48.986  51.958  0.00  0.00    -0.305 OA
ATOM     13  C   UNL d   1      61.302  49.325  52.658  0.00  0.00     0.123 A 
ATOM     14  C   UNL d   1      60.655  49.707  53.026  0.00  0.00     0.029 A 
ATOM     15  C   UNL d   1      60.008  49.595  52.543  0.00  0.00     0.027 A 
ENDBRANCH  10  11
BRANCH  10  16
ATOM     16  C   UNL d   1      59.111  48.404  51.409  0.00  0.00     0.150 C 
BRANCH  16  17
ATOM     17  N   UNL d   1      59.255  47.593  51.469  0.00  0.00    -0.112 N 
ATOM     18  O   UNL d   1      58.682  47.080  51.771  0.00  0.00    -0.532 OA
ATOM     19  O   UNL d   1      59.992  47.272  51.223  0.00  0.00    -0.532 OA
ENDBRANCH  16  17
ENDBRANCH  10  16
ENDBRANCH   1  10
BRANCH   2  20
ATOM     20  C   UNL d   1      58.488  49.537  50.120  0.00  0.00     0.018 A 
ATOM     21  C   UNL d   1      57.939  49.469  49.498  0.00  0.00     0.002 A 
ATOM     22  C   UNL d   1      57.129  49.519  49.645  0.00  0.00     0.000 A 
ATOM     23  C   UNL d   1      56.857  49.637  50.417  0.00  0.00     0.000 A 
ATOM     24  C   UNL d   1      57.399  49.707  51.044  0.00  0.00     0.000 A 
ATOM     25  C   UNL d   1      56.050  49.687  50.563  0.00  0.00     0.000 C 
ATOM     26  C   UNL d   1      58.215  49.655  50.887  0.00  0.00     0.002 A 
ENDBRANCH   2  20
TORSDOF 5
ENDMDL
