MODEL 1
REMARK VINA RESULT:      -9.2      0.000      0.000
REMARK  4 active torsions:
REMARK  status: ('A' for Active; 'I' for Inactive)
REMARK    1  A    between atoms: N_2  and  S_1 
REMARK    2  A    between atoms: C_4  and  S_1 
REMARK    3  A    between atoms: O_16  and  C_13 
REMARK    4  A    between atoms: C_19  and  O_16 
ROOT
ATOM      1  S   UNL d   1      51.504  33.861  52.962  0.00  0.00     0.271 S 
ATOM      2  O   UNL d   1      51.092  33.284  53.385  0.00  0.00    -0.200 OA
ATOM      3  O   UNL d   1      51.922  34.440  52.538  0.00  0.00    -0.200 OA
ENDROOT
BRANCH   1   4
ATOM      4  N   UNL d   1      52.219  33.578  53.277  0.00  0.00    -0.229 N 
ATOM      5  C   UNL d   1      52.598  33.992  53.878  0.00  0.00     0.092 A 
ATOM      6  C   UNL d   1      53.307  33.708  54.188  0.00  0.00     0.018 A 
ATOM      7  C   UNL d   1      53.689  34.123  54.792  0.00  0.00     0.002 A 
ATOM      8  C   UNL d   1      53.636  33.011  53.895  0.00  0.00     0.003 A 
ATOM      9  C   UNL d   1      54.398  33.839  55.101  0.00  0.00     0.000 A 
ATOM     10  C   UNL d   1      54.727  33.141  54.809  0.00  0.00     0.000 A 
ATOM     11  C   UNL d   1      54.347  32.727  54.206  0.00  0.00     0.000 A 
ATOM     12  C   UNL d   1      53.256  32.596  53.293  0.00  0.00     0.020 A 
ATOM     13  C   UNL d   1      52.548  32.880  52.984  0.00  0.00     0.092 A 
ENDBRANCH   1   4
BRANCH   1  14
ATOM     14  C   UNL d   1      50.795  34.139  52.653  0.00  0.00     0.104 A 
ATOM     15  C   UNL d   1      50.229  34.477  53.152  0.00  0.00     0.015 A 
ATOM     16  C   UNL d   1      49.518  34.755  52.843  0.00  0.00     0.025 A 
ATOM     17  C   UNL d   1      49.370  34.697  52.034  0.00  0.00     0.100 A 
ATOM     18  C   UNL d   1      49.932  34.361  51.534  0.00  0.00     0.025 A 
ATOM     19  C   UNL d   1      50.646  34.081  51.843  0.00  0.00     0.015 A 
BRANCH  17  20
ATOM     20  O   UNL d   1      48.660  34.975  51.724  0.00  0.00    -0.305 OA
BRANCH  20  21
ATOM     21  C   UNL d   1      48.219  35.535  52.140  0.00  0.00     0.123 C 
ATOM     22  C   UNL d   1      47.514  35.823  51.825  0.00  0.00     0.029 C 
ENDBRANCH  20  21
ENDBRANCH  17  20
ENDBRANCH   1  14
TORSDOF 4
ENDMDL
MODEL 2
REMARK VINA RESULT:      -8.0      1.063      4.888
REMARK  4 active torsions:
REMARK  status: ('A' for Active; 'I' for Inactive)
REMARK    1  A    between atoms: N_2  and  S_1 
REMARK    2  A    between atoms: C_4  and  S_1 
REMARK    3  A    between atoms: O_16  and  C_13 
REMARK    4  A    between atoms: C_19  and  O_16 
ROOT
ATOM      1  S   UNL d   1      50.708  34.250  52.622  0.00  0.00     0.271 S 
ATOM      2  O   UNL d   1      50.324  33.985  53.304  0.00  0.00    -0.200 OA
ATOM      3  O   UNL d   1      51.093  34.517  51.936  0.00  0.00    -0.200 OA
ENDROOT
BRANCH   1   4
ATOM      4  N   UNL d   1      49.980  34.503  52.312  0.00  0.00    -0.229 N 
ATOM      5  C   UNL d   1      49.497  35.005  52.750  0.00  0.00     0.092 A 
ATOM      6  C   UNL d   1      48.776  35.254  52.438  0.00  0.00     0.018 A 
ATOM      7  C   UNL d   1      48.290  35.759  52.876  0.00  0.00     0.002 A 
ATOM      8  C   UNL d   1      48.539  35.000  51.690  0.00  0.00     0.003 A 
ATOM      9  C   UNL d   1      47.568  36.008  52.565  0.00  0.00     0.000 A 
ATOM     10  C   UNL d   1      47.331  35.754  51.817  0.00  0.00     0.000 A 
ATOM     11  C   UNL d   1      47.815  35.251  51.379  0.00  0.00     0.000 A 
ATOM     12  C   UNL d   1      49.023  34.498  51.252  0.00  0.00     0.020 A 
ATOM     13  C   UNL d   1      49.743  34.249  51.563  0.00  0.00     0.092 A 
ENDBRANCH   1   4
BRANCH   1  14
ATOM     14  C   UNL d   1      51.427  33.998  52.933  0.00  0.00     0.104 A 
ATOM     15  C   UNL d   1      52.055  34.531  53.009  0.00  0.00     0.015 A 
ATOM     16  C   UNL d   1      52.775  34.280  53.319  0.00  0.00     0.025 A 
ATOM     17  C   UNL d   1      52.871  33.495  53.556  0.00  0.00     0.100 A 
ATOM     18  C   UNL d   1      52.247  32.963  53.481  0.00  0.00     0.025 A 
ATOM     19  C   UNL d   1      51.523  33.214  53.169  0.00  0.00     0.015 A 
BRANCH  17  20
ATOM     20  O   UNL d   1      53.590  33.244  53.866  0.00  0.00    -0.305 OA
BRANCH  20  21
ATOM     21  C   UNL d   1      53.732  33.298  54.677  0.00  0.00     0.123 C 
ATOM     22  C   UNL d   1      54.460  33.068  54.985  0.00  0.00     0.029 C 
ENDBRANCH  20  21
ENDBRANCH  17  20
ENDBRANCH   1  14
TORSDOF 4
ENDMDL
MODEL 3
REMARK VINA RESULT:      -6.3     10.007     10.807
REMARK  4 active torsions:
REMARK  status: ('A' for Active; 'I' for Inactive)
REMARK    1  A    between atoms: N_2  and  S_1 
REMARK    2  A    between atoms: C_4  and  S_1 
REMARK    3  A    between atoms: O_16  and  C_13 
REMARK    4  A    between atoms: C_19  and  O_16 
ROOT
ATOM      1  S   UNL d   1      44.971  28.724  58.555  0.00  0.00     0.271 S 
ATOM      2  O   UNL d   1      44.387  28.279  58.933  0.00  0.00    -0.200 OA
ATOM      3  O   UNL d   1      45.558  29.173  58.176  0.00  0.00    -0.200 OA
ENDROOT
BRANCH   1   4
ATOM      4  N   UNL d   1      44.890  29.317  59.131  0.00  0.00    -0.229 N 
ATOM      5  C   UNL d   1      44.682  29.118  59.902  0.00  0.00     0.092 A 
ATOM      6  C   UNL d   1      44.603  29.709  60.470  0.00  0.00     0.018 A 
ATOM      7  C   UNL d   1      44.394  29.511  61.245  0.00  0.00     0.002 A 
ATOM      8  C   UNL d   1      44.731  30.498  60.267  0.00  0.00     0.003 A 
ATOM      9  C   UNL d   1      44.314  30.102  61.814  0.00  0.00     0.000 A 
ATOM     10  C   UNL d   1      44.443  30.891  61.611  0.00  0.00     0.000 A 
ATOM     11  C   UNL d   1      44.651  31.090  60.839  0.00  0.00     0.000 A 
ATOM     12  C   UNL d   1      44.939  30.697  59.495  0.00  0.00     0.020 A 
ATOM     13  C   UNL d   1      45.018  30.107  58.927  0.00  0.00     0.092 A 
ENDBRANCH   1   4
BRANCH   1  14
ATOM     14  C   UNL d   1      45.049  28.135  57.986  0.00  0.00     0.104 A 
ATOM     15  C   UNL d   1      44.716  28.237  57.236  0.00  0.00     0.015 A 
ATOM     16  C   UNL d   1      44.794  27.647  56.666  0.00  0.00     0.025 A 
ATOM     17  C   UNL d   1      45.204  26.954  56.843  0.00  0.00     0.100 A 
ATOM     18  C   UNL d   1      45.535  26.850  57.590  0.00  0.00     0.025 A 
ATOM     19  C   UNL d   1      45.459  27.441  58.163  0.00  0.00     0.015 A 
BRANCH  17  20
ATOM     20  O   UNL d   1      45.281  26.364  56.275  0.00  0.00    -0.305 OA
BRANCH  20  21
ATOM     21  C   UNL d   1      44.752  25.732  56.260  0.00  0.00     0.123 C 
ATOM     22  C   UNL d   1      44.855  25.120  55.718  0.00  0.00     0.029 C 
ENDBRANCH  20  21
ENDBRANCH  17  20
ENDBRANCH   1  14
TORSDOF 4
ENDMDL
MODEL 4
REMARK VINA RESULT:      -6.3      9.700     10.816
REMARK  4 active torsions:
REMARK  status: ('A' for Active; 'I' for Inactive)
REMARK    1  A    between atoms: N_2  and  S_1 
REMARK    2  A    between atoms: C_4  and  S_1 
REMARK    3  A    between atoms: O_16  and  C_13 
REMARK    4  A    between atoms: C_19  and  O_16 
ROOT
ATOM      1  S   UNL d   1      44.915  28.542  58.331  0.00  0.00     0.271 S 
ATOM      2  O   UNL d   1      45.509  28.437  57.766  0.00  0.00    -0.200 OA
ATOM      3  O   UNL d   1      44.317  28.650  58.897  0.00  0.00    -0.200 OA
ENDROOT
BRANCH   1   4
ATOM      4  N   UNL d   1      44.912  29.358  58.173  0.00  0.00    -0.229 N 
ATOM      5  C   UNL d   1      44.615  29.639  57.459  0.00  0.00     0.092 A 
ATOM      6  C   UNL d   1      44.614  30.449  57.306  0.00  0.00     0.018 A 
ATOM      7  C   UNL d   1      44.316  30.733  56.590  0.00  0.00     0.002 A 
ATOM      8  C   UNL d   1      44.909  30.976  57.868  0.00  0.00     0.003 A 
ATOM      9  C   UNL d   1      44.315  31.543  56.437  0.00  0.00     0.000 A 
ATOM     10  C   UNL d   1      44.610  32.070  56.999  0.00  0.00     0.000 A 
ATOM     11  C   UNL d   1      44.907  31.788  57.714  0.00  0.00     0.000 A 
ATOM     12  C   UNL d   1      45.206  30.694  58.583  0.00  0.00     0.020 A 
ATOM     13  C   UNL d   1      45.207  29.885  58.735  0.00  0.00     0.092 A 
ENDBRANCH   1   4
BRANCH   1  14
ATOM     14  C   UNL d   1      44.920  27.734  58.484  0.00  0.00     0.104 A 
ATOM     15  C   UNL d   1      45.159  27.203  57.897  0.00  0.00     0.015 A 
ATOM     16  C   UNL d   1      45.165  26.393  58.050  0.00  0.00     0.025 A 
ATOM     17  C   UNL d   1      44.932  26.112  58.790  0.00  0.00     0.100 A 
ATOM     18  C   UNL d   1      44.694  26.639  59.375  0.00  0.00     0.025 A 
ATOM     19  C   UNL d   1      44.687  27.452  59.223  0.00  0.00     0.015 A 
BRANCH  17  20
ATOM     20  O   UNL d   1      44.937  25.303  58.943  0.00  0.00    -0.305 OA
BRANCH  20  21
ATOM     21  C   UNL d   1      44.585  24.780  58.412  0.00  0.00     0.123 C 
ATOM     22  C   UNL d   1      44.580  23.971  58.571  0.00  0.00     0.029 C 
ENDBRANCH  20  21
ENDBRANCH  17  20
ENDBRANCH   1  14
TORSDOF 4
ENDMDL
