MODEL 1
REMARK VINA RESULT:      47.0      0.000      0.000
REMARK  5 active torsions:
REMARK  status: ('A' for Active; 'I' for Inactive)
REMARK    1  A    between atoms: N_2  and  S_1 
REMARK    2  A    between atoms: C_8  and  S_1 
REMARK    3  A    between atoms: S_5  and  C_3 
REMARK    4  A    between atoms: C_13  and  S_5 
REMARK    5  A    between atoms: C_12  and  C_13 
ROOT
ATOM      1  N   UNL d   1      60.558  49.153  51.064  0.00  0.00    -0.208 N 
ATOM      2  C   UNL d   1      59.765  49.298  51.271  0.00  0.00     0.189 A 
ATOM      3  N   UNL d   1      59.740  49.502  52.074  0.00  0.00    -0.219 NA
ATOM      4  C   UNL d   1      61.026  49.270  51.745  0.00  0.00     0.114 A 
ATOM      5  C   UNL d   1      60.518  49.484  52.363  0.00  0.00     0.121 A 
ENDROOT
BRANCH   1   6
ATOM      6  S   UNL d   1      60.832  48.933  50.312  0.00  0.00     0.273 S 
ATOM      7  O   UNL d   1      60.687  49.704  50.073  0.00  0.00    -0.200 OA
ATOM      8  O   UNL d   1      61.052  48.957  49.512  0.00  0.00    -0.200 OA
BRANCH   6   9
ATOM      9  C   UNL d   1      60.985  48.151  50.534  0.00  0.00     0.104 A 
ATOM     10  C   UNL d   1      60.574  47.822  51.162  0.00  0.00     0.013 A 
ATOM     11  C   UNL d   1      60.727  47.043  51.382  0.00  0.00     0.001 A 
ATOM     12  C   UNL d   1      61.290  46.601  50.972  0.00  0.00     0.000 A 
ATOM     13  C   UNL d   1      61.699  46.935  50.343  0.00  0.00     0.001 A 
ATOM     14  C   UNL d   1      61.542  47.719  50.124  0.00  0.00     0.013 A 
ENDBRANCH   6   9
ENDBRANCH   1   6
BRANCH   2  15
ATOM     15  S   UNL d   1      59.109  49.245  50.758  0.00  0.00    -0.049 SA
BRANCH  15  16
ATOM     16  C   UNL d   1      58.439  49.708  50.900  0.00  0.00     0.040 C 
BRANCH  16  17
ATOM     17  C   UNL d   1      57.729  49.525  50.522  0.00  0.00     0.026 A 
ATOM     18  C   UNL d   1      57.089  49.200  50.964  0.00  0.00     0.099 A 
ATOM     19  N   UNL d   1      56.375  49.012  50.602  0.00  0.00    -0.242 NA
ATOM     20  C   UNL d   1      56.294  49.149  49.792  0.00  0.00     0.099 A 
ATOM     21  C   UNL d   1      56.917  49.467  49.354  0.00  0.00     0.021 A 
ATOM     22  C   UNL d   1      57.633  49.654  49.721  0.00  0.00     0.004 A 
ENDBRANCH  16  17
ENDBRANCH  15  16
ENDBRANCH   2  15
TORSDOF 5
ENDMDL
