MODEL 1
REMARK VINA RESULT:     112.3      0.000      0.000
REMARK  4 active torsions:
REMARK  status: ('A' for Active; 'I' for Inactive)
REMARK    1  A    between atoms: N_2  and  S_1 
REMARK    2  A    between atoms: C_4  and  S_1 
REMARK    3  A    between atoms: C_5  and  N_3 
REMARK    4  A    between atoms: C_12  and  C_13 
ROOT
ATOM      1  N   UNL d   1      61.318  45.874  50.641  0.00  0.00    -0.226 N 
ATOM      2  N   UNL d   1      60.704  47.403  50.729  0.00  0.00    -0.299 N 
ATOM      3  C   UNL d   1      61.463  46.412  50.036  0.00  0.00     0.111 A 
ATOM      4  C   UNL d   1      60.862  46.098  51.298  0.00  0.00     0.111 A 
ATOM      5  C   UNL d   1      61.156  47.176  50.080  0.00  0.00     0.100 A 
ATOM      6  C   UNL d   1      60.556  46.862  51.342  0.00  0.00     0.100 A 
ENDROOT
BRANCH   1   7
ATOM      7  S   UNL d   1      61.626  45.106  50.597  0.00  0.00     0.271 S 
ATOM      8  O   UNL d   1      61.951  45.279  49.858  0.00  0.00    -0.200 OA
ATOM      9  O   UNL d   1      61.301  44.933  51.335  0.00  0.00    -0.200 OA
BRANCH   7  10
ATOM     10  C   UNL d   1      61.931  44.345  50.553  0.00  0.00     0.104 A 
ATOM     11  C   UNL d   1      61.789  43.807  51.160  0.00  0.00     0.013 A 
ATOM     12  C   UNL d   1      62.096  43.042  51.115  0.00  0.00    -0.004 A 
ATOM     13  C   UNL d   1      62.544  42.815  50.464  0.00  0.00    -0.023 A 
ATOM     14  C   UNL d   1      62.686  43.351  49.860  0.00  0.00    -0.004 A 
ATOM     15  C   UNL d   1      62.379  44.116  49.904  0.00  0.00     0.013 A 
BRANCH  13  16
ATOM     16  C   UNL d   1      62.853  42.047  50.420  0.00  0.00     0.019 C 
ATOM     17  C   UNL d   1      63.101  42.102  51.205  0.00  0.00     0.004 C 
ATOM     18  C   UNL d   1      62.604  41.993  49.635  0.00  0.00     0.004 C 
ATOM     19  C   UNL d   1      63.158  41.286  50.376  0.00  0.00     0.004 C 
ENDBRANCH  13  16
ENDBRANCH   7  10
ENDBRANCH   1   7
BRANCH   2  20
ATOM     20  C   UNL d   1      60.395  48.175  50.774  0.00  0.00     0.092 A 
ATOM     21  C   UNL d   1      60.905  48.832  50.735  0.00  0.00     0.156 A 
ATOM     22  F   UNL d   1      61.665  48.723  50.657  0.00  0.00    -0.203 F 
ATOM     23  C   UNL d   1      60.600  49.593  50.779  0.00  0.00     0.031 A 
ATOM     24  C   UNL d   1      59.780  49.708  50.862  0.00  0.00     0.002 A 
ATOM     25  C   UNL d   1      59.277  49.055  50.901  0.00  0.00     0.002 A 
ATOM     26  C   UNL d   1      59.582  48.294  50.857  0.00  0.00     0.020 A 
ENDBRANCH   2  20
TORSDOF 4
ENDMDL
MODEL 2
REMARK VINA RESULT:     114.2      1.432      5.556
REMARK  4 active torsions:
REMARK  status: ('A' for Active; 'I' for Inactive)
REMARK    1  A    between atoms: N_2  and  S_1 
REMARK    2  A    between atoms: C_4  and  S_1 
REMARK    3  A    between atoms: C_5  and  N_3 
REMARK    4  A    between atoms: C_12  and  C_13 
ROOT
ATOM      1  N   UNL d   1      61.722  45.042  50.470  0.00  0.00    -0.226 N 
ATOM      2  N   UNL d   1      62.251  43.487  50.310  0.00  0.00    -0.299 N 
ATOM      3  C   UNL d   1      61.542  44.484  51.047  0.00  0.00     0.111 A 
ATOM      4  C   UNL d   1      62.171  44.826  49.805  0.00  0.00     0.111 A 
ATOM      5  C   UNL d   1      61.806  43.707  50.966  0.00  0.00     0.100 A 
ATOM      6  C   UNL d   1      62.435  44.048  49.725  0.00  0.00     0.100 A 
ENDROOT
BRANCH   1   7
ATOM      7  S   UNL d   1      61.457  45.823  50.550  0.00  0.00     0.271 S 
ATOM      8  O   UNL d   1      61.076  45.621  51.254  0.00  0.00    -0.200 OA
ATOM      9  O   UNL d   1      61.837  46.025  49.847  0.00  0.00    -0.200 OA
BRANCH   7  10
ATOM     10  C   UNL d   1      61.194  46.597  50.630  0.00  0.00     0.104 A 
ATOM     11  C   UNL d   1      60.594  46.776  51.165  0.00  0.00     0.013 A 
ATOM     12  C   UNL d   1      60.330  47.554  51.245  0.00  0.00    -0.004 A 
ATOM     13  C   UNL d   1      60.665  48.152  50.790  0.00  0.00    -0.023 A 
ATOM     14  C   UNL d   1      61.262  47.972  50.257  0.00  0.00    -0.004 A 
ATOM     15  C   UNL d   1      61.526  47.195  50.177  0.00  0.00     0.013 A 
BRANCH  13  16
ATOM     16  C   UNL d   1      60.399  48.933  50.870  0.00  0.00     0.019 C 
ATOM     17  C   UNL d   1      61.071  49.116  51.314  0.00  0.00     0.004 C 
ATOM     18  C   UNL d   1      59.728  48.750  50.427  0.00  0.00     0.004 C 
ATOM     19  C   UNL d   1      60.136  49.707  50.950  0.00  0.00     0.004 C 
ENDBRANCH  13  16
ENDBRANCH   7  10
ENDBRANCH   1   7
BRANCH   2  20
ATOM     20  C   UNL d   1      62.518  42.702  50.229  0.00  0.00     0.092 A 
ATOM     21  C   UNL d   1      62.893  42.322  50.868  0.00  0.00     0.156 A 
ATOM     22  F   UNL d   1      62.992  42.698  51.534  0.00  0.00    -0.203 F 
ATOM     23  C   UNL d   1      63.156  41.548  50.788  0.00  0.00     0.031 A 
ATOM     24  C   UNL d   1      63.048  41.144  50.068  0.00  0.00     0.002 A 
ATOM     25  C   UNL d   1      62.676  41.524  49.438  0.00  0.00     0.002 A 
ATOM     26  C   UNL d   1      62.413  42.298  49.517  0.00  0.00     0.020 A 
ENDBRANCH   2  20
TORSDOF 4
ENDMDL
