MODEL 1
REMARK VINA RESULT:      47.4      0.000      0.000
REMARK  4 active torsions:
REMARK  status: ('A' for Active; 'I' for Inactive)
REMARK    1  A    between atoms: N_3  and  C_1 
REMARK       I    between atoms: C_5  and  N_3 
REMARK    2  A    between atoms: C_15  and  C_5 
REMARK    3  A    between atoms: C_8  and  C_9 
REMARK    4  A    between atoms: O_16  and  C_8 
ROOT
ATOM      1  C   UNL d   1      13.557  13.791  -3.860  0.00  0.00     0.197 A 
ATOM      2  N   UNL d   1      13.239  13.021  -3.830  0.00  0.00    -0.221 NA
ATOM      3  S   UNL d   1      13.955  13.927  -3.153  0.00  0.00    -0.047 SA
ATOM      4  C   UNL d   1      13.892  13.253  -2.678  0.00  0.00     0.050 A 
ATOM      5  C   UNL d   1      13.446  12.688  -3.100  0.00  0.00     0.090 A 
ATOM      6  C   UNL d   1      14.019  12.345  -1.596  0.00  0.00     0.064 A 
ATOM      7  C   UNL d   1      14.177  13.076  -1.924  0.00  0.00     0.013 A 
ATOM      8  C   UNL d   1      13.293  11.957  -2.761  0.00  0.00     0.020 A 
ATOM      9  C   UNL d   1      13.573  11.779  -2.018  0.00  0.00     0.007 A 
ENDROOT
BRANCH   1  10
ATOM     10  N   UNL d   1      13.483  14.321  -4.491  0.00  0.00    -0.183 NA
ATOM     11  C   UNL d   1      13.712  15.108  -4.398  0.00  0.00     0.281 C 
ATOM     12  O   UNL d   1      14.015  15.366  -3.676  0.00  0.00    -0.265 OA
BRANCH  11  13
ATOM     13  C   UNL d   1      13.639  15.628  -5.018  0.00  0.00     0.058 A 
ATOM     14  C   UNL d   1      14.318  15.882  -5.428  0.00  0.00     0.005 A 
ATOM     15  C   UNL d   1      14.244  16.411  -6.058  0.00  0.00     0.000 A 
ATOM     16  C   UNL d   1      13.491  16.687  -6.279  0.00  0.00     0.000 A 
ATOM     17  C   UNL d   1      12.833  16.434  -5.873  0.00  0.00     0.000 A 
ATOM     18  C   UNL d   1      12.907  15.905  -5.243  0.00  0.00     0.005 A 
ENDBRANCH  11  13
ENDBRANCH   1  10
BRANCH   6  19
ATOM     19  C   UNL d   1      14.298  12.153  -0.843  0.00  0.00     0.296 C 
ATOM     20  O   UNL d   1      13.776  12.002  -0.232  0.00  0.00    -0.259 OA
BRANCH  19  21
ATOM     21  O   UNL d   1      15.118  12.115  -0.714  0.00  0.00    -0.296 OA
ATOM     22  C   UNL d   1      15.403  11.795  -0.015  0.00  0.00     0.185 C 
ENDBRANCH  19  21
ENDBRANCH   6  19
TORSDOF 4
ENDMDL
