MODEL 1
REMARK VINA RESULT:     112.1      0.000      0.000
REMARK  6 active torsions:
REMARK  status: ('A' for Active; 'I' for Inactive)
REMARK    1  A    between atoms: C_10  and  N_6 
REMARK    2  A    between atoms: S_14  and  C_9 
REMARK    3  A    between atoms: C_17  and  C_10 
REMARK    4  A    between atoms: N_13  and  C_25 
REMARK    5  A    between atoms: C_20  and  S_14 
REMARK    6  A    between atoms: C_25  and  C_20 
ROOT
ATOM      1  C   UNL d   1      60.667  46.001  50.082  0.00  0.00     0.174 A 
ATOM      2  C   UNL d   1      61.208  46.624  49.989  0.00  0.00     0.158 A 
ATOM      3  N   UNL d   1      59.997  46.301  50.458  0.00  0.00    -0.203 NA
ATOM      4  N   UNL d   1      60.861  45.243  49.809  0.00  0.00    -0.240 N 
ATOM      5  N   UNL d   1      62.128  45.731  49.355  0.00  0.00    -0.223 N 
ATOM      6  N   UNL d   1      60.869  47.305  50.309  0.00  0.00    -0.279 N 
ATOM      7  C   UNL d   1      61.586  45.108  49.448  0.00  0.00     0.343 A 
ATOM      8  C   UNL d   1      61.939  46.484  49.624  0.00  0.00     0.287 A 
ATOM      9  C   UNL d   1      60.124  47.098  50.595  0.00  0.00     0.181 A 
ATOM     10  O   UNL d   1      61.780  44.346  49.174  0.00  0.00    -0.245 OA
ATOM     11  O   UNL d   1      62.477  47.104  49.531  0.00  0.00    -0.265 OA
ATOM     12  C   UNL d   1      60.323  44.624  49.901  0.00  0.00     0.105 C 
ATOM     13  C   UNL d   1      62.855  45.594  48.992  0.00  0.00     0.107 C 
ENDROOT
BRANCH   9  14
ATOM     14  S   UNL d   1      59.585  47.617  50.966  0.00  0.00    -0.048 SA
BRANCH  14  15
ATOM     15  C   UNL d   1      58.906  47.855  50.572  0.00  0.00     0.057 C 
BRANCH  15  16
ATOM     16  C   UNL d   1      58.376  48.364  50.947  0.00  0.00     0.087 C 
BRANCH  16  17
ATOM     17  N   UNL d   1      57.746  48.672  50.521  0.00  0.00    -0.302 N 
ATOM     18  C   UNL d   1      57.043  48.251  50.469  0.00  0.00     0.080 A 
ATOM     19  C   UNL d   1      56.412  48.559  50.044  0.00  0.00     0.019 A 
ATOM     20  C   UNL d   1      56.484  49.285  49.672  0.00  0.00     0.003 A 
ATOM     21  C   UNL d   1      57.186  49.706  49.724  0.00  0.00     0.019 A 
ATOM     22  C   UNL d   1      57.822  49.402  50.149  0.00  0.00     0.080 A 
ENDBRANCH  16  17
ENDBRANCH  15  16
ENDBRANCH  14  15
ENDBRANCH   9  14
BRANCH   6  23
ATOM     23  C   UNL d   1      61.218  48.052  50.333  0.00  0.00     0.082 C 
BRANCH  23  24
ATOM     24  C   UNL d   1      61.266  48.473  51.047  0.00  0.00     0.018 A 
ATOM     25  C   UNL d   1      61.295  48.050  51.757  0.00  0.00     0.002 A 
ATOM     26  C   UNL d   1      61.343  48.458  52.471  0.00  0.00     0.011 A 
ATOM     27  C   UNL d   1      61.362  49.286  52.472  0.00  0.00     0.058 A 
ATOM     28  C   UNL d   1      61.332  49.705  51.750  0.00  0.00     0.011 A 
ATOM     29 CL   UNL d   1      61.410  49.698  53.185  0.00  0.00    -0.082 Cl
ATOM     30  C   UNL d   1      61.285  49.286  51.043  0.00  0.00     0.002 A 
ENDBRANCH  23  24
ENDBRANCH   6  23
TORSDOF 6
ENDMDL
