MODEL 1
REMARK VINA RESULT:      24.1      0.000      0.000
REMARK  1 active torsions:
REMARK  status: ('A' for Active; 'I' for Inactive)
REMARK    1  A    between atoms: C_7  and  C_4 
ROOT
ATOM      1  N   UNL d   1      13.659  13.502  -3.257  0.00  0.00    -0.211 NA
ATOM      2  C   UNL d   1      13.419  13.725  -4.015  0.00  0.00     0.140 A 
ATOM      3  C   UNL d   1      13.214  13.148  -4.567  0.00  0.00     0.051 A 
ATOM      4  C   UNL d   1      13.693  12.697  -3.051  0.00  0.00     0.183 A 
ATOM      5  C   UNL d   1      13.249  12.343  -4.361  0.00  0.00     0.104 A 
ATOM      6  O   UNL d   1      13.488  12.120  -3.604  0.00  0.00    -0.289 OA
ATOM      7  S   UNL d   1      13.384  14.524  -4.223  0.00  0.00    -0.057 SA
ATOM      8  C   UNL d   1      12.975  13.366  -5.323  0.00  0.00     0.004 A 
ATOM      9  C   UNL d   1      13.046  11.780  -4.910  0.00  0.00     0.025 A 
ATOM     10  C   UNL d   1      12.774  12.797  -5.865  0.00  0.00     0.000 A 
ATOM     11  C   UNL d   1      12.806  12.004  -5.667  0.00  0.00     0.002 A 
ENDROOT
BRANCH   4  12
ATOM     12  C   UNL d   1      13.933  12.474  -2.294  0.00  0.00     0.041 A 
ATOM     13  C   UNL d   1      14.665  12.727  -2.006  0.00  0.00     0.004 A 
ATOM     14  C   UNL d   1      14.909  12.509  -1.253  0.00  0.00     0.007 A 
ATOM     15  C   UNL d   1      14.419  12.031  -0.775  0.00  0.00     0.035 A 
ATOM     16  C   UNL d   1      13.688  11.781  -1.066  0.00  0.00     0.007 A 
ATOM     17 BR   UNL d   1      14.661  11.808  -0.015  0.00  0.00    -0.049 Br
ATOM     18  C   UNL d   1      13.441  12.001  -1.827  0.00  0.00     0.004 A 
ENDBRANCH   4  12
TORSDOF 1
ENDMDL
