MODEL 1
REMARK VINA RESULT:       4.8      0.000      0.000
REMARK  1 active torsions:
REMARK  status: ('A' for Active; 'I' for Inactive)
REMARK       I    between atoms: N_2  and  C_1 
REMARK    1  A    between atoms: C_5  and  N_2 
ROOT
ATOM      1  C   UNL d   1      24.305  12.693  -1.874  0.00  0.00     0.100 A 
ATOM      2  C   UNL d   1      24.613  12.406  -3.473  0.00  0.00     0.058 A 
ATOM      3 CL   UNL d   1      24.766  12.265  -4.269  0.00  0.00    -0.082 Cl
ATOM      4  C   UNL d   1      24.460  11.921  -2.138  0.00  0.00     0.021 A 
ATOM      5  C   UNL d   1      24.306  13.319  -2.412  0.00  0.00     0.021 A 
ATOM      6  C   UNL d   1      24.613  11.780  -2.936  0.00  0.00     0.013 A 
ATOM      7  C   UNL d   1      24.460  13.173  -3.214  0.00  0.00     0.013 A 
ENDROOT
BRANCH   1   8
ATOM      8  N   UNL d   1      24.152  12.830  -1.074  0.00  0.00    -0.056 NA
ATOM      9  C   UNL d   1      23.395  13.036  -0.826  0.00  0.00     0.787 C 
ATOM     10  N   UNL d   1      23.239  13.174  -0.030  0.00  0.00     0.064 N 
ATOM     11  N   UNL d   1      22.791  13.104  -1.383  0.00  0.00     0.064 N 
ENDBRANCH   1   8
TORSDOF 1
ENDMDL
