MODEL 1
REMARK VINA RESULT:      -4.3      0.000      0.000
REMARK  2 active torsions:
REMARK  status: ('A' for Active; 'I' for Inactive)
REMARK    1  A    between atoms: C_7  and  C_1 
REMARK    2  A    between atoms: C_8  and  C_7 
ROOT
ATOM      1  C   UNL d   1      57.785   0.640  31.181  0.00  0.00     0.118 A 
ATOM      2  N   UNL d   1      58.481   0.581  29.934  0.00  0.00    -0.178 NA
ATOM      3  N   UNL d   1      59.212   0.584  31.157  0.00  0.00    -0.178 NA
ATOM      4  C   UNL d   1      57.771   0.620  30.358  0.00  0.00     0.286 A 
ATOM      5  C   UNL d   1      58.501   0.622  31.581  0.00  0.00     0.286 A 
ATOM      6  C   UNL d   1      59.218   0.562  30.325  0.00  0.00     0.226 A 
ATOM      7  S   UNL d   1      59.924   0.524  29.903  0.00  0.00    -0.037 SA
ATOM      8  O   UNL d   1      57.045   0.637  29.941  0.00  0.00    -0.265 OA
ATOM      9  O   UNL d   1      58.524   0.643  32.417  0.00  0.00    -0.265 OA
ENDROOT
BRANCH   1  10
ATOM     10  C   UNL d   1      57.073   0.679  31.606  0.00  0.00     0.034 C 
BRANCH  10  11
ATOM     11  C   UNL d   1      56.749  -0.006  31.912  0.00  0.00     0.100 A 
ATOM     12  O   UNL d   1      56.265   0.036  32.582  0.00  0.00    -0.307 OA
ATOM     13  C   UNL d   1      56.023  -0.733  32.760  0.00  0.00     0.100 A 
ATOM     14  C   UNL d   1      55.532  -0.956  33.387  0.00  0.00     0.027 C 
ATOM     15  C   UNL d   1      56.349  -1.231  32.216  0.00  0.00     0.027 A 
ATOM     16  C   UNL d   1      56.804  -0.801  31.679  0.00  0.00     0.027 A 
ENDBRANCH  10  11
ENDBRANCH   1  10
TORSDOF 2
ENDMDL
MODEL 2
REMARK VINA RESULT:      -3.8      3.038      4.065
REMARK  2 active torsions:
REMARK  status: ('A' for Active; 'I' for Inactive)
REMARK    1  A    between atoms: C_7  and  C_1 
REMARK    2  A    between atoms: C_8  and  C_7 
ROOT
ATOM      1  C   UNL d   1      55.744   0.672  33.797  0.00  0.00     0.118 A 
ATOM      2  N   UNL d   1      56.296   0.677  35.115  0.00  0.00    -0.178 NA
ATOM      3  N   UNL d   1      54.882   0.676  34.935  0.00  0.00    -0.178 NA
ATOM      4  C   UNL d   1      56.401   0.674  34.294  0.00  0.00     0.286 A 
ATOM      5  C   UNL d   1      54.987   0.673  34.114  0.00  0.00     0.286 A 
ATOM      6  C   UNL d   1      55.533   0.677  35.454  0.00  0.00     0.226 A 
ATOM      7  S   UNL d   1      55.429   0.680  36.271  0.00  0.00    -0.037 SA
ATOM      8  O   UNL d   1      57.176   0.673  33.979  0.00  0.00    -0.265 OA
ATOM      9  O   UNL d   1      54.316   0.672  33.615  0.00  0.00    -0.265 OA
ENDROOT
BRANCH   1  10
ATOM     10  C   UNL d   1      55.849   0.670  32.973  0.00  0.00     0.034 C 
BRANCH  10  11
ATOM     11  C   UNL d   1      56.082  -0.018  32.599  0.00  0.00     0.100 A 
ATOM     12  O   UNL d   1      56.720   0.001  32.071  0.00  0.00    -0.307 OA
ATOM     13  C   UNL d   1      56.824  -0.766  31.784  0.00  0.00     0.100 A 
ATOM     14  C   UNL d   1      57.399  -1.008  31.241  0.00  0.00     0.027 C 
ATOM     15  C   UNL d   1      56.268  -1.240  32.125  0.00  0.00     0.027 A 
ATOM     16  C   UNL d   1      55.796  -0.796  32.635  0.00  0.00     0.027 A 
ENDBRANCH  10  11
ENDBRANCH   1  10
TORSDOF 2
ENDMDL
MODEL 3
REMARK VINA RESULT:      -3.0      1.870      2.632
REMARK  2 active torsions:
REMARK  status: ('A' for Active; 'I' for Inactive)
REMARK    1  A    between atoms: C_7  and  C_1 
REMARK    2  A    between atoms: C_8  and  C_7 
ROOT
ATOM      1  C   UNL d   1      58.900  -0.530  29.280  0.00  0.00     0.118 A 
ATOM      2  N   UNL d   1      59.561  -1.794  29.181  0.00  0.00    -0.178 NA
ATOM      3  N   UNL d   1      60.271  -0.594  28.886  0.00  0.00    -0.178 NA
ATOM      4  C   UNL d   1      58.881  -1.351  29.346  0.00  0.00     0.286 A 
ATOM      5  C   UNL d   1      59.591  -0.151  29.051  0.00  0.00     0.286 A 
ATOM      6  C   UNL d   1      60.272  -1.424  28.947  0.00  0.00     0.226 A 
ATOM      7  S   UNL d   1      60.948  -1.865  28.783  0.00  0.00    -0.037 SA
ATOM      8  O   UNL d   1      58.180  -1.746  29.578  0.00  0.00    -0.265 OA
ATOM      9  O   UNL d   1      59.618   0.682  28.982  0.00  0.00    -0.265 OA
ENDROOT
BRANCH   1  10
ATOM     10  C   UNL d   1      58.218  -0.086  29.445  0.00  0.00     0.034 C 
BRANCH  10  11
ATOM     11  C   UNL d   1      58.081   0.171  30.208  0.00  0.00     0.100 A 
ATOM     12  O   UNL d   1      57.347   0.024  30.562  0.00  0.00    -0.307 OA
ATOM     13  C   UNL d   1      57.372   0.344  31.323  0.00  0.00     0.100 A 
ATOM     14  C   UNL d   1      56.758   0.327  31.878  0.00  0.00     0.027 C 
ATOM     15  C   UNL d   1      58.098   0.677  31.432  0.00  0.00     0.027 A 
ATOM     16  C   UNL d   1      58.555   0.581  30.752  0.00  0.00     0.027 A 
ENDBRANCH  10  11
ENDBRANCH   1  10
TORSDOF 2
ENDMDL
MODEL 4
REMARK VINA RESULT:      -2.7      1.867      3.559
REMARK  2 active torsions:
REMARK  status: ('A' for Active; 'I' for Inactive)
REMARK    1  A    between atoms: C_7  and  C_1 
REMARK    2  A    between atoms: C_8  and  C_7 
ROOT
ATOM      1  C   UNL d   1      58.397   0.679  30.535  0.00  0.00     0.118 A 
ATOM      2  N   UNL d   1      58.115   0.677  31.936  0.00  0.00    -0.178 NA
ATOM      3  N   UNL d   1      57.046   0.676  30.994  0.00  0.00    -0.178 NA
ATOM      4  C   UNL d   1      58.662   0.679  31.314  0.00  0.00     0.286 A 
ATOM      5  C   UNL d   1      57.593   0.678  30.372  0.00  0.00     0.286 A 
ATOM      6  C   UNL d   1      57.293   0.676  31.789  0.00  0.00     0.226 A 
ATOM      7  S   UNL d   1      56.749   0.675  32.406  0.00  0.00    -0.037 SA
ATOM      8  O   UNL d   1      59.481   0.680  31.489  0.00  0.00    -0.265 OA
ATOM      9  O   UNL d   1      57.317   0.678  29.583  0.00  0.00    -0.265 OA
ENDROOT
BRANCH   1  10
ATOM     10  C   UNL d   1      58.947   0.680  29.911  0.00  0.00     0.034 C 
BRANCH  10  11
ATOM     11  C   UNL d   1      59.190  -0.030  29.588  0.00  0.00     0.100 A 
ATOM     12  O   UNL d   1      59.970  -0.110  29.322  0.00  0.00    -0.307 OA
ATOM     13  C   UNL d   1      60.052  -0.877  29.029  0.00  0.00     0.100 A 
ATOM     14  C   UNL d   1      60.740  -1.203  28.704  0.00  0.00     0.027 C 
ATOM     15  C   UNL d   1      59.345  -1.255  29.113  0.00  0.00     0.027 A 
ATOM     16  C   UNL d   1      58.795  -0.748  29.459  0.00  0.00     0.027 A 
ENDBRANCH  10  11
ENDBRANCH   1  10
TORSDOF 2
ENDMDL
