MODEL 1
REMARK VINA RESULT:      -2.6      0.000      0.000
REMARK  4 active torsions:
REMARK  status: ('A' for Active; 'I' for Inactive)
REMARK    1  A    between atoms: C_3  and  N_1 
REMARK    2  A    between atoms: C_2  and  C_7 
REMARK       I    between atoms: N_4  and  C_2 
REMARK    3  A    between atoms: C_15  and  N_4 
REMARK    4  A    between atoms: C_8  and  C_15 
ROOT
ATOM      1  C   UNL d   1      29.133  16.203 -23.792  0.00  0.00     0.127 A 
ATOM      2  C   UNL d   1      30.711  16.141 -24.254  0.00  0.00     0.058 A 
ATOM      3  C   UNL d   1      29.386  16.562 -24.494  0.00  0.00     0.024 A 
ATOM      4  C   UNL d   1      29.710  15.798 -23.308  0.00  0.00     0.024 A 
ATOM      5  C   UNL d   1      30.484  15.776 -23.550  0.00  0.00     0.006 A 
ATOM      6  C   UNL d   1      30.166  16.524 -24.711  0.00  0.00     0.006 A 
ENDROOT
BRANCH   2   7
ATOM      7  C   UNL d   1      31.517  16.097 -24.469  0.00  0.00     0.279 C 
ATOM      8  N   UNL d   1      32.049  16.703 -24.271  0.00  0.00    -0.200 NA
ATOM      9  O   UNL d   1      31.795  15.453 -24.881  0.00  0.00    -0.265 OA
BRANCH   8  10
ATOM     10  C   UNL d   1      31.765  17.372 -23.845  0.00  0.00     0.172 C 
BRANCH  10  11
ATOM     11  C   UNL d   1      32.273  17.978 -23.644  0.00  0.00     0.231 C 
ATOM     12  O   UNL d   1      32.415  18.594 -24.191  0.00  0.00    -0.643 OA
ATOM     13  O   UNL d   1      32.634  17.977 -22.921  0.00  0.00    -0.643 OA
ENDBRANCH  10  11
ENDBRANCH   8  10
ENDBRANCH   2   7
BRANCH   1  14
ATOM     14  N   UNL d   1      28.326  16.229 -23.545  0.00  0.00    -0.114 N 
ATOM     15  O   UNL d   1      27.981  16.935 -23.247  0.00  0.00    -0.532 OA
ATOM     16  O   UNL d   1      27.867  15.539 -23.600  0.00  0.00    -0.532 OA
ENDBRANCH   1  14
TORSDOF 4
ENDMDL
MODEL 2
REMARK VINA RESULT:      -2.2      1.844      3.985
REMARK  4 active torsions:
REMARK  status: ('A' for Active; 'I' for Inactive)
REMARK    1  A    between atoms: C_3  and  N_1 
REMARK    2  A    between atoms: C_2  and  C_7 
REMARK       I    between atoms: N_4  and  C_2 
REMARK    3  A    between atoms: C_15  and  N_4 
REMARK    4  A    between atoms: C_8  and  C_15 
ROOT
ATOM      1  C   UNL d   1      33.000  19.101 -22.998  0.00  0.00     0.127 A 
ATOM      2  C   UNL d   1      32.688  17.866 -24.039  0.00  0.00     0.058 A 
ATOM      3  C   UNL d   1      32.888  18.328 -22.721  0.00  0.00     0.024 A 
ATOM      4  C   UNL d   1      32.950  19.246 -23.839  0.00  0.00     0.024 A 
ATOM      5  C   UNL d   1      32.796  18.627 -24.339  0.00  0.00     0.006 A 
ATOM      6  C   UNL d   1      32.735  17.728 -23.245  0.00  0.00     0.006 A 
ENDROOT
BRANCH   2   7
ATOM      7  C   UNL d   1      32.531  17.254 -24.585  0.00  0.00     0.279 C 
ATOM      8  N   UNL d   1      31.753  17.026 -24.764  0.00  0.00    -0.200 NA
ATOM      9  O   UNL d   1      33.144  16.869 -24.955  0.00  0.00    -0.265 OA
BRANCH   8  10
ATOM     10  C   UNL d   1      31.114  17.423 -24.384  0.00  0.00     0.172 C 
BRANCH  10  11
ATOM     11  C   UNL d   1      30.343  17.221 -24.557  0.00  0.00     0.231 C 
ATOM     12  O   UNL d   1      29.907  17.686 -25.097  0.00  0.00    -0.643 OA
ATOM     13  O   UNL d   1      30.008  16.574 -24.205  0.00  0.00    -0.643 OA
ENDBRANCH  10  11
ENDBRANCH   8  10
ENDBRANCH   2   7
BRANCH   1  14
ATOM     14  N   UNL d   1      33.161  19.742 -22.472  0.00  0.00    -0.114 N 
ATOM     15  O   UNL d   1      33.241  20.529 -22.753  0.00  0.00    -0.532 OA
ATOM     16  O   UNL d   1      33.241  19.585 -21.661  0.00  0.00    -0.532 OA
ENDBRANCH   1  14
TORSDOF 4
ENDMDL
MODEL 3
REMARK VINA RESULT:      -1.8      1.239      3.601
REMARK  4 active torsions:
REMARK  status: ('A' for Active; 'I' for Inactive)
REMARK    1  A    between atoms: C_3  and  N_1 
REMARK    2  A    between atoms: C_2  and  C_7 
REMARK       I    between atoms: N_4  and  C_2 
REMARK    3  A    between atoms: C_15  and  N_4 
REMARK    4  A    between atoms: C_8  and  C_15 
ROOT
ATOM      1  C   UNL d   1      32.028  16.431 -24.304  0.00  0.00     0.127 A 
ATOM      2  C   UNL d   1      30.503  17.007 -24.524  0.00  0.00     0.058 A 
ATOM      3  C   UNL d   1      31.711  17.002 -23.795  0.00  0.00     0.024 A 
ATOM      4  C   UNL d   1      31.547  16.145 -24.950  0.00  0.00     0.024 A 
ATOM      5  C   UNL d   1      30.797  16.439 -25.045  0.00  0.00     0.006 A 
ATOM      6  C   UNL d   1      30.958  17.278 -23.914  0.00  0.00     0.006 A 
ENDROOT
BRANCH   2   7
ATOM      7  C   UNL d   1      29.727  17.285 -24.654  0.00  0.00     0.279 C 
ATOM      8  N   UNL d   1      29.069  16.889 -24.338  0.00  0.00    -0.200 NA
ATOM      9  O   UNL d   1      29.602  17.956 -25.097  0.00  0.00    -0.265 OA
BRANCH   8  10
ATOM     10  C   UNL d   1      29.193  16.194 -23.878  0.00  0.00     0.172 C 
BRANCH  10  11
ATOM     11  C   UNL d   1      28.566  15.828 -23.507  0.00  0.00     0.231 C 
ATOM     12  O   UNL d   1      27.969  15.467 -23.967  0.00  0.00    -0.643 OA
ATOM     13  O   UNL d   1      28.527  15.819 -22.699  0.00  0.00    -0.643 OA
ENDBRANCH  10  11
ENDBRANCH   8  10
ENDBRANCH   2   7
BRANCH   1  14
ATOM     14  N   UNL d   1      32.811  16.129 -24.200  0.00  0.00    -0.114 N 
ATOM     15  O   UNL d   1      33.157  16.063 -23.439  0.00  0.00    -0.532 OA
ATOM     16  O   UNL d   1      33.241  15.893 -24.870  0.00  0.00    -0.532 OA
ENDBRANCH   1  14
TORSDOF 4
ENDMDL
MODEL 4
REMARK VINA RESULT:      -1.6      1.926      4.128
REMARK  4 active torsions:
REMARK  status: ('A' for Active; 'I' for Inactive)
REMARK    1  A    between atoms: C_3  and  N_1 
REMARK    2  A    between atoms: C_2  and  C_7 
REMARK       I    between atoms: N_4  and  C_2 
REMARK    3  A    between atoms: C_15  and  N_4 
REMARK    4  A    between atoms: C_8  and  C_15 
ROOT
ATOM      1  C   UNL d   1      32.877  19.449 -22.532  0.00  0.00     0.127 A 
ATOM      2  C   UNL d   1      32.817  18.213 -23.616  0.00  0.00     0.058 A 
ATOM      3  C   UNL d   1      33.240  18.722 -22.370  0.00  0.00     0.024 A 
ATOM      4  C   UNL d   1      32.468  19.546 -23.276  0.00  0.00     0.024 A 
ATOM      5  C   UNL d   1      32.447  18.928 -23.800  0.00  0.00     0.006 A 
ATOM      6  C   UNL d   1      33.203  18.121 -22.913  0.00  0.00     0.006 A 
ENDROOT
BRANCH   2   7
ATOM      7  C   UNL d   1      32.774  17.600 -24.181  0.00  0.00     0.279 C 
ATOM      8  N   UNL d   1      32.258  16.957 -24.079  0.00  0.00    -0.200 NA
ATOM      9  O   UNL d   1      33.241  17.623 -24.846  0.00  0.00    -0.265 OA
BRANCH   8  10
ATOM     10  C   UNL d   1      31.772  16.928 -23.391  0.00  0.00     0.172 C 
BRANCH  10  11
ATOM     11  C   UNL d   1      31.219  16.335 -23.303  0.00  0.00     0.231 C 
ATOM     12  O   UNL d   1      30.420  16.486 -23.499  0.00  0.00    -0.643 OA
ATOM     13  O   UNL d   1      31.447  15.610 -23.029  0.00  0.00    -0.643 OA
ENDBRANCH  10  11
ENDBRANCH   8  10
ENDBRANCH   2   7
BRANCH   1  14
ATOM     14  N   UNL d   1      32.902  20.090 -21.982  0.00  0.00    -0.114 N 
ATOM     15  O   UNL d   1      32.902  19.956 -21.153  0.00  0.00    -0.532 OA
ATOM     16  O   UNL d   1      32.927  20.867 -22.274  0.00  0.00    -0.532 OA
ENDBRANCH   1  14
TORSDOF 4
ENDMDL
MODEL 5
REMARK VINA RESULT:      -1.4      6.000      7.748
REMARK  4 active torsions:
REMARK  status: ('A' for Active; 'I' for Inactive)
REMARK    1  A    between atoms: C_3  and  N_1 
REMARK    2  A    between atoms: C_2  and  C_7 
REMARK       I    between atoms: N_4  and  C_2 
REMARK    3  A    between atoms: C_15  and  N_4 
REMARK    4  A    between atoms: C_8  and  C_15 
ROOT
ATOM      1  C   UNL d   1      32.527  23.241 -19.161  0.00  0.00     0.127 A 
ATOM      2  C   UNL d   1      32.512  23.067 -20.797  0.00  0.00     0.058 A 
ATOM      3  C   UNL d   1      31.832  23.035 -19.561  0.00  0.00     0.024 A 
ATOM      4  C   UNL d   1      33.241  23.362 -19.616  0.00  0.00     0.024 A 
ATOM      5  C   UNL d   1      33.217  23.272 -20.421  0.00  0.00     0.006 A 
ATOM      6  C   UNL d   1      31.837  22.952 -20.368  0.00  0.00     0.006 A 
ENDROOT
BRANCH   2   7
ATOM      7  C   UNL d   1      32.527  22.984 -21.628  0.00  0.00     0.279 C 
ATOM      8  N   UNL d   1      32.716  22.258 -21.985  0.00  0.00    -0.200 NA
ATOM      9  O   UNL d   1      32.355  23.620 -22.105  0.00  0.00    -0.265 OA
BRANCH   8  10
ATOM     10  C   UNL d   1      32.895  21.597 -21.494  0.00  0.00     0.172 C 
BRANCH  10  11
ATOM     11  C   UNL d   1      33.051  20.868 -21.826  0.00  0.00     0.231 C 
ATOM     12  O   UNL d   1      33.232  20.818 -22.641  0.00  0.00    -0.643 OA
ATOM     13  O   UNL d   1      33.028  20.203 -21.366  0.00  0.00    -0.643 OA
ENDBRANCH  10  11
ENDBRANCH   8  10
ENDBRANCH   2   7
BRANCH   1  14
ATOM     14  N   UNL d   1      32.546  23.333 -18.321  0.00  0.00    -0.114 N 
ATOM     15  O   UNL d   1      31.916  23.702 -17.908  0.00  0.00    -0.532 OA
ATOM     16  O   UNL d   1      33.204  23.050 -17.902  0.00  0.00    -0.532 OA
ENDBRANCH   1  14
TORSDOF 4
ENDMDL
MODEL 6
REMARK VINA RESULT:      -1.3      4.139      6.009
REMARK  4 active torsions:
REMARK  status: ('A' for Active; 'I' for Inactive)
REMARK    1  A    between atoms: C_3  and  N_1 
REMARK    2  A    between atoms: C_2  and  C_7 
REMARK       I    between atoms: N_4  and  C_2 
REMARK    3  A    between atoms: C_15  and  N_4 
REMARK    4  A    between atoms: C_8  and  C_15 
ROOT
ATOM      1  C   UNL d   1      32.268  22.303 -21.182  0.00  0.00     0.127 A 
ATOM      2  C   UNL d   1      32.721  20.724 -21.266  0.00  0.00     0.058 A 
ATOM      3  C   UNL d   1      31.763  21.701 -20.921  0.00  0.00     0.024 A 
ATOM      4  C   UNL d   1      33.033  22.089 -21.499  0.00  0.00     0.024 A 
ATOM      5  C   UNL d   1      33.241  21.306 -21.533  0.00  0.00     0.006 A 
ATOM      6  C   UNL d   1      31.998  20.927 -20.967  0.00  0.00     0.006 A 
ENDROOT
BRANCH   2   7
ATOM      7  C   UNL d   1      32.971  19.929 -21.318  0.00  0.00     0.279 C 
ATOM      8  N   UNL d   1      32.957  19.520 -22.041  0.00  0.00    -0.200 NA
ATOM      9  O   UNL d   1      33.235  19.540 -20.655  0.00  0.00    -0.265 OA
BRANCH   8  10
ATOM     10  C   UNL d   1      32.684  19.919 -22.731  0.00  0.00     0.172 C 
BRANCH  10  11
ATOM     11  C   UNL d   1      32.677  19.537 -23.451  0.00  0.00     0.231 C 
ATOM     12  O   UNL d   1      32.141  18.908 -23.578  0.00  0.00    -0.643 OA
ATOM     13  O   UNL d   1      33.187  19.769 -24.035  0.00  0.00    -0.643 OA
ENDBRANCH  10  11
ENDBRANCH   8  10
ENDBRANCH   2   7
BRANCH   1  14
ATOM     14  N   UNL d   1      32.046  23.118 -21.144  0.00  0.00    -0.114 N 
ATOM     15  O   UNL d   1      31.807  23.539 -21.829  0.00  0.00    -0.532 OA
ATOM     16  O   UNL d   1      32.066  23.505 -20.409  0.00  0.00    -0.532 OA
ENDBRANCH   1  14
TORSDOF 4
ENDMDL
MODEL 7
REMARK VINA RESULT:      -1.0      5.395      7.197
REMARK  4 active torsions:
REMARK  status: ('A' for Active; 'I' for Inactive)
REMARK    1  A    between atoms: C_3  and  N_1 
REMARK    2  A    between atoms: C_2  and  C_7 
REMARK       I    between atoms: N_4  and  C_2 
REMARK    3  A    between atoms: C_15  and  N_4 
REMARK    4  A    between atoms: C_8  and  C_15 
ROOT
ATOM      1  C   UNL d   1      32.529  22.844 -19.571  0.00  0.00     0.127 A 
ATOM      2  C   UNL d   1      32.549  22.435 -21.164  0.00  0.00     0.058 A 
ATOM      3  C   UNL d   1      33.241  22.811 -19.993  0.00  0.00     0.024 A 
ATOM      4  C   UNL d   1      31.801  22.660 -19.979  0.00  0.00     0.024 A 
ATOM      5  C   UNL d   1      31.828  22.461 -20.765  0.00  0.00     0.006 A 
ATOM      6  C   UNL d   1      33.237  22.608 -20.778  0.00  0.00     0.006 A 
ENDROOT
BRANCH   2   7
ATOM      7  C   UNL d   1      32.536  22.225 -21.972  0.00  0.00     0.279 C 
ATOM      8  N   UNL d   1      32.758  21.466 -22.224  0.00  0.00    -0.200 NA
ATOM      9  O   UNL d   1      32.302  22.768 -22.531  0.00  0.00    -0.265 OA
BRANCH   8  10
ATOM     10  C   UNL d   1      33.001  20.900 -21.648  0.00  0.00     0.172 C 
BRANCH  10  11
ATOM     11  C   UNL d   1      33.081  20.115 -21.851  0.00  0.00     0.231 C 
ATOM     12  O   UNL d   1      33.234  19.549 -21.256  0.00  0.00    -0.643 OA
ATOM     13  O   UNL d   1      33.011  19.891 -22.625  0.00  0.00    -0.643 OA
ENDBRANCH  10  11
ENDBRANCH   8  10
ENDBRANCH   2   7
BRANCH   1  14
ATOM     14  N   UNL d   1      32.508  23.052 -18.752  0.00  0.00    -0.114 N 
ATOM     15  O   UNL d   1      32.014  23.670 -18.471  0.00  0.00    -0.532 OA
ATOM     16  O   UNL d   1      32.988  22.634 -18.219  0.00  0.00    -0.532 OA
ENDBRANCH   1  14
TORSDOF 4
ENDMDL
