MODEL 1
REMARK VINA RESULT:      67.2      0.000      0.000
REMARK  3 active torsions:
REMARK  status: ('A' for Active; 'I' for Inactive)
REMARK    1  A    between atoms: N_3  and  S_1 
REMARK    2  A    between atoms: C_5  and  S_1 
REMARK       I    between atoms: C_2  and  N_4 
REMARK       I    between atoms: N_6  and  C_2 
REMARK    3  A    between atoms: C_13  and  N_6 
ROOT
ATOM      1  C   UNL d   1     -55.414-102.177 -39.263  0.00  0.00     0.339 C 
ATOM      2  N   UNL d   1     -55.176-101.542 -41.657  0.00  0.00    -0.226 N 
ATOM      3  N   UNL d   1     -55.335-101.967 -40.057  0.00  0.00    -0.254 N 
ATOM      4  N   UNL d   1     -55.103-101.694 -38.670  0.00  0.00    -0.257 N 
ATOM      5  C   UNL d   1     -54.860-101.051 -41.066  0.00  0.00     0.111 A 
ATOM      6  C   UNL d   1     -55.568-102.238 -41.447  0.00  0.00     0.111 A 
ATOM      7  O   UNL d   1     -55.811-102.880 -39.069  0.00  0.00    -0.245 OA
ATOM      8  C   UNL d   1     -54.939-101.263 -40.268  0.00  0.00     0.104 A 
ATOM      9  C   UNL d   1     -55.647-102.449 -40.653  0.00  0.00     0.104 A 
ATOM     10  C   UNL d   1     -54.712-101.001 -38.869  0.00  0.00     0.104 C 
ENDROOT
BRANCH   2  11
ATOM     11  S   UNL d   1     -55.098-101.333 -42.447  0.00  0.00     0.271 S 
ATOM     12  O   UNL d   1     -55.439-100.601 -42.277  0.00  0.00    -0.200 OA
ATOM     13  O   UNL d   1     -54.758-102.069 -42.599  0.00  0.00    -0.200 OA
BRANCH  11  14
ATOM     14  C   UNL d   1     -55.019-101.122 -43.239  0.00  0.00     0.104 A 
ATOM     15  C   UNL d   1     -54.969-100.331 -43.446  0.00  0.00     0.013 A 
ATOM     16  C   UNL d   1     -54.891-100.124 -44.227  0.00  0.00     0.001 A 
ATOM     17  C   UNL d   1     -54.841 -99.330 -44.441  0.00  0.00     0.000 C 
ATOM     18  C   UNL d   1     -54.863-100.695 -44.805  0.00  0.00     0.000 A 
ATOM     19  C   UNL d   1     -54.913-101.488 -44.591  0.00  0.00     0.001 A 
ATOM     20  C   UNL d   1     -54.784-100.485 -45.598  0.00  0.00     0.000 C 
ATOM     21  C   UNL d   1     -54.991-101.695 -43.810  0.00  0.00     0.013 A 
ENDBRANCH  11  14
ENDBRANCH   2  11
BRANCH   4  22
ATOM     22  C   UNL d   1     -55.188-101.917 -37.872  0.00  0.00     0.068 A 
ATOM     23  C   UNL d   1     -55.734-102.498 -37.652  0.00  0.00     0.018 A 
ATOM     24  C   UNL d   1     -55.808-102.708 -36.857  0.00  0.00     0.002 A 
ATOM     25  C   UNL d   1     -55.341-102.342 -36.285  0.00  0.00     0.000 A 
ATOM     26  C   UNL d   1     -54.792-101.756 -36.513  0.00  0.00     0.002 A 
ATOM     27  C   UNL d   1     -55.417-102.554 -35.492  0.00  0.00     0.000 C 
ATOM     28  C   UNL d   1     -54.722-101.549 -37.309  0.00  0.00     0.018 A 
ENDBRANCH   4  22
TORSDOF 3
ENDMDL
