MODEL 1
REMARK VINA RESULT:      87.5      0.000      0.000
REMARK  6 active torsions:
REMARK  status: ('A' for Active; 'I' for Inactive)
REMARK    1  A    between atoms: C_4  and  N_1 
REMARK    2  A    between atoms: N_6  and  C_2 
REMARK    3  A    between atoms: S_10  and  C_7 
REMARK    4  A    between atoms: C_12  and  C_9 
REMARK    5  A    between atoms: C_11  and  S_10 
REMARK    6  A    between atoms: O_24  and  C_20 
ROOT
ATOM      1  N   UNL d   1     -56.014 -99.480 -43.452  0.00  0.00    -0.240 N 
ATOM      2  C   UNL d   1     -55.312 -99.181 -43.743  0.00  0.00     0.268 A 
ATOM      3  C   UNL d   1     -55.873 -99.968 -42.795  0.00  0.00     0.273 A 
ATOM      4  C   UNL d   1     -55.045 -99.964 -42.682  0.00  0.00     0.091 A 
ATOM      5  C   UNL d   1     -54.712 -99.482 -43.264  0.00  0.00     0.072 A 
ATOM      6  O   UNL d   1     -55.002 -98.778 -44.225  0.00  0.00    -0.267 OA
ATOM      7  O   UNL d   1     -56.414-100.380 -42.333  0.00  0.00    -0.266 OA
ENDROOT
BRANCH   1   8
ATOM      8  C   UNL d   1     -56.764 -99.314 -43.776  0.00  0.00     0.092 A 
ATOM      9  C   UNL d   1     -56.845 -99.384 -44.586  0.00  0.00     0.145 A 
ATOM     10  C   UNL d   1     -57.585 -99.223 -44.933  0.00  0.00     0.049 A 
ATOM     11  C   UNL d   1     -58.220 -98.997 -44.458  0.00  0.00     0.096 A 
ATOM     12  C   UNL d   1     -58.126 -98.928 -43.617  0.00  0.00     0.026 A 
ATOM     13  C   UNL d   1     -57.389 -99.090 -43.288  0.00  0.00     0.021 A 
BRANCH   9  14
ATOM     14  N   UNL d   1     -56.201 -99.610 -45.051  0.00  0.00    -0.112 N 
ATOM     15  O   UNL d   1     -55.919 -99.282 -45.320  0.00  0.00    -0.532 OA
ATOM     16  O   UNL d   1     -55.942-100.391 -45.130  0.00  0.00    -0.532 OA
ENDBRANCH   9  14
BRANCH  11  17
ATOM     17  O   UNL d   1     -58.946 -98.842 -44.825  0.00  0.00    -0.328 OA
ATOM     18  C   UNL d   1     -59.653 -98.951 -44.428  0.00  0.00     0.181 C 
ENDBRANCH  11  17
ENDBRANCH   1   8
BRANCH   4  19
ATOM     19  S   UNL d   1     -54.718-100.397 -42.069  0.00  0.00    -0.082 SA
BRANCH  19  20
ATOM     20  C   UNL d   1     -54.793-101.235 -42.066  0.00  0.00     0.035 A 
ATOM     21  C   UNL d   1     -54.927-101.632 -41.371  0.00  0.00     0.070 A 
ATOM     22  C   UNL d   1     -55.000-102.445 -41.362  0.00  0.00     0.007 A 
ATOM     23  C   UNL d   1     -54.937-102.865 -42.081  0.00  0.00     0.000 A 
ATOM     24  C   UNL d   1     -54.801-102.466 -42.794  0.00  0.00     0.001 A 
ATOM     25  C   UNL d   1     -54.731-101.637 -42.762  0.00  0.00     0.007 A 
BRANCH  21  26
ATOM     26  C   UNL d   1     -54.992-101.233 -40.653  0.00  0.00     0.211 C 
ATOM     27  O   UNL d   1     -55.313-101.589 -39.990  0.00  0.00    -0.644 OA
ATOM     28  O   UNL d   1     -54.727-100.439 -40.586  0.00  0.00    -0.644 OA
ENDBRANCH  21  26
ENDBRANCH  19  20
ENDBRANCH   4  19
TORSDOF 6
ENDMDL
