MODEL 1
REMARK VINA RESULT:      -8.3      0.000      0.000
REMARK  4 active torsions:
REMARK  status: ('A' for Active; 'I' for Inactive)
REMARK    1  A    between atoms: C_5  and  N_1 
REMARK    2  A    between atoms: C_7  and  C_5 
REMARK    3  A    between atoms: O_10  and  C_8 
REMARK    4  A    between atoms: C_14  and  O_10 
ROOT
ATOM      1  C   UNL d   1      53.087  32.356  54.017  0.00  0.00     0.087 C 
ENDROOT
BRANCH   1   2
ATOM      2  N   UNL d   1      52.977  31.739  53.490  0.00  0.00    -0.251 N 
ATOM      3  C   UNL d   1      52.782  31.770  52.679  0.00  0.00     0.378 A 
ATOM      4  O   UNL d   1      52.735  30.989  52.394  0.00  0.00    -0.258 OA
ATOM      5  O   UNL d   1      52.658  32.456  52.239  0.00  0.00    -0.237 OA
ATOM      6  C   UNL d   1      52.898  30.476  53.020  0.00  0.00     0.121 A 
ATOM      7  C   UNL d   1      53.047  30.935  53.694  0.00  0.00     0.092 A 
ATOM      8  C   UNL d   1      52.934  29.645  53.076  0.00  0.00     0.026 A 
ATOM      9  C   UNL d   1      53.230  30.567  54.416  0.00  0.00     0.020 A 
ATOM     10  C   UNL d   1      53.264  29.746  54.464  0.00  0.00     0.002 A 
ATOM     11  C   UNL d   1      53.115  29.284  53.792  0.00  0.00     0.002 A 
ENDBRANCH   1   2
BRANCH   1  12
ATOM     12  C   UNL d   1      53.781  32.796  54.008  0.00  0.00     0.041 A 
ATOM     13  C   UNL d   1      53.790  33.562  54.298  0.00  0.00     0.101 A 
ATOM     14  C   UNL d   1      54.483  34.001  54.288  0.00  0.00     0.025 A 
ATOM     15  C   UNL d   1      55.177  33.665  53.984  0.00  0.00     0.002 A 
ATOM     16  C   UNL d   1      55.173  32.893  53.690  0.00  0.00     0.000 A 
ATOM     17  C   UNL d   1      54.475  32.457  53.702  0.00  0.00     0.004 A 
BRANCH  13  18
ATOM     18  O   UNL d   1      53.098  33.897  54.601  0.00  0.00    -0.307 OA
BRANCH  18  19
ATOM     19  C   UNL d   1      53.067  34.708  54.760  0.00  0.00     0.100 C 
ATOM     20  C   UNL d   1      53.283  34.992  55.500  0.00  0.00     0.027 C 
ATOM     21  C   UNL d   1      52.818  35.231  54.173  0.00  0.00     0.027 C 
ENDBRANCH  18  19
ENDBRANCH  13  18
ENDBRANCH   1  12
TORSDOF 4
ENDMDL
MODEL 2
REMARK VINA RESULT:      -8.1      1.574      2.139
REMARK  4 active torsions:
REMARK  status: ('A' for Active; 'I' for Inactive)
REMARK    1  A    between atoms: C_5  and  N_1 
REMARK    2  A    between atoms: C_7  and  C_5 
REMARK    3  A    between atoms: O_10  and  C_8 
REMARK    4  A    between atoms: C_14  and  O_10 
ROOT
ATOM      1  C   UNL d   1      53.015  32.675  52.864  0.00  0.00     0.087 C 
ENDROOT
BRANCH   1   2
ATOM      2  N   UNL d   1      53.469  32.059  53.156  0.00  0.00    -0.251 N 
ATOM      3  C   UNL d   1      54.273  32.059  53.378  0.00  0.00     0.378 A 
ATOM      4  O   UNL d   1      54.471  31.294  53.640  0.00  0.00    -0.258 OA
ATOM      5  O   UNL d   1      54.783  32.707  53.342  0.00  0.00    -0.237 OA
ATOM      6  C   UNL d   1      53.797  30.820  53.583  0.00  0.00     0.121 A 
ATOM      7  C   UNL d   1      53.181  31.289  53.286  0.00  0.00     0.092 A 
ATOM      8  C   UNL d   1      53.652  30.019  53.760  0.00  0.00     0.026 A 
ATOM      9  C   UNL d   1      52.427  30.959  53.167  0.00  0.00     0.020 A 
ATOM     10  C   UNL d   1      52.291  30.167  53.345  0.00  0.00     0.002 A 
ATOM     11  C   UNL d   1      52.904  29.696  53.642  0.00  0.00     0.002 A 
ENDBRANCH   1   2
BRANCH   1  12
ATOM     12  C   UNL d   1      52.818  33.314  53.343  0.00  0.00     0.041 A 
ATOM     13  C   UNL d   1      52.154  33.763  53.180  0.00  0.00     0.101 A 
ATOM     14  C   UNL d   1      51.958  34.401  53.658  0.00  0.00     0.025 A 
ATOM     15  C   UNL d   1      52.436  34.589  54.307  0.00  0.00     0.002 A 
ATOM     16  C   UNL d   1      53.108  34.138  54.476  0.00  0.00     0.000 A 
ATOM     17  C   UNL d   1      53.300  33.499  53.993  0.00  0.00     0.004 A 
BRANCH  13  18
ATOM     18  O   UNL d   1      51.676  33.576  52.531  0.00  0.00    -0.307 OA
BRANCH  18  19
ATOM     19  C   UNL d   1      51.070  34.091  52.302  0.00  0.00     0.100 C 
ATOM     20  C   UNL d   1      50.365  34.111  52.722  0.00  0.00     0.027 C 
ATOM     21  C   UNL d   1      51.178  34.586  51.651  0.00  0.00     0.027 C 
ENDBRANCH  18  19
ENDBRANCH  13  18
ENDBRANCH   1  12
TORSDOF 4
ENDMDL
MODEL 3
REMARK VINA RESULT:      -7.9      1.701      3.583
REMARK  4 active torsions:
REMARK  status: ('A' for Active; 'I' for Inactive)
REMARK    1  A    between atoms: C_5  and  N_1 
REMARK    2  A    between atoms: C_7  and  C_5 
REMARK    3  A    between atoms: O_10  and  C_8 
REMARK    4  A    between atoms: C_14  and  O_10 
ROOT
ATOM      1  C   UNL d   1      52.996  33.162  53.109  0.00  0.00     0.087 C 
ENDROOT
BRANCH   1   2
ATOM      2  N   UNL d   1      52.546  33.846  53.122  0.00  0.00    -0.251 N 
ATOM      3  C   UNL d   1      52.799  34.639  53.182  0.00  0.00     0.378 A 
ATOM      4  O   UNL d   1      52.125  35.127  53.171  0.00  0.00    -0.258 OA
ATOM      5  O   UNL d   1      53.582  34.892  53.242  0.00  0.00    -0.237 OA
ATOM      6  C   UNL d   1      51.458  34.645  53.105  0.00  0.00     0.121 A 
ATOM      7  C   UNL d   1      51.715  33.857  53.074  0.00  0.00     0.092 A 
ATOM      8  C   UNL d   1      50.642  34.810  53.067  0.00  0.00     0.026 A 
ATOM      9  C   UNL d   1      51.162  33.241  53.007  0.00  0.00     0.020 A 
ATOM     10  C   UNL d   1      50.358  33.411  52.970  0.00  0.00     0.002 A 
ATOM     11  C   UNL d   1      50.097  34.197  53.000  0.00  0.00     0.002 A 
ENDBRANCH   1   2
BRANCH   1  12
ATOM     12  C   UNL d   1      53.350  32.880  53.795  0.00  0.00     0.041 A 
ATOM     13  C   UNL d   1      53.527  32.085  53.873  0.00  0.00     0.101 A 
ATOM     14  C   UNL d   1      53.880  31.804  54.559  0.00  0.00     0.025 A 
ATOM     15  C   UNL d   1      54.059  32.330  55.173  0.00  0.00     0.002 A 
ATOM     16  C   UNL d   1      53.882  33.134  55.099  0.00  0.00     0.000 A 
ATOM     17  C   UNL d   1      53.528  33.410  54.409  0.00  0.00     0.004 A 
BRANCH  13  18
ATOM     18  O   UNL d   1      53.349  31.559  53.260  0.00  0.00    -0.307 OA
BRANCH  18  19
ATOM     19  C   UNL d   1      53.499  30.751  53.353  0.00  0.00     0.100 C 
ATOM     20  C   UNL d   1      54.252  30.453  53.217  0.00  0.00     0.027 C 
ATOM     21  C   UNL d   1      52.890  30.245  53.583  0.00  0.00     0.027 C 
ENDBRANCH  18  19
ENDBRANCH  13  18
ENDBRANCH   1  12
TORSDOF 4
ENDMDL
MODEL 4
REMARK VINA RESULT:      -7.5      2.032      3.230
REMARK  4 active torsions:
REMARK  status: ('A' for Active; 'I' for Inactive)
REMARK    1  A    between atoms: C_5  and  N_1 
REMARK    2  A    between atoms: C_7  and  C_5 
REMARK    3  A    between atoms: O_10  and  C_8 
REMARK    4  A    between atoms: C_14  and  O_10 
ROOT
ATOM      1  C   UNL d   1      52.556  33.803  53.708  0.00  0.00     0.087 C 
ENDROOT
BRANCH   1   2
ATOM      2  N   UNL d   1      52.156  34.080  53.050  0.00  0.00    -0.251 N 
ATOM      3  C   UNL d   1      52.464  34.421  52.353  0.00  0.00     0.378 A 
ATOM      4  O   UNL d   1      51.827  34.610  51.852  0.00  0.00    -0.258 OA
ATOM      5  O   UNL d   1      53.264  34.547  52.191  0.00  0.00    -0.237 OA
ATOM      6  C   UNL d   1      51.127  34.390  52.232  0.00  0.00     0.121 A 
ATOM      7  C   UNL d   1      51.328  34.064  52.967  0.00  0.00     0.092 A 
ATOM      8  C   UNL d   1      50.324  34.439  52.012  0.00  0.00     0.026 A 
ATOM      9  C   UNL d   1      50.732  33.790  53.478  0.00  0.00     0.020 A 
ATOM     10  C   UNL d   1      49.941  33.842  53.254  0.00  0.00     0.002 A 
ATOM     11  C   UNL d   1      49.737  34.167  52.520  0.00  0.00     0.002 A 
ENDBRANCH   1   2
BRANCH   1  12
ATOM     12  C   UNL d   1      52.988  33.104  53.672  0.00  0.00     0.041 A 
ATOM     13  C   UNL d   1      53.644  32.998  54.151  0.00  0.00     0.101 A 
ATOM     14  C   UNL d   1      54.075  32.301  54.114  0.00  0.00     0.025 A 
ATOM     15  C   UNL d   1      53.844  31.703  53.590  0.00  0.00     0.002 A 
ATOM     16  C   UNL d   1      53.184  31.805  53.104  0.00  0.00     0.000 A 
ATOM     17  C   UNL d   1      52.754  32.507  53.145  0.00  0.00     0.004 A 
BRANCH  13  18
ATOM     18  O   UNL d   1      53.874  33.595  54.675  0.00  0.00    -0.307 OA
BRANCH  18  19
ATOM     19  C   UNL d   1      54.544  33.492  55.150  0.00  0.00     0.100 C 
ATOM     20  C   UNL d   1      54.482  33.104  55.871  0.00  0.00     0.027 C 
ATOM     21  C   UNL d   1      55.273  33.779  54.896  0.00  0.00     0.027 C 
ENDBRANCH  18  19
ENDBRANCH  13  18
ENDBRANCH   1  12
TORSDOF 4
ENDMDL
MODEL 5
REMARK VINA RESULT:      -7.2      2.188      3.638
REMARK  4 active torsions:
REMARK  status: ('A' for Active; 'I' for Inactive)
REMARK    1  A    between atoms: C_5  and  N_1 
REMARK    2  A    between atoms: C_7  and  C_5 
REMARK    3  A    between atoms: O_10  and  C_8 
REMARK    4  A    between atoms: C_14  and  O_10 
ROOT
ATOM      1  C   UNL d   1      52.120  34.261  53.999  0.00  0.00     0.087 C 
ENDROOT
BRANCH   1   2
ATOM      2  N   UNL d   1      52.830  34.415  54.377  0.00  0.00    -0.251 N 
ATOM      3  C   UNL d   1      53.162  35.150  54.591  0.00  0.00     0.378 A 
ATOM      4  O   UNL d   1      53.892  35.006  54.964  0.00  0.00    -0.258 OA
ATOM      5  O   UNL d   1      52.823  35.890  54.455  0.00  0.00    -0.237 OA
ATOM      6  C   UNL d   1      54.015  34.190  54.983  0.00  0.00     0.121 A 
ATOM      7  C   UNL d   1      53.364  33.826  54.623  0.00  0.00     0.092 A 
ATOM      8  C   UNL d   1      54.635  33.718  55.280  0.00  0.00     0.026 A 
ATOM      9  C   UNL d   1      53.332  32.998  54.561  0.00  0.00     0.020 A 
ATOM     10  C   UNL d   1      53.947  32.537  54.856  0.00  0.00     0.002 A 
ATOM     11  C   UNL d   1      54.600  32.898  55.217  0.00  0.00     0.002 A 
ENDBRANCH   1   2
BRANCH   1  12
ATOM     12  C   UNL d   1      52.057  34.335  53.182  0.00  0.00     0.041 A 
ATOM     13  C   UNL d   1      51.323  34.309  52.821  0.00  0.00     0.101 A 
ATOM     14  C   UNL d   1      51.260  34.383  52.006  0.00  0.00     0.025 A 
ATOM     15  C   UNL d   1      51.943  34.485  51.549  0.00  0.00     0.002 A 
ATOM     16  C   UNL d   1      52.686  34.512  51.909  0.00  0.00     0.000 A 
ATOM     17  C   UNL d   1      52.744  34.438  52.728  0.00  0.00     0.004 A 
BRANCH  13  18
ATOM     18  O   UNL d   1      50.640  34.207  53.276  0.00  0.00    -0.307 OA
BRANCH  18  19
ATOM     19  C   UNL d   1      49.902  34.418  52.967  0.00  0.00     0.100 C 
ATOM     20  C   UNL d   1      49.539  33.942  52.405  0.00  0.00     0.027 C 
ATOM     21  C   UNL d   1      49.532  35.108  53.226  0.00  0.00     0.027 C 
ENDBRANCH  18  19
ENDBRANCH  13  18
ENDBRANCH   1  12
TORSDOF 4
ENDMDL
MODEL 6
REMARK VINA RESULT:      -6.9      1.686      3.378
REMARK  4 active torsions:
REMARK  status: ('A' for Active; 'I' for Inactive)
REMARK    1  A    between atoms: C_5  and  N_1 
REMARK    2  A    between atoms: C_7  and  C_5 
REMARK    3  A    between atoms: O_10  and  C_8 
REMARK    4  A    between atoms: C_14  and  O_10 
ROOT
ATOM      1  C   UNL d   1      53.367  33.487  53.206  0.00  0.00     0.087 C 
ENDROOT
BRANCH   1   2
ATOM      2  N   UNL d   1      54.030  33.351  53.667  0.00  0.00    -0.251 N 
ATOM      3  C   UNL d   1      54.711  32.902  53.487  0.00  0.00     0.378 A 
ATOM      4  O   UNL d   1      55.225  32.938  54.141  0.00  0.00    -0.258 OA
ATOM      5  O   UNL d   1      54.847  32.494  52.783  0.00  0.00    -0.237 OA
ATOM      6  C   UNL d   1      54.870  33.404  54.723  0.00  0.00     0.121 A 
ATOM      7  C   UNL d   1      54.136  33.659  54.433  0.00  0.00     0.092 A 
ATOM      8  C   UNL d   1      55.111  33.638  55.486  0.00  0.00     0.026 A 
ATOM      9  C   UNL d   1      53.648  34.142  54.900  0.00  0.00     0.020 A 
ATOM     10  C   UNL d   1      53.893  34.370  55.653  0.00  0.00     0.002 A 
ATOM     11  C   UNL d   1      54.626  34.117  55.946  0.00  0.00     0.002 A 
ENDBRANCH   1   2
BRANCH   1  12
ATOM     12  C   UNL d   1      52.785  32.911  53.131  0.00  0.00     0.041 A 
ATOM     13  C   UNL d   1      52.017  33.121  52.937  0.00  0.00     0.101 A 
ATOM     14  C   UNL d   1      51.437  32.546  52.862  0.00  0.00     0.025 A 
ATOM     15  C   UNL d   1      51.630  31.750  52.983  0.00  0.00     0.002 A 
ATOM     16  C   UNL d   1      52.403  31.532  53.178  0.00  0.00     0.000 A 
ATOM     17  C   UNL d   1      52.982  32.113  53.252  0.00  0.00     0.004 A 
BRANCH  13  18
ATOM     18  O   UNL d   1      51.824  33.916  52.817  0.00  0.00    -0.307 OA
BRANCH  18  19
ATOM     19  C   UNL d   1      51.085  34.118  52.506  0.00  0.00     0.100 C 
ATOM     20  C   UNL d   1      50.984  34.188  51.694  0.00  0.00     0.027 C 
ATOM     21  C   UNL d   1      50.449  34.250  53.014  0.00  0.00     0.027 C 
ENDBRANCH  18  19
ENDBRANCH  13  18
ENDBRANCH   1  12
TORSDOF 4
ENDMDL
MODEL 7
REMARK VINA RESULT:      -6.8      1.241      3.821
REMARK  4 active torsions:
REMARK  status: ('A' for Active; 'I' for Inactive)
REMARK    1  A    between atoms: C_5  and  N_1 
REMARK    2  A    between atoms: C_7  and  C_5 
REMARK    3  A    between atoms: O_10  and  C_8 
REMARK    4  A    between atoms: C_14  and  O_10 
ROOT
ATOM      1  C   UNL d   1      53.290  32.943  53.164  0.00  0.00     0.087 C 
ENDROOT
BRANCH   1   2
ATOM      2  N   UNL d   1      53.436  33.628  53.588  0.00  0.00    -0.251 N 
ATOM      3  C   UNL d   1      53.175  34.406  53.435  0.00  0.00     0.378 A 
ATOM      4  O   UNL d   1      53.476  34.902  54.032  0.00  0.00    -0.258 OA
ATOM      5  O   UNL d   1      52.702  34.640  52.801  0.00  0.00    -0.237 OA
ATOM      6  C   UNL d   1      53.919  34.439  54.553  0.00  0.00     0.121 A 
ATOM      7  C   UNL d   1      53.896  33.657  54.281  0.00  0.00     0.092 A 
ATOM      8  C   UNL d   1      54.348  34.619  55.245  0.00  0.00     0.026 A 
ATOM      9  C   UNL d   1      54.297  33.059  54.698  0.00  0.00     0.020 A 
ATOM     10  C   UNL d   1      54.718  33.244  55.380  0.00  0.00     0.002 A 
ATOM     11  C   UNL d   1      54.744  34.025  55.655  0.00  0.00     0.002 A 
ENDBRANCH   1   2
BRANCH   1  12
ATOM     12  C   UNL d   1      52.549  32.587  53.185  0.00  0.00     0.041 A 
ATOM     13  C   UNL d   1      52.479  31.774  53.121  0.00  0.00     0.101 A 
ATOM     14  C   UNL d   1      51.739  31.419  53.143  0.00  0.00     0.025 A 
ATOM     15  C   UNL d   1      51.062  31.888  53.230  0.00  0.00     0.002 A 
ATOM     16  C   UNL d   1      51.128  32.708  53.295  0.00  0.00     0.000 A 
ATOM     17  C   UNL d   1      51.872  33.060  53.273  0.00  0.00     0.004 A 
BRANCH  13  18
ATOM     18  O   UNL d   1      53.155  31.306  53.034  0.00  0.00    -0.307 OA
BRANCH  18  19
ATOM     19  C   UNL d   1      53.088  30.481  53.021  0.00  0.00     0.100 C 
ATOM     20  C   UNL d   1      52.934  30.091  52.315  0.00  0.00     0.027 C 
ATOM     21  C   UNL d   1      53.174  30.052  53.720  0.00  0.00     0.027 C 
ENDBRANCH  18  19
ENDBRANCH  13  18
ENDBRANCH   1  12
TORSDOF 4
ENDMDL
