MODEL 1
REMARK VINA RESULT:     -13.8      0.000      0.000
REMARK  4 active torsions:
REMARK  status: ('A' for Active; 'I' for Inactive)
REMARK    1  A    between atoms: C_6  and  C_1 
REMARK    2  A    between atoms: N_4  and  C_2 
REMARK       I    between atoms: C_3  and  N_4 
REMARK       I    between atoms: N_9  and  C_3 
REMARK    3  A    between atoms: C_15  and  N_9 
REMARK    4  A    between atoms: C_23  and  C_15 
ROOT
ATOM      1  C   UNL d   1      53.718  31.543  53.821  0.00  0.00     0.040 A 
ATOM      2  C   UNL d   1      52.948  32.132  53.079  0.00  0.00     0.109 A 
ATOM      3  C   UNL d   1      53.695  32.208  53.786  0.00  0.00     0.035 A 
ATOM      4  C   UNL d   1      54.117  31.027  54.209  0.00  0.00    -0.023 A 
ATOM      5  C   UNL d   1      53.077  30.942  53.224  0.00  0.00     0.013 A 
ATOM      6  C   UNL d   1      53.500  31.002  53.624  0.00  0.00    -0.011 A 
ATOM      7  C   UNL d   1      52.507  30.889  52.685  0.00  0.00     0.025 A 
ATOM      8  C   UNL d   1      53.465  31.788  53.576  0.00  0.00    -0.005 A 
ATOM      9  C   UNL d   1      52.469  31.683  52.633  0.00  0.00     0.031 A 
ATOM     10  C   UNL d   1      53.021  30.553  53.179  0.00  0.00    -0.027 A 
ENDROOT
BRANCH   2  11
ATOM     11  N   UNL d   1      52.451  32.585  52.599  0.00  0.00    -0.217 NA
ATOM     12  C   UNL d   1      51.939  33.133  52.935  0.00  0.00     0.360 C 
ATOM     13  N   UNL d   1      51.440  33.588  52.463  0.00  0.00    -0.214 NA
ATOM     14  O   UNL d   1      51.922  33.229  53.761  0.00  0.00    -0.243 OA
BRANCH  13  15
ATOM     15  C   UNL d   1      50.921  34.142  52.802  0.00  0.00     0.147 C 
ATOM     16  C   UNL d   1      51.540  34.665  52.621  0.00  0.00     0.033 C 
ATOM     17  C   UNL d   1      50.309  33.614  52.980  0.00  0.00     0.033 C 
BRANCH  15  18
ATOM     18  C   UNL d   1      50.410  34.700  53.138  0.00  0.00     0.229 C 
ATOM     19  O   UNL d   1      49.682  34.858  52.777  0.00  0.00    -0.286 OA
ENDBRANCH  15  18
ENDBRANCH  13  15
ENDBRANCH   2  11
BRANCH   1  20
ATOM     20  C   UNL d   1      54.093  32.181  54.165  0.00  0.00    -0.019 A 
ATOM     21  C   UNL d   1      54.672  32.605  53.744  0.00  0.00    -0.004 A 
ATOM     22  C   UNL d   1      55.053  33.249  54.089  0.00  0.00    -0.000 A 
ATOM     23  C   UNL d   1      54.857  33.479  54.865  0.00  0.00    -0.000 A 
ATOM     24  C   UNL d   1      54.281  33.055  55.279  0.00  0.00    -0.000 A 
ATOM     25  C   UNL d   1      55.236  34.124  55.214  0.00  0.00    -0.000 C 
ATOM     26  C   UNL d   1      53.901  32.410  54.932  0.00  0.00    -0.004 A 
ENDBRANCH   1  20
TORSDOF 4
ENDMDL
MODEL 2
REMARK VINA RESULT:     -13.8      1.509      3.707
REMARK  4 active torsions:
REMARK  status: ('A' for Active; 'I' for Inactive)
REMARK    1  A    between atoms: C_6  and  C_1 
REMARK    2  A    between atoms: N_4  and  C_2 
REMARK       I    between atoms: C_3  and  N_4 
REMARK       I    between atoms: N_9  and  C_3 
REMARK    3  A    between atoms: C_15  and  N_9 
REMARK    4  A    between atoms: C_23  and  C_15 
ROOT
ATOM      1  C   UNL d   1      53.282  34.085  54.249  0.00  0.00     0.040 A 
ATOM      2  C   UNL d   1      53.737  32.996  53.935  0.00  0.00     0.109 A 
ATOM      3  C   UNL d   1      53.016  33.713  53.764  0.00  0.00     0.035 A 
ATOM      4  C   UNL d   1      53.137  34.759  54.566  0.00  0.00    -0.023 A 
ATOM      5  C   UNL d   1      54.133  33.750  54.790  0.00  0.00     0.013 A 
ATOM      6  C   UNL d   1      53.717  34.147  54.680  0.00  0.00    -0.011 A 
ATOM      7  C   UNL d   1      54.681  33.200  54.916  0.00  0.00     0.025 A 
ATOM      8  C   UNL d   1      53.409  33.701  54.108  0.00  0.00    -0.005 A 
ATOM      9  C   UNL d   1      54.373  32.746  54.339  0.00  0.00     0.031 A 
ATOM     10  C   UNL d   1      54.353  33.897  55.085  0.00  0.00    -0.027 A 
ENDROOT
BRANCH   2  11
ATOM     11  N   UNL d   1      54.000  32.257  53.679  0.00  0.00    -0.217 NA
ATOM     12  C   UNL d   1      53.492  31.610  53.696  0.00  0.00     0.360 C 
ATOM     13  N   UNL d   1      53.747  30.869  53.442  0.00  0.00    -0.214 NA
ATOM     14  O   UNL d   1      52.713  31.703  53.972  0.00  0.00    -0.243 OA
BRANCH  13  15
ATOM     15  C   UNL d   1      53.235  30.214  53.459  0.00  0.00     0.147 C 
ATOM     16  C   UNL d   1      53.082  30.455  52.679  0.00  0.00     0.033 C 
ATOM     17  C   UNL d   1      53.392  29.980  54.237  0.00  0.00     0.033 C 
BRANCH  15  18
ATOM     18  C   UNL d   1      52.722  29.564  53.468  0.00  0.00     0.229 C 
ATOM     19  O   UNL d   1      52.982  28.843  53.782  0.00  0.00    -0.286 OA
ENDBRANCH  15  18
ENDBRANCH  13  15
ENDBRANCH   2  11
BRANCH   1  20
ATOM     20  C   UNL d   1      52.660  34.131  53.722  0.00  0.00    -0.019 A 
ATOM     21  C   UNL d   1      52.787  34.402  52.946  0.00  0.00    -0.004 A 
ATOM     22  C   UNL d   1      52.160  34.450  52.413  0.00  0.00    -0.000 A 
ATOM     23  C   UNL d   1      51.395  34.226  52.651  0.00  0.00    -0.000 A 
ATOM     24  C   UNL d   1      51.274  33.958  53.423  0.00  0.00    -0.000 A 
ATOM     25  C   UNL d   1      50.765  34.272  52.119  0.00  0.00    -0.000 C 
ATOM     26  C   UNL d   1      51.902  33.910  53.956  0.00  0.00    -0.004 A 
ENDBRANCH   1  20
TORSDOF 4
ENDMDL
MODEL 3
REMARK VINA RESULT:     -12.6      0.968      2.336
REMARK  4 active torsions:
REMARK  status: ('A' for Active; 'I' for Inactive)
REMARK    1  A    between atoms: C_6  and  C_1 
REMARK    2  A    between atoms: N_4  and  C_2 
REMARK       I    between atoms: C_3  and  N_4 
REMARK       I    between atoms: N_9  and  C_3 
REMARK    3  A    between atoms: C_15  and  N_9 
REMARK    4  A    between atoms: C_23  and  C_15 
ROOT
ATOM      1  C   UNL d   1      53.937  32.962  54.627  0.00  0.00     0.040 A 
ATOM      2  C   UNL d   1      53.307  33.723  53.911  0.00  0.00     0.109 A 
ATOM      3  C   UNL d   1      53.611  32.754  54.084  0.00  0.00     0.035 A 
ATOM      4  C   UNL d   1      54.363  32.643  55.168  0.00  0.00    -0.023 A 
ATOM      5  C   UNL d   1      53.929  33.986  54.910  0.00  0.00     0.013 A 
ATOM      6  C   UNL d   1      54.094  33.430  54.995  0.00  0.00    -0.011 A 
ATOM      7  C   UNL d   1      53.694  34.724  54.773  0.00  0.00     0.025 A 
ATOM      8  C   UNL d   1      53.706  33.193  54.351  0.00  0.00    -0.005 A 
ATOM      9  C   UNL d   1      53.301  34.489  54.122  0.00  0.00     0.031 A 
ATOM     10  C   UNL d   1      54.088  34.196  55.206  0.00  0.00    -0.027 A 
ENDROOT
BRANCH   2  11
ATOM     11  N   UNL d   1      52.866  34.188  53.391  0.00  0.00    -0.217 NA
ATOM     12  C   UNL d   1      52.068  34.030  53.269  0.00  0.00     0.360 C 
ATOM     13  N   UNL d   1      51.622  34.490  52.752  0.00  0.00    -0.214 NA
ATOM     14  O   UNL d   1      51.707  33.399  53.673  0.00  0.00    -0.243 OA
BRANCH  13  15
ATOM     15  C   UNL d   1      50.815  34.331  52.628  0.00  0.00     0.147 C 
ATOM     16  C   UNL d   1      51.101  34.017  51.915  0.00  0.00     0.033 C 
ATOM     17  C   UNL d   1      50.538  34.645  53.342  0.00  0.00     0.033 C 
BRANCH  15  18
ATOM     18  C   UNL d   1      50.014  34.169  52.498  0.00  0.00     0.229 C 
ATOM     19  O   UNL d   1      49.634  34.486  51.835  0.00  0.00    -0.286 OA
ENDBRANCH  15  18
ENDBRANCH  13  15
ENDBRANCH   2  11
BRANCH   1  20
ATOM     20  C   UNL d   1      53.806  32.260  54.231  0.00  0.00    -0.019 A 
ATOM     21  C   UNL d   1      54.206  32.098  53.521  0.00  0.00    -0.004 A 
ATOM     22  C   UNL d   1      54.076  31.390  53.119  0.00  0.00    -0.000 A 
ATOM     23  C   UNL d   1      53.539  30.832  53.427  0.00  0.00    -0.000 A 
ATOM     24  C   UNL d   1      53.145  30.998  54.133  0.00  0.00    -0.000 A 
ATOM     25  C   UNL d   1      53.406  30.122  53.027  0.00  0.00    -0.000 C 
ATOM     26  C   UNL d   1      53.276  31.707  54.534  0.00  0.00    -0.004 A 
ENDBRANCH   1  20
TORSDOF 4
ENDMDL
MODEL 4
REMARK VINA RESULT:     -12.6      1.354      3.124
REMARK  4 active torsions:
REMARK  status: ('A' for Active; 'I' for Inactive)
REMARK    1  A    between atoms: C_6  and  C_1 
REMARK    2  A    between atoms: N_4  and  C_2 
REMARK       I    between atoms: C_3  and  N_4 
REMARK       I    between atoms: N_9  and  C_3 
REMARK    3  A    between atoms: C_15  and  N_9 
REMARK    4  A    between atoms: C_23  and  C_15 
ROOT
ATOM      1  C   UNL d   1      52.677  34.283  53.649  0.00  0.00     0.040 A 
ATOM      2  C   UNL d   1      52.627  33.228  53.037  0.00  0.00     0.109 A 
ATOM      3  C   UNL d   1      53.128  33.800  53.733  0.00  0.00     0.035 A 
ATOM      4  C   UNL d   1      52.555  34.976  53.933  0.00  0.00    -0.023 A 
ATOM      5  C   UNL d   1      51.871  34.165  52.967  0.00  0.00     0.013 A 
ATOM      6  C   UNL d   1      52.167  34.478  53.364  0.00  0.00    -0.011 A 
ATOM      7  C   UNL d   1      51.492  33.725  52.436  0.00  0.00     0.025 A 
ATOM      8  C   UNL d   1      52.697  33.901  53.457  0.00  0.00    -0.005 A 
ATOM      9  C   UNL d   1      52.025  33.140  52.526  0.00  0.00     0.031 A 
ATOM     10  C   UNL d   1      51.565  34.390  52.854  0.00  0.00    -0.027 A 
ENDROOT
BRANCH   2  11
ATOM     11  N   UNL d   1      52.646  32.497  52.653  0.00  0.00    -0.217 NA
ATOM     12  C   UNL d   1      52.746  31.806  53.086  0.00  0.00     0.360 C 
ATOM     13  N   UNL d   1      52.766  31.073  52.710  0.00  0.00    -0.214 NA
ATOM     14  O   UNL d   1      52.828  31.845  53.913  0.00  0.00    -0.243 OA
BRANCH  13  15
ATOM     15  C   UNL d   1      52.867  30.373  53.148  0.00  0.00     0.147 C 
ATOM     16  C   UNL d   1      53.665  30.505  52.962  0.00  0.00     0.033 C 
ATOM     17  C   UNL d   1      52.069  30.248  53.328  0.00  0.00     0.033 C 
BRANCH  15  18
ATOM     18  C   UNL d   1      52.975  29.676  53.582  0.00  0.00     0.229 C 
ATOM     19  O   UNL d   1      52.595  28.981  53.342  0.00  0.00    -0.286 OA
ENDBRANCH  15  18
ENDBRANCH  13  15
ENDBRANCH   2  11
BRANCH   1  20
ATOM     20  C   UNL d   1      53.349  34.153  54.094  0.00  0.00    -0.019 A 
ATOM     21  C   UNL d   1      53.287  33.941  54.896  0.00  0.00    -0.004 A 
ATOM     22  C   UNL d   1      53.964  33.808  55.347  0.00  0.00    -0.000 A 
ATOM     23  C   UNL d   1      54.716  33.887  54.998  0.00  0.00    -0.000 A 
ATOM     24  C   UNL d   1      54.772  34.098  54.202  0.00  0.00    -0.000 A 
ATOM     25  C   UNL d   1      55.396  33.756  55.448  0.00  0.00    -0.000 C 
ATOM     26  C   UNL d   1      54.093  34.230  53.751  0.00  0.00    -0.004 A 
ENDBRANCH   1  20
TORSDOF 4
ENDMDL
