MODEL 1
REMARK VINA RESULT:      25.4      0.000      0.000
REMARK  1 active torsions:
REMARK  status: ('A' for Active; 'I' for Inactive)
REMARK    1  A    between atoms: C_7  and  C_1 
ROOT
ATOM      1  C   UNL d   1      23.753  12.557  -2.177  0.00  0.00     0.062 A 
ATOM      2  C   UNL d   1      23.421  12.849  -2.859  0.00  0.00     0.199 A 
ATOM      3  C   UNL d   1      24.425  12.083  -2.196  0.00  0.00     0.103 A 
ATOM      4  C   UNL d   1      23.763  12.670  -3.608  0.00  0.00     0.062 A 
ATOM      5  C   UNL d   1      24.426  12.205  -3.651  0.00  0.00     0.106 A 
ATOM      6  O   UNL d   1      24.767  11.905  -2.944  0.00  0.00    -0.307 OA
ATOM      7  C   UNL d   1      24.761  12.031  -4.385  0.00  0.00     0.067 A 
ATOM      8  C   UNL d   1      23.406  12.982  -4.302  0.00  0.00     0.009 A 
ATOM      9  O   UNL d   1      22.718  13.340  -2.796  0.00  0.00    -0.286 OA
ATOM     10  C   UNL d   1      24.428  12.324  -5.063  0.00  0.00     0.198 A 
ATOM     11  C   UNL d   1      23.747  12.804  -5.050  0.00  0.00     0.042 A 
ATOM     12  C   UNL d   1      24.768  11.781  -1.488  0.00  0.00     0.027 C 
ATOM     13  O   UNL d   1      24.768  12.146  -5.807  0.00  0.00    -0.286 OA
ENDROOT
BRANCH   1  14
ATOM     14  C   UNL d   1      23.407  12.740  -1.460  0.00  0.00     0.005 A 
ATOM     15  C   UNL d   1      23.800  13.214  -0.909  0.00  0.00     0.000 A 
ATOM     16  C   UNL d   1      24.565  13.513  -1.083  0.00  0.00     0.000 C 
ATOM     17  C   UNL d   1      23.447  13.397  -0.186  0.00  0.00     0.000 A 
ATOM     18  C   UNL d   1      22.711  13.106  -0.024  0.00  0.00     0.000 A 
ATOM     19  C   UNL d   1      22.302  12.640  -0.543  0.00  0.00     0.000 A 
ATOM     20  C   UNL d   1      22.656  12.453  -1.277  0.00  0.00     0.000 A 
ENDBRANCH   1  14
TORSDOF 1
ENDMDL
MODEL 2
REMARK VINA RESULT:      27.1      8.928      9.794
REMARK  1 active torsions:
REMARK  status: ('A' for Active; 'I' for Inactive)
REMARK    1  A    between atoms: C_7  and  C_1 
ROOT
ATOM      1  C   UNL d   1      14.197  12.822  -1.939  0.00  0.00     0.062 A 
ATOM      2  C   UNL d   1      14.261  13.163  -2.674  0.00  0.00     0.199 A 
ATOM      3  C   UNL d   1      13.765  12.132  -1.823  0.00  0.00     0.103 A 
ATOM      4  C   UNL d   1      13.883  12.812  -3.340  0.00  0.00     0.062 A 
ATOM      5  C   UNL d   1      13.451  12.131  -3.249  0.00  0.00     0.106 A 
ATOM      6  O   UNL d   1      13.386  11.781  -2.488  0.00  0.00    -0.307 OA
ATOM      7  C   UNL d   1      13.080  11.788  -3.901  0.00  0.00     0.067 A 
ATOM      8  C   UNL d   1      13.961  13.179  -4.092  0.00  0.00     0.009 A 
ATOM      9  O   UNL d   1      14.723  13.885  -2.753  0.00  0.00    -0.286 OA
ATOM     10  C   UNL d   1      13.147  12.130  -4.633  0.00  0.00     0.198 A 
ATOM     11  C   UNL d   1      13.583  12.829  -4.756  0.00  0.00     0.042 A 
ATOM     12  C   UNL d   1      13.698  11.779  -1.061  0.00  0.00     0.027 C 
ATOM     13  O   UNL d   1      12.770  11.782  -5.295  0.00  0.00    -0.286 OA
ENDROOT
BRANCH   1  14
ATOM     14  C   UNL d   1      14.571  13.176  -1.305  0.00  0.00     0.005 A 
ATOM     15  C   UNL d   1      15.060  12.739  -0.803  0.00  0.00     0.000 A 
ATOM     16  C   UNL d   1      15.177  11.919  -0.942  0.00  0.00     0.000 C 
ATOM     17  C   UNL d   1      15.436  13.101  -0.164  0.00  0.00     0.000 A 
ATOM     18  C   UNL d   1      15.320  13.891  -0.036  0.00  0.00     0.000 A 
ATOM     19  C   UNL d   1      14.847  14.344  -0.510  0.00  0.00     0.000 A 
ATOM     20  C   UNL d   1      14.464  13.981  -1.159  0.00  0.00     0.000 A 
ENDBRANCH   1  14
TORSDOF 1
ENDMDL
