MODEL 1
REMARK VINA RESULT:      87.3      0.000      0.000
REMARK  4 active torsions:
REMARK  status: ('A' for Active; 'I' for Inactive)
REMARK    1  A    between atoms: N_2  and  S_1 
REMARK    2  A    between atoms: C_6  and  S_1 
REMARK    3  A    between atoms: C_3  and  C_11 
REMARK       I    between atoms: N_4  and  C_3 
REMARK    4  A    between atoms: C_17  and  N_5 
ROOT
ATOM      1  C   UNL d   1     -51.216  26.737  33.553  0.00  0.00     0.104 A 
ATOM      2  C   UNL d   1     -50.762  28.345  33.680  0.00  0.00     0.057 A 
ATOM      3  C   UNL d   1     -51.743  27.356  33.311  0.00  0.00     0.013 A 
ATOM      4  C   UNL d   1     -50.491  26.961  33.846  0.00  0.00     0.013 A 
ATOM      5  C   UNL d   1     -51.526  28.143  33.370  0.00  0.00     0.005 A 
ATOM      6  C   UNL d   1     -50.274  27.754  33.905  0.00  0.00     0.005 A 
ENDROOT
BRANCH   2   7
ATOM      7  C   UNL d   1     -50.565  29.111  33.732  0.00  0.00     0.265 C 
ATOM      8  N   UNL d   1     -49.871  29.289  34.105  0.00  0.00    -0.269 N 
ATOM      9  C   UNL d   1     -49.667  30.075  34.159  0.00  0.00     0.102 A 
ATOM     10  C   UNL d   1     -49.367  28.716  34.428  0.00  0.00     0.102 A 
ATOM     11  C   UNL d   1     -48.966  30.310  34.532  0.00  0.00     0.100 A 
ATOM     12  N   UNL d   1     -48.481  29.737  34.845  0.00  0.00    -0.301 N 
ATOM     13  C   UNL d   1     -48.659  28.950  34.805  0.00  0.00     0.100 A 
ATOM     14  O   UNL d   1     -51.050  29.705  33.418  0.00  0.00    -0.267 OA
BRANCH  12  15
ATOM     15  C   UNL d   1     -47.785  29.972  35.215  0.00  0.00     0.064 A 
ATOM     16  C   UNL d   1     -47.427  29.529  35.806  0.00  0.00     0.018 A 
ATOM     17  C   UNL d   1     -46.750  29.758  36.166  0.00  0.00     0.002 A 
ATOM     18  C   UNL d   1     -46.393  30.483  35.925  0.00  0.00     0.000 A 
ATOM     19  C   UNL d   1     -46.744  30.905  35.354  0.00  0.00     0.002 A 
ATOM     20  C   UNL d   1     -47.440  30.670  34.984  0.00  0.00     0.018 A 
ENDBRANCH  12  15
ENDBRANCH   2   7
BRANCH   1  21
ATOM     21  S   UNL d   1     -51.433  25.964  33.493  0.00  0.00     0.271 S 
ATOM     22  O   UNL d   1     -50.674  25.758  33.317  0.00  0.00    -0.200 OA
ATOM     23  O   UNL d   1     -52.241  26.177  33.679  0.00  0.00    -0.200 OA
BRANCH  21  24
ATOM     24  N   UNL d   1     -51.657  25.164  33.431  0.00  0.00    -0.229 N 
ATOM     25  C   UNL d   1     -51.080  24.606  33.402  0.00  0.00     0.092 A 
ATOM     26  C   UNL d   1     -51.289  23.805  33.339  0.00  0.00     0.018 A 
ATOM     27  C   UNL d   1     -50.733  23.191  33.306  0.00  0.00     0.002 C 
ATOM     28  C   UNL d   1     -52.097  23.591  33.308  0.00  0.00     0.003 A 
ATOM     29  C   UNL d   1     -52.696  24.177  33.338  0.00  0.00     0.018 A 
ATOM     30  C   UNL d   1     -52.472  24.949  33.399  0.00  0.00     0.092 A 
ATOM     31  C   UNL d   1     -53.505  23.983  33.308  0.00  0.00     0.002 C 
ENDBRANCH  21  24
ENDBRANCH   1  21
TORSDOF 4
ENDMDL
