MODEL 1
REMARK VINA RESULT:      13.9      0.000      0.000
REMARK  5 active torsions:
REMARK  status: ('A' for Active; 'I' for Inactive)
REMARK    1  A    between atoms: O_5  and  C_1 
REMARK    2  A    between atoms: C_10  and  C_2 
REMARK    3  A    between atoms: C_3  and  O_5 
REMARK    4  A    between atoms: C_6  and  C_3 
REMARK    5  A    between atoms: N_11  and  C_10 
ROOT
ATOM      1  C   UNL d   1     -42.505-122.954 -48.979  0.00  0.00     0.122 A 
ATOM      2  C   UNL d   1     -43.185-123.420 -49.003  0.00  0.00     0.043 A 
ATOM      3  C   UNL d   1     -42.151-122.780 -48.254  0.00  0.00     0.105 A 
ATOM      4  C   UNL d   1     -42.477-123.071 -47.556  0.00  0.00     0.030 A 
ATOM      5  C   UNL d   1     -43.154-123.533 -47.588  0.00  0.00     0.059 A 
ATOM      6  C   UNL d   1     -43.511-123.711 -48.304  0.00  0.00     0.015 A 
ATOM      7  N   UNL d   1     -41.477-122.318 -48.234  0.00  0.00    -0.242 NA
ATOM      8 CL   UNL d   1     -43.466-123.816 -46.867  0.00  0.00    -0.082 Cl
ATOM      9  C   UNL d   1     -42.126-122.896 -46.844  0.00  0.00     0.004 A 
ATOM     10  C   UNL d   1     -41.123-122.144 -47.510  0.00  0.00     0.099 A 
ATOM     11  C   UNL d   1     -41.449-122.434 -46.811  0.00  0.00     0.021 A 
ENDROOT
BRANCH   1  12
ATOM     12  O   UNL d   1     -42.202-122.686 -49.606  0.00  0.00    -0.271 OA
BRANCH  12  13
ATOM     13  C   UNL d   1     -41.571-122.926 -50.295  0.00  0.00     0.301 C 
ATOM     14  O   UNL d   1     -41.123-123.814 -50.149  0.00  0.00    -0.259 OA
BRANCH  13  15
ATOM     15  C   UNL d   1     -41.427-122.431 -50.937  0.00  0.00     0.074 A 
ATOM     16  C   UNL d   1     -41.362-122.752 -51.701  0.00  0.00     0.063 A 
ATOM     17 CL   UNL d   1     -41.435-123.605 -51.884  0.00  0.00    -0.082 Cl
ATOM     18  C   UNL d   1     -41.216-122.248 -52.349  0.00  0.00     0.012 A 
ATOM     19  C   UNL d   1     -41.137-121.424 -52.235  0.00  0.00     0.001 A 
ATOM     20  C   UNL d   1     -41.203-121.107 -51.471  0.00  0.00     0.000 A 
ATOM     21  C   UNL d   1     -41.348-121.612 -50.824  0.00  0.00     0.006 A 
ENDBRANCH  13  15
ENDBRANCH  12  13
ENDBRANCH   1  12
BRANCH   2  22
ATOM     22  C   UNL d   1     -43.706-123.712 -49.690  0.00  0.00     0.082 C 
BRANCH  22  23
ATOM     23  N   UNL d   1     -44.289-123.221 -49.992  0.00  0.00    -0.299 N 
ATOM     24  C   UNL d   1     -45.063-123.481 -50.022  0.00  0.00     0.107 A 
ATOM     25  C   UNL d   1     -45.661-122.996 -50.324  0.00  0.00     0.142 A 
ATOM     26  O   UNL d   1     -45.468-122.251 -50.593  0.00  0.00    -0.300 OA
ATOM     27  C   UNL d   1     -44.684-121.984 -50.564  0.00  0.00     0.142 A 
ATOM     28  C   UNL d   1     -44.103-122.476 -50.262  0.00  0.00     0.107 A 
ENDBRANCH  22  23
ENDBRANCH   2  22
TORSDOF 5
ENDMDL
MODEL 2
REMARK VINA RESULT:      14.4      2.192      4.978
REMARK  5 active torsions:
REMARK  status: ('A' for Active; 'I' for Inactive)
REMARK    1  A    between atoms: O_5  and  C_1 
REMARK    2  A    between atoms: C_10  and  C_2 
REMARK    3  A    between atoms: C_3  and  O_5 
REMARK    4  A    between atoms: C_6  and  C_3 
REMARK    5  A    between atoms: N_11  and  C_10 
ROOT
ATOM      1  C   UNL d   1     -41.781-122.119 -52.221  0.00  0.00     0.122 A 
ATOM      2  C   UNL d   1     -41.416-121.385 -52.313  0.00  0.00     0.043 A 
ATOM      3  C   UNL d   1     -41.986-122.563 -52.886  0.00  0.00     0.105 A 
ATOM      4  C   UNL d   1     -41.826-122.273 -53.641  0.00  0.00     0.030 A 
ATOM      5  C   UNL d   1     -41.464-121.542 -53.723  0.00  0.00     0.059 A 
ATOM      6  C   UNL d   1     -41.257-121.095 -53.068  0.00  0.00     0.015 A 
ATOM      7  N   UNL d   1     -42.347-123.291 -52.791  0.00  0.00    -0.242 NA
ATOM      8 CL   UNL d   1     -41.312-121.269 -54.498  0.00  0.00    -0.082 Cl
ATOM      9  C   UNL d   1     -42.030-122.714 -54.293  0.00  0.00     0.004 A 
ATOM     10  C   UNL d   1     -42.552-123.734 -53.455  0.00  0.00     0.099 A 
ATOM     11  C   UNL d   1     -42.393-123.444 -54.210  0.00  0.00     0.021 A 
ENDROOT
BRANCH   1  12
ATOM     12  O   UNL d   1     -41.930-122.391 -51.542  0.00  0.00    -0.271 OA
BRANCH  12  13
ATOM     13  C   UNL d   1     -42.619-122.386 -50.868  0.00  0.00     0.301 C 
ATOM     14  O   UNL d   1     -43.484-121.975 -51.170  0.00  0.00    -0.259 OA
BRANCH  13  15
ATOM     15  C   UNL d   1     -42.487-122.696 -50.117  0.00  0.00     0.074 A 
ATOM     16  C   UNL d   1     -43.120-123.019 -49.685  0.00  0.00     0.063 A 
ATOM     17 CL   UNL d   1     -43.945-123.058 -49.975  0.00  0.00    -0.082 Cl
ATOM     18  C   UNL d   1     -42.983-123.332 -48.925  0.00  0.00     0.012 A 
ATOM     19  C   UNL d   1     -42.215-123.323 -48.595  0.00  0.00     0.001 A 
ATOM     20  C   UNL d   1     -41.586-123.000 -49.029  0.00  0.00     0.000 A 
ATOM     21  C   UNL d   1     -41.725-122.687 -49.789  0.00  0.00     0.006 A 
ENDBRANCH  13  15
ENDBRANCH  12  13
ENDBRANCH   1  12
BRANCH   2  22
ATOM     22  C   UNL d   1     -41.123-120.766 -51.714  0.00  0.00     0.082 C 
BRANCH  22  23
ATOM     23  N   UNL d   1     -41.172-119.968 -51.902  0.00  0.00    -0.299 N 
ATOM     24  C   UNL d   1     -41.271-119.740 -52.680  0.00  0.00     0.107 A 
ATOM     25  C   UNL d   1     -41.322-118.940 -52.883  0.00  0.00     0.142 A 
ATOM     26  O   UNL d   1     -41.272-118.378 -52.294  0.00  0.00    -0.300 OA
ATOM     27  C   UNL d   1     -41.172-118.607 -51.503  0.00  0.00     0.142 A 
ATOM     28  C   UNL d   1     -41.123-119.403 -51.319  0.00  0.00     0.107 A 
ENDBRANCH  22  23
ENDBRANCH   2  22
TORSDOF 5
ENDMDL
