MODEL 1
REMARK VINA RESULT:      -3.8      0.000      0.000
REMARK  7 active torsions:
REMARK  status: ('A' for Active; 'I' for Inactive)
REMARK    1  A    between atoms: C_6  and  N_2 
REMARK    2  A    between atoms: C_7  and  C_3 
REMARK    3  A    between atoms: C_10  and  C_6 
REMARK    4  A    between atoms: C_17  and  C_7 
REMARK    5  A    between atoms: O_8  and  C_10 
REMARK    6  A    between atoms: C_9  and  O_8 
REMARK    7  A    between atoms: C_14  and  C_17 
ROOT
ATOM      1  N   UNL d   1      60.433  -1.900  28.802  0.00  0.00    -0.227 NA
ATOM      2  N   UNL d   1      59.243  -1.429  29.190  0.00  0.00    -0.287 N 
ATOM      3  C   UNL d   1      60.045  -1.213  29.079  0.00  0.00     0.148 A 
ATOM      4  C   UNL d   1      59.151  -2.218  28.988  0.00  0.00     0.083 A 
ATOM      5  C   UNL d   1      59.918  -2.522  28.738  0.00  0.00     0.099 A 
ATOM      6  C   UNL d   1      58.493  -2.697  28.995  0.00  0.00     0.019 A 
ATOM      7  C   UNL d   1      59.931  -3.324  28.510  0.00  0.00     0.021 A 
ATOM      8  C   UNL d   1      58.582  -3.467  28.759  0.00  0.00     0.002 A 
ATOM      9  C   UNL d   1      59.301  -3.752  28.525  0.00  0.00     0.002 A 
ENDROOT
BRANCH   2  10
ATOM     10  C   UNL d   1      58.781  -0.834  29.457  0.00  0.00     0.108 C 
BRANCH  10  11
ATOM     11  C   UNL d   1      58.303  -0.910  30.117  0.00  0.00     0.142 C 
BRANCH  11  12
ATOM     12  O   UNL d   1      57.674  -0.414  30.272  0.00  0.00    -0.304 OA
BRANCH  12  13
ATOM     13  C   UNL d   1      57.292  -0.380  31.002  0.00  0.00     0.100 A 
ATOM     14  C   UNL d   1      56.919  -1.026  31.354  0.00  0.00     0.025 A 
ATOM     15  C   UNL d   1      56.539  -0.991  32.083  0.00  0.00     0.002 A 
ATOM     16  C   UNL d   1      56.530  -0.263  32.488  0.00  0.00     0.000 A 
ATOM     17  C   UNL d   1      56.901   0.408  32.152  0.00  0.00     0.002 A 
ATOM     18  C   UNL d   1      57.283   0.348  31.407  0.00  0.00     0.025 A 
ENDBRANCH  12  13
ENDBRANCH  11  12
ENDBRANCH  10  11
ENDBRANCH   2  10
BRANCH   3  19
ATOM     19  C   UNL d   1      59.960  -0.445  29.313  0.00  0.00     0.041 C 
BRANCH  19  20
ATOM     20  C   UNL d   1      60.637   0.044  29.380  0.00  0.00     0.049 C 
BRANCH  20  21
ATOM     21  C   UNL d   1      60.649   0.682  29.917  0.00  0.00     0.234 C 
ATOM     22  O   UNL d   1      61.131   0.653  30.595  0.00  0.00    -0.283 OA
ENDBRANCH  20  21
ENDBRANCH  19  20
ENDBRANCH   3  19
TORSDOF 7
ENDMDL
