MODEL 1
REMARK VINA RESULT:      49.9      0.000      0.000
REMARK  7 active torsions:
REMARK  status: ('A' for Active; 'I' for Inactive)
REMARK       I    between atoms: N_3  and  C_1 
REMARK    1  A    between atoms: C_10  and  C_1 
REMARK    2  A    between atoms: C_2  and  C_5 
REMARK    3  A    between atoms: O_15  and  C_2 
REMARK    4  A    between atoms: C_11  and  N_3 
REMARK    5  A    between atoms: C_4  and  C_11 
REMARK       I    between atoms: N_6  and  C_4 
REMARK    6  A    between atoms: C_14  and  N_6 
REMARK    7  A    between atoms: C_20  and  O_15 
ROOT
ATOM      1  C   UNL d   1     -48.772  28.139  35.172  0.00  0.00     0.299 C 
ATOM      2  N   UNL d   1     -48.867  27.919  34.385  0.00  0.00    -0.207 NA
ATOM      3  O   UNL d   1     -49.264  27.811  35.748  0.00  0.00    -0.263 OA
ENDROOT
BRANCH   1   4
ATOM      4  C   UNL d   1     -48.197  28.679  35.387  0.00  0.00     0.165 C 
BRANCH   4   5
ATOM      5  N   UNL d   1     -48.173  29.426  35.042  0.00  0.00    -0.201 NA
ATOM      6  C   UNL d   1     -47.699  30.014  35.370  0.00  0.00     0.279 C 
ATOM      7  O   UNL d   1     -47.243  29.803  36.077  0.00  0.00    -0.265 OA
BRANCH   6   8
ATOM      8  C   UNL d   1     -47.673  30.765  35.024  0.00  0.00     0.058 A 
ATOM      9  C   UNL d   1     -48.296  31.021  34.548  0.00  0.00     0.005 A 
ATOM     10  C   UNL d   1     -48.269  31.766  34.205  0.00  0.00     0.000 A 
ATOM     11  C   UNL d   1     -47.627  32.255  34.336  0.00  0.00     0.000 A 
ATOM     12  C   UNL d   1     -47.004  32.000  34.812  0.00  0.00     0.000 A 
ATOM     13  C   UNL d   1     -47.023  31.255  35.159  0.00  0.00     0.005 A 
ENDBRANCH   6   8
ENDBRANCH   4   5
ENDBRANCH   1   4
BRANCH   2  14
ATOM     14  C   UNL d   1     -49.451  27.371  34.170  0.00  0.00     0.085 A 
ATOM     15  C   UNL d   1     -50.144  27.326  34.605  0.00  0.00     0.019 A 
ATOM     16  C   UNL d   1     -50.722  26.787  34.395  0.00  0.00     0.007 A 
ATOM     17  C   UNL d   1     -50.607  26.284  33.740  0.00  0.00     0.064 A 
ATOM     18  C   UNL d   1     -49.907  26.336  33.307  0.00  0.00     0.007 A 
ATOM     19  C   UNL d   1     -49.326  26.879  33.520  0.00  0.00     0.019 A 
BRANCH  17  20
ATOM     20  C   UNL d   1     -51.191  25.739  33.528  0.00  0.00     0.300 C 
ATOM     21  O   UNL d   1     -51.942  25.998  33.307  0.00  0.00    -0.259 OA
BRANCH  20  22
ATOM     22  O   UNL d   1     -51.018  24.933  33.538  0.00  0.00    -0.271 OA
BRANCH  22  23
ATOM     23  C   UNL d   1     -51.593  24.381  33.320  0.00  0.00     0.126 C 
ATOM     24  C   UNL d   1     -52.073  24.040  33.897  0.00  0.00     0.029 C 
ENDBRANCH  22  23
ENDBRANCH  20  22
ENDBRANCH  17  20
ENDBRANCH   2  14
TORSDOF 7
ENDMDL
