MODEL 1
REMARK VINA RESULT:      15.0      0.000      0.000
REMARK  4 active torsions:
REMARK  status: ('A' for Active; 'I' for Inactive)
REMARK    1  A    between atoms: N_8  and  S_1 
REMARK    2  A    between atoms: C_12  and  S_1 
REMARK    3  A    between atoms: C_5  and  C_9 
REMARK    4  A    between atoms: C_15  and  N_8 
ROOT
ATOM      1  C   UNL d   1      45.521 -15.675  44.459  0.00  0.00     0.021 A 
ATOM      2  C   UNL d   1      46.026 -16.980  44.185  0.00  0.00     0.094 A 
ATOM      3  C   UNL d   1      46.086 -16.161  44.114  0.00  0.00     0.021 A 
ATOM      4  C   UNL d   1      44.885 -15.994  44.881  0.00  0.00     0.002 A 
ATOM      5  C   UNL d   1      44.821 -16.819  44.955  0.00  0.00     0.002 A 
ATOM      6  C   UNL d   1      45.389 -17.319  44.608  0.00  0.00     0.020 A 
ENDROOT
BRANCH   2   7
ATOM      7  N   UNL d   1      46.591 -17.465  43.839  0.00  0.00    -0.158 NA
BRANCH   7   8
ATOM      8  S   UNL d   1      46.528 -18.284  43.913  0.00  0.00     0.285 S 
ATOM      9  O   UNL d   1      46.472 -18.424  44.725  0.00  0.00    -0.198 OA
ATOM     10  O   UNL d   1      46.456 -19.057  44.199  0.00  0.00    -0.198 OA
BRANCH   8  11
ATOM     11  C   UNL d   1      46.531 -18.755  43.235  0.00  0.00     0.105 A 
ATOM     12  C   UNL d   1      46.578 -18.408  42.492  0.00  0.00     0.013 A 
ATOM     13  C   UNL d   1      46.582 -18.880  41.819  0.00  0.00     0.001 A 
ATOM     14  C   UNL d   1      46.538 -19.707  41.891  0.00  0.00     0.000 A 
ATOM     15  C   UNL d   1      46.491 -20.046  42.646  0.00  0.00     0.001 A 
ATOM     16  C   UNL d   1      46.488 -19.575  43.311  0.00  0.00     0.013 A 
ENDBRANCH   8  11
ENDBRANCH   7   8
ENDBRANCH   2   7
BRANCH   1  17
ATOM     17  C   UNL d   1      45.581 -14.853  44.388  0.00  0.00     0.118 A 
ATOM     18  N   UNL d   1      45.309 -14.389  43.761  0.00  0.00    -0.059 NA
ATOM     19  C   UNL d   1      45.489 -13.605  43.926  0.00  0.00     0.735 A 
ATOM     20  N   UNL d   1      45.347 -12.908  43.496  0.00  0.00    -0.059 NA
ATOM     21  N   UNL d   1      45.872 -13.576  44.653  0.00  0.00    -0.136 N 
ATOM     22  C   UNL d   1      45.593 -12.184  43.803  0.00  0.00     0.119 A 
ATOM     23  C   UNL d   1      45.977 -12.150  44.530  0.00  0.00     0.041 A 
ATOM     24  C   UNL d   1      46.117 -12.839  44.955  0.00  0.00     0.100 A 
ATOM     25  C   UNL d   1      45.931 -14.345  44.942  0.00  0.00     0.118 A 
ENDBRANCH   1  17
TORSDOF 4
ENDMDL
MODEL 2
REMARK VINA RESULT:      17.5      1.696      5.212
REMARK  4 active torsions:
REMARK  status: ('A' for Active; 'I' for Inactive)
REMARK    1  A    between atoms: N_8  and  S_1 
REMARK    2  A    between atoms: C_12  and  S_1 
REMARK    3  A    between atoms: C_5  and  C_9 
REMARK    4  A    between atoms: C_15  and  N_8 
ROOT
ATOM      1  C   UNL d   1      45.977 -17.334  43.600  0.00  0.00     0.021 A 
ATOM      2  C   UNL d   1      45.835 -15.968  43.983  0.00  0.00     0.094 A 
ATOM      3  C   UNL d   1      45.991 -16.536  43.407  0.00  0.00     0.021 A 
ATOM      4  C   UNL d   1      45.806 -17.583  44.371  0.00  0.00     0.002 A 
ATOM      5  C   UNL d   1      45.648 -17.013  44.955  0.00  0.00     0.002 A 
ATOM      6  C   UNL d   1      45.661 -16.202  44.767  0.00  0.00     0.020 A 
ENDROOT
BRANCH   2   7
ATOM      7  N   UNL d   1      45.850 -15.170  43.789  0.00  0.00    -0.158 NA
BRANCH   7   8
ATOM      8  S   UNL d   1      45.482 -14.622  44.283  0.00  0.00     0.285 S 
ATOM      9  O   UNL d   1      45.192 -15.064  44.917  0.00  0.00    -0.198 OA
ATOM     10  O   UNL d   1      45.073 -14.250  44.898  0.00  0.00    -0.198 OA
BRANCH   8  11
ATOM     11  C   UNL d   1      45.475 -13.824  44.072  0.00  0.00     0.105 A 
ATOM     12  C   UNL d   1      45.055 -13.577  43.410  0.00  0.00     0.013 A 
ATOM     13  C   UNL d   1      45.049 -12.783  43.202  0.00  0.00     0.001 A 
ATOM     14  C   UNL d   1      45.468 -12.229  43.661  0.00  0.00     0.000 A 
ATOM     15  C   UNL d   1      45.888 -12.490  44.326  0.00  0.00     0.001 A 
ATOM     16  C   UNL d   1      45.891 -13.280  44.529  0.00  0.00     0.013 A 
ENDBRANCH   8  11
ENDBRANCH   7   8
ENDBRANCH   2   7
BRANCH   1  17
ATOM     17  C   UNL d   1      46.134 -17.904  43.022  0.00  0.00     0.118 A 
ATOM     18  N   UNL d   1      46.228 -18.716  43.140  0.00  0.00    -0.059 NA
ATOM     19  C   UNL d   1      46.375 -19.065  42.411  0.00  0.00     0.735 A 
ATOM     20  N   UNL d   1      46.512 -19.857  42.200  0.00  0.00    -0.059 NA
ATOM     21  N   UNL d   1      46.374 -18.476  41.837  0.00  0.00    -0.136 N 
ATOM     22  C   UNL d   1      46.647 -20.051  41.411  0.00  0.00     0.119 A 
ATOM     23  C   UNL d   1      46.647 -19.464  40.834  0.00  0.00     0.041 A 
ATOM     24  C   UNL d   1      46.512 -18.681  41.042  0.00  0.00     0.100 A 
ATOM     25  C   UNL d   1      46.225 -17.757  42.211  0.00  0.00     0.118 A 
ENDBRANCH   1  17
TORSDOF 4
ENDMDL
