MODEL 1
REMARK VINA RESULT:      -2.4      0.000      0.000
REMARK  5 active torsions:
REMARK  status: ('A' for Active; 'I' for Inactive)
REMARK    1  A    between atoms: N_2  and  S_1 
REMARK    2  A    between atoms: C_4  and  S_1 
REMARK    3  A    between atoms: C_3  and  N_2 
REMARK       I    between atoms: C_6  and  N_2 
REMARK    4  A    between atoms: O_13  and  C_7 
REMARK    5  A    between atoms: C_14  and  O_13 
ROOT
ATOM      1  C   UNL d   1      58.858  -0.823  29.655  0.00  0.00     0.078 A 
ATOM      2  C   UNL d   1      59.621  -0.479  29.691  0.00  0.00     0.019 A 
ATOM      3  C   UNL d   1      60.207  -1.739  29.416  0.00  0.00     0.103 A 
ATOM      4  C   UNL d   1      60.279  -0.957  29.568  0.00  0.00     0.024 A 
ATOM      5  C   UNL d   1      58.816  -1.622  29.498  0.00  0.00     0.020 A 
ATOM      6  C   UNL d   1      59.470  -2.109  29.374  0.00  0.00     0.026 A 
ATOM      7  C   UNL d   1      59.718   0.319  29.845  0.00  0.00     0.002 A 
ATOM      8  C   UNL d   1      61.032  -0.640  29.599  0.00  0.00     0.002 A 
ATOM      9  C   UNL d   1      60.467   0.643  29.878  0.00  0.00     0.000 A 
ATOM     10  C   UNL d   1      61.129   0.159  29.754  0.00  0.00     0.000 A 
ENDROOT
BRANCH   1  11
ATOM     11  N   UNL d   1      58.199  -0.351  29.777  0.00  0.00    -0.198 N 
ATOM     12  C   UNL d   1      57.913   0.136  29.179  0.00  0.00     0.274 C 
ATOM     13  O   UNL d   1      58.287   0.151  28.457  0.00  0.00    -0.266 OA
ATOM     14  C   UNL d   1      57.284   0.682  29.072  0.00  0.00     0.067 C 
BRANCH  11  15
ATOM     15  S   UNL d   1      57.817  -0.376  30.535  0.00  0.00     0.279 S 
ATOM     16  O   UNL d   1      57.990   0.441  30.607  0.00  0.00    -0.199 OA
ATOM     17  O   UNL d   1      57.673  -1.178  30.410  0.00  0.00    -0.199 OA
BRANCH  15  18
ATOM     18  C   UNL d   1      57.454  -0.387  31.262  0.00  0.00     0.133 A 
ATOM     19  S   UNL d   1      56.963  -0.983  31.568  0.00  0.00    -0.074 SA
ATOM     20  C   UNL d   1      56.693  -0.808  32.323  0.00  0.00     0.036 A 
ATOM     21  C   UNL d   1      57.021  -0.063  32.524  0.00  0.00     0.008 A 
ATOM     22  C   UNL d   1      57.486   0.211  31.897  0.00  0.00     0.020 A 
ENDBRANCH  15  18
ENDBRANCH  11  15
ENDBRANCH   1  11
BRANCH   3  23
ATOM     23  O   UNL d   1      60.915  -2.227  29.289  0.00  0.00    -0.273 OA
BRANCH  23  24
ATOM     24  C   UNL d   1      60.890  -3.074  29.341  0.00  0.00     0.300 C 
ATOM     25  O   UNL d   1      61.028  -3.465  30.061  0.00  0.00    -0.259 OA
ATOM     26  C   UNL d   1      60.701  -3.595  28.573  0.00  0.00     0.074 C 
ENDBRANCH  23  24
ENDBRANCH   3  23
TORSDOF 5
ENDMDL
