MODEL 1
REMARK VINA RESULT:      -7.6      0.000      0.000
REMARK  5 active torsions:
REMARK  status: ('A' for Active; 'I' for Inactive)
REMARK    1  A    between atoms: C_8  and  C_1 
REMARK    2  A    between atoms: N_4  and  C_2 
REMARK       I    between atoms: C_6  and  N_4 
REMARK    3  A    between atoms: C_11  and  C_6 
REMARK    4  A    between atoms: O_12  and  C_8 
REMARK    5  A    between atoms: C_17  and  O_12 
ROOT
ATOM      1  C   UNL d   1     -48.040  12.536  22.744  0.00  0.00     0.181 A 
ATOM      2  C   UNL d   1     -47.957  13.351  22.884  0.00  0.00     0.115 A 
ATOM      3  O   UNL d   1     -47.293  12.251  22.524  0.00  0.00    -0.300 OA
ATOM      4  C   UNL d   1     -47.175  13.554  22.752  0.00  0.00     0.043 A 
ATOM      5  C   UNL d   1     -46.761  12.874  22.529  0.00  0.00     0.102 A 
ATOM      6  C   UNL d   1     -46.780  14.276  22.805  0.00  0.00     0.004 A 
ATOM      7  C   UNL d   1     -45.961  12.918  22.361  0.00  0.00     0.025 A 
ATOM      8  C   UNL d   1     -45.970  14.319  22.635  0.00  0.00     0.000 A 
ATOM      9  C   UNL d   1     -45.564  13.633  22.413  0.00  0.00     0.002 A 
ENDROOT
BRANCH   2  10
ATOM     10  N   UNL d   1     -48.566  13.867  23.118  0.00  0.00    -0.206 NA
ATOM     11  C   UNL d   1     -48.899  14.383  22.569  0.00  0.00     0.279 C 
ATOM     12  O   UNL d   1     -48.630  14.391  21.790  0.00  0.00    -0.265 OA
BRANCH  11  13
ATOM     13  C   UNL d   1     -49.501  14.891  22.801  0.00  0.00     0.058 A 
ATOM     14  C   UNL d   1     -50.235  14.881  22.402  0.00  0.00     0.005 A 
ATOM     15  C   UNL d   1     -50.829  15.386  22.635  0.00  0.00     0.000 A 
ATOM     16  C   UNL d   1     -50.705  15.906  23.263  0.00  0.00     0.000 A 
ATOM     17  C   UNL d   1     -49.985  15.915  23.652  0.00  0.00     0.000 A 
ATOM     18  C   UNL d   1     -49.376  15.399  23.416  0.00  0.00     0.005 A 
ENDBRANCH  11  13
ENDBRANCH   2  10
BRANCH   1  19
ATOM     19  C   UNL d   1     -48.735  12.095  22.811  0.00  0.00     0.325 C 
ATOM     20  O   UNL d   1     -49.188  11.936  22.136  0.00  0.00    -0.257 OA
BRANCH  19  21
ATOM     21  O   UNL d   1     -48.971  11.818  23.543  0.00  0.00    -0.269 OA
BRANCH  21  22
ATOM     22  C   UNL d   1     -49.466  11.152  23.595  0.00  0.00     0.126 C 
ATOM     23  C   UNL d   1     -50.283  11.257  23.698  0.00  0.00     0.029 C 
ENDBRANCH  21  22
ENDBRANCH  19  21
ENDBRANCH   1  19
TORSDOF 5
ENDMDL
MODEL 2
REMARK VINA RESULT:      -7.1      0.819      3.330
REMARK  5 active torsions:
REMARK  status: ('A' for Active; 'I' for Inactive)
REMARK    1  A    between atoms: C_8  and  C_1 
REMARK    2  A    between atoms: N_4  and  C_2 
REMARK       I    between atoms: C_6  and  N_4 
REMARK    3  A    between atoms: C_11  and  C_6 
REMARK    4  A    between atoms: O_12  and  C_8 
REMARK    5  A    between atoms: C_17  and  O_12 
ROOT
ATOM      1  C   UNL d   1     -49.869  13.230  23.000  0.00  0.00     0.181 A 
ATOM      2  C   UNL d   1     -49.310  13.836  23.111  0.00  0.00     0.115 A 
ATOM      3  O   UNL d   1     -50.619  13.581  23.052  0.00  0.00    -0.300 OA
ATOM      4  C   UNL d   1     -49.714  14.537  23.227  0.00  0.00     0.043 A 
ATOM      5  C   UNL d   1     -50.526  14.383  23.191  0.00  0.00     0.102 A 
ATOM      6  C   UNL d   1     -49.449  15.307  23.363  0.00  0.00     0.004 A 
ATOM      7  C   UNL d   1     -51.064  14.992  23.290  0.00  0.00     0.025 A 
ATOM      8  C   UNL d   1     -49.995  15.922  23.463  0.00  0.00     0.000 A 
ATOM      9  C   UNL d   1     -50.806  15.757  23.425  0.00  0.00     0.002 A 
ENDROOT
BRANCH   2  10
ATOM     10  N   UNL d   1     -48.484  13.739  23.104  0.00  0.00    -0.206 NA
ATOM     11  C   UNL d   1     -48.052  13.966  22.441  0.00  0.00     0.279 C 
ATOM     12  O   UNL d   1     -48.433  14.288  21.785  0.00  0.00    -0.265 OA
BRANCH  11  13
ATOM     13  C   UNL d   1     -47.235  13.870  22.435  0.00  0.00     0.058 A 
ATOM     14  C   UNL d   1     -46.762  14.267  22.997  0.00  0.00     0.005 A 
ATOM     15  C   UNL d   1     -45.955  14.170  22.988  0.00  0.00     0.000 A 
ATOM     16  C   UNL d   1     -45.606  13.680  22.425  0.00  0.00     0.000 A 
ATOM     17  C   UNL d   1     -46.070  13.291  21.875  0.00  0.00     0.000 A 
ATOM     18  C   UNL d   1     -46.896  13.389  21.882  0.00  0.00     0.005 A 
ENDBRANCH  11  13
ENDBRANCH   2  10
BRANCH   1  19
ATOM     19  C   UNL d   1     -49.707  12.432  22.864  0.00  0.00     0.325 C 
ATOM     20  O   UNL d   1     -49.801  12.116  22.105  0.00  0.00    -0.257 OA
BRANCH  19  21
ATOM     21  O   UNL d   1     -49.454  11.958  23.482  0.00  0.00    -0.269 OA
BRANCH  21  22
ATOM     22  C   UNL d   1     -49.449  11.132  23.395  0.00  0.00     0.126 C 
ATOM     23  C   UNL d   1     -48.813  10.692  23.696  0.00  0.00     0.029 C 
ENDBRANCH  21  22
ENDBRANCH  19  21
ENDBRANCH   1  19
TORSDOF 5
ENDMDL
MODEL 3
REMARK VINA RESULT:      -7.1      9.042     10.177
REMARK  5 active torsions:
REMARK  status: ('A' for Active; 'I' for Inactive)
REMARK    1  A    between atoms: C_8  and  C_1 
REMARK    2  A    between atoms: N_4  and  C_2 
REMARK       I    between atoms: C_6  and  N_4 
REMARK    3  A    between atoms: C_11  and  C_6 
REMARK    4  A    between atoms: O_12  and  C_8 
REMARK    5  A    between atoms: C_17  and  O_12 
ROOT
ATOM      1  C   UNL d   1     -39.322  14.372  17.605  0.00  0.00     0.181 A 
ATOM      2  C   UNL d   1     -39.764  14.835  18.135  0.00  0.00     0.115 A 
ATOM      3  O   UNL d   1     -39.693  14.431  16.865  0.00  0.00    -0.300 OA
ATOM      4  C   UNL d   1     -40.389  15.167  17.724  0.00  0.00     0.043 A 
ATOM      5  C   UNL d   1     -40.348  14.918  16.937  0.00  0.00     0.102 A 
ATOM      6  C   UNL d   1     -40.998  15.668  17.965  0.00  0.00     0.004 A 
ATOM      7  C   UNL d   1     -40.911  15.170  16.398  0.00  0.00     0.025 A 
ATOM      8  C   UNL d   1     -41.567  15.922  17.417  0.00  0.00     0.000 A 
ATOM      9  C   UNL d   1     -41.517  15.668  16.631  0.00  0.00     0.002 A 
ENDROOT
BRANCH   2  10
ATOM     10  N   UNL d   1     -39.596  14.939  18.943  0.00  0.00    -0.206 NA
ATOM     11  C   UNL d   1     -40.066  14.571  19.510  0.00  0.00     0.279 C 
ATOM     12  O   UNL d   1     -40.702  14.101  19.281  0.00  0.00    -0.265 OA
BRANCH  11  13
ATOM     13  C   UNL d   1     -39.899  14.675  20.308  0.00  0.00     0.058 A 
ATOM     14  C   UNL d   1     -39.717  14.015  20.787  0.00  0.00     0.005 A 
ATOM     15  C   UNL d   1     -39.552  14.121  21.576  0.00  0.00     0.000 A 
ATOM     16  C   UNL d   1     -39.563  14.879  21.901  0.00  0.00     0.000 A 
ATOM     17  C   UNL d   1     -39.741  15.524  21.430  0.00  0.00     0.000 A 
ATOM     18  C   UNL d   1     -39.911  15.418  20.623  0.00  0.00     0.005 A 
ENDBRANCH  11  13
ENDBRANCH   2  10
BRANCH   1  19
ATOM     19  C   UNL d   1     -38.644  13.937  17.782  0.00  0.00     0.325 C 
ATOM     20  O   UNL d   1     -37.950  14.329  18.009  0.00  0.00    -0.257 OA
BRANCH  19  21
ATOM     21  O   UNL d   1     -38.660  13.120  17.732  0.00  0.00    -0.269 OA
BRANCH  21  22
ATOM     22  C   UNL d   1     -37.949  12.695  17.656  0.00  0.00     0.126 C 
ATOM     23  C   UNL d   1     -37.944  11.878  17.805  0.00  0.00     0.029 C 
ENDBRANCH  21  22
ENDBRANCH  19  21
ENDBRANCH   1  19
TORSDOF 5
ENDMDL
MODEL 4
REMARK VINA RESULT:      -6.5      1.746      3.061
REMARK  5 active torsions:
REMARK  status: ('A' for Active; 'I' for Inactive)
REMARK    1  A    between atoms: C_8  and  C_1 
REMARK    2  A    between atoms: N_4  and  C_2 
REMARK       I    between atoms: C_6  and  N_4 
REMARK    3  A    between atoms: C_11  and  C_6 
REMARK    4  A    between atoms: O_12  and  C_8 
REMARK    5  A    between atoms: C_17  and  O_12 
ROOT
ATOM      1  C   UNL d   1     -46.787  13.150  23.211  0.00  0.00     0.181 A 
ATOM      2  C   UNL d   1     -47.252  12.475  23.354  0.00  0.00     0.115 A 
ATOM      3  O   UNL d   1     -45.998  12.899  23.184  0.00  0.00    -0.300 OA
ATOM      4  C   UNL d   1     -46.752  11.830  23.410  0.00  0.00     0.043 A 
ATOM      5  C   UNL d   1     -45.974  12.089  23.306  0.00  0.00     0.102 A 
ATOM      6  C   UNL d   1     -46.903  11.030  23.545  0.00  0.00     0.004 A 
ATOM      7  C   UNL d   1     -45.356  11.553  23.336  0.00  0.00     0.025 A 
ATOM      8  C   UNL d   1     -46.276  10.489  23.576  0.00  0.00     0.000 A 
ATOM      9  C   UNL d   1     -45.501  10.758  23.470  0.00  0.00     0.002 A 
ENDROOT
BRANCH   2  10
ATOM     10  N   UNL d   1     -48.080  12.464  23.425  0.00  0.00    -0.206 NA
ATOM     11  C   UNL d   1     -48.541  12.191  22.799  0.00  0.00     0.279 C 
ATOM     12  O   UNL d   1     -48.185  11.929  22.104  0.00  0.00    -0.265 OA
BRANCH  11  13
ATOM     13  C   UNL d   1     -49.359  12.180  22.870  0.00  0.00     0.058 A 
ATOM     14  C   UNL d   1     -49.715  11.893  23.569  0.00  0.00     0.005 A 
ATOM     15  C   UNL d   1     -50.526  11.884  23.637  0.00  0.00     0.000 A 
ATOM     16  C   UNL d   1     -50.993  12.158  23.016  0.00  0.00     0.000 A 
ATOM     17  C   UNL d   1     -50.644  12.439  22.331  0.00  0.00     0.000 A 
ATOM     18  C   UNL d   1     -49.815  12.449  22.260  0.00  0.00     0.005 A 
ENDBRANCH  11  13
ENDBRANCH   2  10
BRANCH   1  19
ATOM     19  C   UNL d   1     -47.062  13.923  23.116  0.00  0.00     0.325 C 
ATOM     20  O   UNL d   1     -47.558  14.257  23.689  0.00  0.00    -0.257 OA
BRANCH  19  21
ATOM     21  O   UNL d   1     -46.843  14.354  22.456  0.00  0.00    -0.269 OA
BRANCH  21  22
ATOM     22  C   UNL d   1     -46.983  15.172  22.430  0.00  0.00     0.126 C 
ATOM     23  C   UNL d   1     -47.549  15.474  21.902  0.00  0.00     0.029 C 
ENDBRANCH  21  22
ENDBRANCH  19  21
ENDBRANCH   1  19
TORSDOF 5
ENDMDL
MODEL 5
REMARK VINA RESULT:      -6.4      1.150      2.833
REMARK  5 active torsions:
REMARK  status: ('A' for Active; 'I' for Inactive)
REMARK    1  A    between atoms: C_8  and  C_1 
REMARK    2  A    between atoms: N_4  and  C_2 
REMARK       I    between atoms: C_6  and  N_4 
REMARK    3  A    between atoms: C_11  and  C_6 
REMARK    4  A    between atoms: O_12  and  C_8 
REMARK    5  A    between atoms: C_17  and  O_12 
ROOT
ATOM      1  C   UNL d   1     -46.663  12.770  23.125  0.00  0.00     0.181 A 
ATOM      2  C   UNL d   1     -47.475  12.876  23.271  0.00  0.00     0.115 A 
ATOM      3  O   UNL d   1     -46.512  11.956  23.178  0.00  0.00    -0.300 OA
ATOM      4  C   UNL d   1     -47.807  12.141  23.410  0.00  0.00     0.043 A 
ATOM      5  C   UNL d   1     -47.213  11.569  23.353  0.00  0.00     0.102 A 
ATOM      6  C   UNL d   1     -48.581  11.913  23.582  0.00  0.00     0.004 A 
ATOM      7  C   UNL d   1     -47.393  10.778  23.468  0.00  0.00     0.025 A 
ATOM      8  C   UNL d   1     -48.761  11.112  23.698  0.00  0.00     0.000 A 
ATOM      9  C   UNL d   1     -48.159  10.547  23.639  0.00  0.00     0.002 A 
ENDROOT
BRANCH   2  10
ATOM     10  N   UNL d   1     -47.875  13.605  23.275  0.00  0.00    -0.206 NA
ATOM     11  C   UNL d   1     -48.458  13.754  22.712  0.00  0.00     0.279 C 
ATOM     12  O   UNL d   1     -48.646  13.186  22.146  0.00  0.00    -0.265 OA
BRANCH  11  13
ATOM     13  C   UNL d   1     -48.852  14.475  22.716  0.00  0.00     0.058 A 
ATOM     14  C   UNL d   1     -48.813  14.979  22.051  0.00  0.00     0.005 A 
ATOM     15  C   UNL d   1     -49.204  15.691  22.058  0.00  0.00     0.000 A 
ATOM     16  C   UNL d   1     -49.639  15.915  22.722  0.00  0.00     0.000 A 
ATOM     17  C   UNL d   1     -49.677  15.421  23.373  0.00  0.00     0.000 A 
ATOM     18  C   UNL d   1     -49.277  14.691  23.368  0.00  0.00     0.005 A 
ENDBRANCH  11  13
ENDBRANCH   2  10
BRANCH   1  19
ATOM     19  C   UNL d   1     -46.114  13.363  22.959  0.00  0.00     0.325 C 
ATOM     20  O   UNL d   1     -45.959  13.950  23.522  0.00  0.00    -0.257 OA
BRANCH  19  21
ATOM     21  O   UNL d   1     -45.726  13.367  22.239  0.00  0.00    -0.269 OA
BRANCH  21  22
ATOM     22  C   UNL d   1     -44.905  13.498  22.211  0.00  0.00     0.126 C 
ATOM     23  C   UNL d   1     -44.474  13.247  21.547  0.00  0.00     0.029 C 
ENDBRANCH  21  22
ENDBRANCH  19  21
ENDBRANCH   1  19
TORSDOF 5
ENDMDL
MODEL 6
REMARK VINA RESULT:      -6.2      8.797     10.464
REMARK  5 active torsions:
REMARK  status: ('A' for Active; 'I' for Inactive)
REMARK    1  A    between atoms: C_8  and  C_1 
REMARK    2  A    between atoms: N_4  and  C_2 
REMARK       I    between atoms: C_6  and  N_4 
REMARK    3  A    between atoms: C_11  and  C_6 
REMARK    4  A    between atoms: O_12  and  C_8 
REMARK    5  A    between atoms: C_17  and  O_12 
ROOT
ATOM      1  C   UNL d   1     -40.245  15.571  18.667  0.00  0.00     0.181 A 
ATOM      2  C   UNL d   1     -39.747  14.976  18.966  0.00  0.00     0.115 A 
ATOM      3  O   UNL d   1     -40.652  15.893  19.314  0.00  0.00    -0.300 OA
ATOM      4  C   UNL d   1     -39.851  14.939  19.776  0.00  0.00     0.043 A 
ATOM      5  C   UNL d   1     -40.411  15.507  19.995  0.00  0.00     0.102 A 
ATOM      6  C   UNL d   1     -39.506  14.460  20.352  0.00  0.00     0.004 A 
ATOM      7  C   UNL d   1     -40.623  15.591  20.782  0.00  0.00     0.025 A 
ATOM      8  C   UNL d   1     -39.721  14.547  21.148  0.00  0.00     0.000 A 
ATOM      9  C   UNL d   1     -40.283  15.118  21.357  0.00  0.00     0.002 A 
ENDROOT
BRANCH   2  10
ATOM     10  N   UNL d   1     -39.234  14.502  18.514  0.00  0.00    -0.206 NA
ATOM     11  C   UNL d   1     -39.461  13.740  18.301  0.00  0.00     0.279 C 
ATOM     12  O   UNL d   1     -40.194  13.444  18.534  0.00  0.00    -0.265 OA
BRANCH  11  13
ATOM     13  C   UNL d   1     -38.953  13.273  17.855  0.00  0.00     0.058 A 
ATOM     14  C   UNL d   1     -38.809  13.460  17.053  0.00  0.00     0.005 A 
ATOM     15  C   UNL d   1     -38.305  12.996  16.614  0.00  0.00     0.000 A 
ATOM     16  C   UNL d   1     -37.940  12.343  16.961  0.00  0.00     0.000 A 
ATOM     17  C   UNL d   1     -38.082  12.162  17.746  0.00  0.00     0.000 A 
ATOM     18  C   UNL d   1     -38.596  12.635  18.197  0.00  0.00     0.005 A 
ENDBRANCH  11  13
ENDBRANCH   2  10
BRANCH   1  19
ATOM     19  C   UNL d   1     -40.320  15.796  17.876  0.00  0.00     0.325 C 
ATOM     20  O   UNL d   1     -39.642  15.909  17.414  0.00  0.00    -0.257 OA
BRANCH  19  21
ATOM     21  O   UNL d   1     -41.064  15.907  17.554  0.00  0.00    -0.269 OA
BRANCH  21  22
ATOM     22  C   UNL d   1     -41.160  15.921  16.728  0.00  0.00     0.126 C 
ATOM     23  C   UNL d   1     -41.924  15.897  16.405  0.00  0.00     0.029 C 
ENDBRANCH  21  22
ENDBRANCH  19  21
ENDBRANCH   1  19
TORSDOF 5
ENDMDL
MODEL 7
REMARK VINA RESULT:      -6.0      6.948      9.264
REMARK  5 active torsions:
REMARK  status: ('A' for Active; 'I' for Inactive)
REMARK    1  A    between atoms: C_8  and  C_1 
REMARK    2  A    between atoms: N_4  and  C_2 
REMARK       I    between atoms: C_6  and  N_4 
REMARK    3  A    between atoms: C_11  and  C_6 
REMARK    4  A    between atoms: O_12  and  C_8 
REMARK    5  A    between atoms: C_17  and  O_12 
ROOT
ATOM      1  C   UNL d   1     -40.523  15.027  21.041  0.00  0.00     0.181 A 
ATOM      2  C   UNL d   1     -39.997  15.331  20.473  0.00  0.00     0.115 A 
ATOM      3  O   UNL d   1     -40.118  15.016  21.764  0.00  0.00    -0.300 OA
ATOM      4  C   UNL d   1     -39.289  15.499  20.846  0.00  0.00     0.043 A 
ATOM      5  C   UNL d   1     -39.360  15.305  21.647  0.00  0.00     0.102 A 
ATOM      6  C   UNL d   1     -38.579  15.808  20.561  0.00  0.00     0.004 A 
ATOM      7  C   UNL d   1     -38.728  15.419  22.154  0.00  0.00     0.025 A 
ATOM      8  C   UNL d   1     -37.940  15.922  21.076  0.00  0.00     0.000 A 
ATOM      9  C   UNL d   1     -38.021  15.725  21.876  0.00  0.00     0.002 A 
ENDROOT
BRANCH   2  10
ATOM     10  N   UNL d   1     -40.167  15.442  19.666  0.00  0.00    -0.206 NA
ATOM     11  C   UNL d   1     -39.900  14.893  19.113  0.00  0.00     0.279 C 
ATOM     12  O   UNL d   1     -39.466  14.236  19.354  0.00  0.00    -0.265 OA
BRANCH  11  13
ATOM     13  C   UNL d   1     -40.068  15.004  18.317  0.00  0.00     0.058 A 
ATOM     14  C   UNL d   1     -40.124  15.776  18.003  0.00  0.00     0.005 A 
ATOM     15  C   UNL d   1     -40.291  15.882  17.215  0.00  0.00     0.000 A 
ATOM     16  C   UNL d   1     -40.405  15.228  16.726  0.00  0.00     0.000 A 
ATOM     17  C   UNL d   1     -40.351  14.472  17.034  0.00  0.00     0.000 A 
ATOM     18  C   UNL d   1     -40.180  14.361  17.841  0.00  0.00     0.005 A 
ENDBRANCH  11  13
ENDBRANCH   2  10
BRANCH   1  19
ATOM     19  C   UNL d   1     -41.300  14.784  20.908  0.00  0.00     0.325 C 
ATOM     20  O   UNL d   1     -41.882  15.344  20.723  0.00  0.00    -0.257 OA
BRANCH  19  21
ATOM     21  O   UNL d   1     -41.492  13.990  20.960  0.00  0.00    -0.269 OA
BRANCH  21  22
ATOM     22  C   UNL d   1     -42.286  13.760  21.053  0.00  0.00     0.126 C 
ATOM     23  C   UNL d   1     -42.464  12.974  21.252  0.00  0.00     0.029 C 
ENDBRANCH  21  22
ENDBRANCH  19  21
ENDBRANCH   1  19
TORSDOF 5
ENDMDL
MODEL 8
REMARK VINA RESULT:      -5.7      1.301      3.323
REMARK  5 active torsions:
REMARK  status: ('A' for Active; 'I' for Inactive)
REMARK    1  A    between atoms: C_8  and  C_1 
REMARK    2  A    between atoms: N_4  and  C_2 
REMARK       I    between atoms: C_6  and  N_4 
REMARK    3  A    between atoms: C_11  and  C_6 
REMARK    4  A    between atoms: O_12  and  C_8 
REMARK    5  A    between atoms: C_17  and  O_12 
ROOT
ATOM      1  C   UNL d   1     -49.244  13.389  22.351  0.00  0.00     0.181 A 
ATOM      2  C   UNL d   1     -48.477  13.498  22.654  0.00  0.00     0.115 A 
ATOM      3  O   UNL d   1     -49.489  14.120  22.047  0.00  0.00    -0.300 OA
ATOM      4  C   UNL d   1     -48.264  14.279  22.536  0.00  0.00     0.043 A 
ATOM      5  C   UNL d   1     -48.889  14.667  22.160  0.00  0.00     0.102 A 
ATOM      6  C   UNL d   1     -47.576  14.693  22.722  0.00  0.00     0.004 A 
ATOM      7  C   UNL d   1     -48.825  15.462  21.973  0.00  0.00     0.025 A 
ATOM      8  C   UNL d   1     -47.513  15.498  22.533  0.00  0.00     0.000 A 
ATOM      9  C   UNL d   1     -48.144  15.879  22.156  0.00  0.00     0.002 A 
ENDROOT
BRANCH   2  10
ATOM     10  N   UNL d   1     -48.011  12.910  23.015  0.00  0.00    -0.206 NA
ATOM     11  C   UNL d   1     -47.344  12.622  22.627  0.00  0.00     0.279 C 
ATOM     12  O   UNL d   1     -47.136  12.912  21.885  0.00  0.00    -0.265 OA
BRANCH  11  13
ATOM     13  C   UNL d   1     -46.885  12.041  22.984  0.00  0.00     0.058 A 
ATOM     14  C   UNL d   1     -47.250  11.382  23.346  0.00  0.00     0.005 A 
ATOM     15  C   UNL d   1     -46.793  10.809  23.698  0.00  0.00     0.000 A 
ATOM     16  C   UNL d   1     -45.972  10.880  23.698  0.00  0.00     0.000 A 
ATOM     17  C   UNL d   1     -45.616  11.526  23.343  0.00  0.00     0.000 A 
ATOM     18  C   UNL d   1     -46.081  12.113  22.982  0.00  0.00     0.005 A 
ENDBRANCH  11  13
ENDBRANCH   2  10
BRANCH   1  19
ATOM     19  C   UNL d   1     -49.676  12.686  22.352  0.00  0.00     0.325 C 
ATOM     20  O   UNL d   1     -49.680  12.203  21.680  0.00  0.00    -0.257 OA
BRANCH  19  21
ATOM     21  O   UNL d   1     -50.100  12.471  23.019  0.00  0.00    -0.269 OA
BRANCH  21  22
ATOM     22  C   UNL d   1     -50.775  11.993  22.945  0.00  0.00     0.126 C 
ATOM     23  C   UNL d   1     -50.943  11.429  23.530  0.00  0.00     0.029 C 
ENDBRANCH  21  22
ENDBRANCH  19  21
ENDBRANCH   1  19
TORSDOF 5
ENDMDL
MODEL 9
REMARK VINA RESULT:      -5.7      1.536      2.537
REMARK  5 active torsions:
REMARK  status: ('A' for Active; 'I' for Inactive)
REMARK    1  A    between atoms: C_8  and  C_1 
REMARK    2  A    between atoms: N_4  and  C_2 
REMARK       I    between atoms: C_6  and  N_4 
REMARK    3  A    between atoms: C_11  and  C_6 
REMARK    4  A    between atoms: O_12  and  C_8 
REMARK    5  A    between atoms: C_17  and  O_12 
ROOT
ATOM      1  C   UNL d   1     -46.564  12.625  23.197  0.00  0.00     0.181 A 
ATOM      2  C   UNL d   1     -47.232  13.121  23.185  0.00  0.00     0.115 A 
ATOM      3  O   UNL d   1     -45.924  13.075  22.924  0.00  0.00    -0.300 OA
ATOM      4  C   UNL d   1     -46.999  13.855  22.910  0.00  0.00     0.043 A 
ATOM      5  C   UNL d   1     -46.189  13.830  22.747  0.00  0.00     0.102 A 
ATOM      6  C   UNL d   1     -47.421  14.552  22.784  0.00  0.00     0.004 A 
ATOM      7  C   UNL d   1     -45.807  14.496  22.461  0.00  0.00     0.025 A 
ATOM      8  C   UNL d   1     -47.033  15.225  22.495  0.00  0.00     0.000 A 
ATOM      9  C   UNL d   1     -46.222  15.190  22.334  0.00  0.00     0.002 A 
ENDROOT
BRANCH   2  10
ATOM     10  N   UNL d   1     -48.001  12.902  23.415  0.00  0.00    -0.206 NA
ATOM     11  C   UNL d   1     -48.582  12.789  22.842  0.00  0.00     0.279 C 
ATOM     12  O   UNL d   1     -48.405  12.891  22.044  0.00  0.00    -0.265 OA
BRANCH  11  13
ATOM     13  C   UNL d   1     -49.341  12.574  23.070  0.00  0.00     0.058 A 
ATOM     14  C   UNL d   1     -49.832  13.122  23.467  0.00  0.00     0.005 A 
ATOM     15  C   UNL d   1     -50.582  12.905  23.691  0.00  0.00     0.000 A 
ATOM     16  C   UNL d   1     -50.858  12.146  23.527  0.00  0.00     0.000 A 
ATOM     17  C   UNL d   1     -50.377  11.610  23.138  0.00  0.00     0.000 A 
ATOM     18  C   UNL d   1     -49.609  11.829  22.908  0.00  0.00     0.005 A 
ENDBRANCH  11  13
ENDBRANCH   2  10
BRANCH   1  19
ATOM     19  C   UNL d   1     -46.545  11.835  23.437  0.00  0.00     0.325 C 
ATOM     20  O   UNL d   1     -47.239  11.466  23.696  0.00  0.00    -0.257 OA
BRANCH  19  21
ATOM     21  O   UNL d   1     -45.839  11.422  23.416  0.00  0.00    -0.269 OA
BRANCH  21  22
ATOM     22  C   UNL d   1     -45.808  10.640  23.698  0.00  0.00     0.126 C 
ATOM     23  C   UNL d   1     -45.117  10.193  23.587  0.00  0.00     0.029 C 
ENDBRANCH  21  22
ENDBRANCH  19  21
ENDBRANCH   1  19
TORSDOF 5
ENDMDL
