MODEL 1
REMARK VINA RESULT:       0.0      0.000      0.000
REMARK  2 active torsions:
REMARK  status: ('A' for Active; 'I' for Inactive)
REMARK    1  A    between atoms: C_9  and  C_1 
REMARK    2  A    between atoms: C_18  and  N_6 
ROOT
ATOM      1  C   UNL d   1     -41.508-121.530 -51.875  0.00  0.00     0.121 A 
ATOM      2  C   UNL d   1     -41.477-122.037 -53.216  0.00  0.00     0.057 A 
ATOM      3  C   UNL d   1     -41.566-121.394 -52.697  0.00  0.00     0.204 A 
ATOM      4  C   UNL d   1     -41.332-122.805 -52.932  0.00  0.00     0.069 A 
ATOM      5  C   UNL d   1     -41.363-122.294 -51.583  0.00  0.00     0.089 A 
ATOM      6  N   UNL d   1     -41.276-122.929 -52.114  0.00  0.00    -0.303 N 
ATOM      7  C   UNL d   1     -41.246-123.426 -53.454  0.00  0.00     0.044 A 
ATOM      8  C   UNL d   1     -41.533-121.913 -54.034  0.00  0.00     0.031 A 
ATOM      9  C   UNL d   1     -41.303-123.300 -54.264  0.00  0.00     0.121 A 
ATOM     10  C   UNL d   1     -41.446-122.543 -54.553  0.00  0.00     0.119 A 
ATOM     11  O   UNL d   1     -41.241-123.813 -54.900  0.00  0.00    -0.299 OA
ATOM     12  O   UNL d   1     -41.473-122.589 -55.369  0.00  0.00    -0.300 OA
ATOM     13  O   UNL d   1     -41.710-120.637 -52.987  0.00  0.00    -0.286 OA
ATOM     14  C   UNL d   1     -41.347-123.367 -55.587  0.00  0.00     0.304 A 
ENDROOT
BRANCH   1  15
ATOM     15  C   UNL d   1     -41.595-120.898 -51.352  0.00  0.00     0.215 C 
ATOM     16  O   UNL d   1     -41.123-120.229 -51.433  0.00  0.00    -0.644 OA
ATOM     17  O   UNL d   1     -42.153-120.937 -50.750  0.00  0.00    -0.644 OA
ENDBRANCH   1  15
BRANCH   6  18
ATOM     18  C   UNL d   1     -41.132-123.685 -51.824  0.00  0.00     0.080 C 
ATOM     19  C   UNL d   1     -41.123-123.817 -51.006  0.00  0.00     0.021 C 
ENDBRANCH   6  18
TORSDOF 2
ENDMDL
MODEL 2
REMARK VINA RESULT:       0.9      2.896      4.921
REMARK  2 active torsions:
REMARK  status: ('A' for Active; 'I' for Inactive)
REMARK    1  A    between atoms: C_9  and  C_1 
REMARK    2  A    between atoms: C_18  and  N_6 
ROOT
ATOM      1  C   UNL d   1     -42.384-122.688 -50.665  0.00  0.00     0.121 A 
ATOM      2  C   UNL d   1     -41.971-122.877 -49.304  0.00  0.00     0.057 A 
ATOM      3  C   UNL d   1     -41.818-122.570 -50.062  0.00  0.00     0.204 A 
ATOM      4  C   UNL d   1     -42.670-123.294 -49.141  0.00  0.00     0.069 A 
ATOM      5  C   UNL d   1     -43.086-123.104 -50.509  0.00  0.00     0.089 A 
ATOM      6  N   UNL d   1     -43.226-123.405 -49.746  0.00  0.00    -0.303 N 
ATOM      7  C   UNL d   1     -42.807-123.589 -48.392  0.00  0.00     0.044 A 
ATOM      8  C   UNL d   1     -41.415-122.765 -48.700  0.00  0.00     0.031 A 
ATOM      9  C   UNL d   1     -42.254-123.477 -47.794  0.00  0.00     0.121 A 
ATOM     10  C   UNL d   1     -41.559-123.065 -47.948  0.00  0.00     0.119 A 
ATOM     11  O   UNL d   1     -42.248-123.709 -47.008  0.00  0.00    -0.299 OA
ATOM     12  O   UNL d   1     -41.123-123.043 -47.257  0.00  0.00    -0.300 OA
ATOM     13  O   UNL d   1     -41.123-122.158 -50.216  0.00  0.00    -0.286 OA
ATOM     14  C   UNL d   1     -41.543-123.437 -46.676  0.00  0.00     0.304 A 
ENDROOT
BRANCH   1  15
ATOM     15  C   UNL d   1     -42.241-122.387 -51.420  0.00  0.00     0.215 C 
ATOM     16  O   UNL d   1     -42.531-121.645 -51.628  0.00  0.00    -0.644 OA
ATOM     17  O   UNL d   1     -41.811-122.829 -51.963  0.00  0.00    -0.644 OA
ENDBRANCH   1  15
BRANCH   6  18
ATOM     18  C   UNL d   1     -43.922-123.817 -49.592  0.00  0.00     0.080 C 
ATOM     19  C   UNL d   1     -44.617-123.616 -49.998  0.00  0.00     0.021 C 
ENDBRANCH   6  18
TORSDOF 2
ENDMDL
MODEL 3
REMARK VINA RESULT:       1.6      1.362      2.206
REMARK  2 active torsions:
REMARK  status: ('A' for Active; 'I' for Inactive)
REMARK    1  A    between atoms: C_9  and  C_1 
REMARK    2  A    between atoms: C_18  and  N_6 
ROOT
ATOM      1  C   UNL d   1     -41.920-122.470 -50.551  0.00  0.00     0.121 A 
ATOM      2  C   UNL d   1     -41.753-122.907 -51.906  0.00  0.00     0.057 A 
ATOM      3  C   UNL d   1     -41.983-123.073 -51.125  0.00  0.00     0.204 A 
ATOM      4  C   UNL d   1     -41.465-122.158 -52.122  0.00  0.00     0.069 A 
ATOM      5  C   UNL d   1     -41.633-121.718 -50.758  0.00  0.00     0.089 A 
ATOM      6  N   UNL d   1     -41.407-121.566 -51.544  0.00  0.00    -0.303 N 
ATOM      7  C   UNL d   1     -41.243-122.010 -52.894  0.00  0.00     0.044 A 
ATOM      8  C   UNL d   1     -41.812-123.499 -52.483  0.00  0.00     0.031 A 
ATOM      9  C   UNL d   1     -41.303-122.599 -53.463  0.00  0.00     0.121 A 
ATOM     10  C   UNL d   1     -41.587-123.344 -53.258  0.00  0.00     0.119 A 
ATOM     11  O   UNL d   1     -41.123-122.603 -54.263  0.00  0.00    -0.299 OA
ATOM     12  O   UNL d   1     -41.583-123.807 -53.931  0.00  0.00    -0.300 OA
ATOM     13  O   UNL d   1     -42.267-123.817 -50.919  0.00  0.00    -0.286 OA
ATOM     14  C   UNL d   1     -41.298-123.356 -54.551  0.00  0.00     0.304 A 
ENDROOT
BRANCH   1  15
ATOM     15  C   UNL d   1     -42.146-122.624 -49.772  0.00  0.00     0.215 C 
ATOM     16  O   UNL d   1     -42.883-122.378 -49.501  0.00  0.00    -0.644 OA
ATOM     17  O   UNL d   1     -41.634-123.024 -49.269  0.00  0.00    -0.644 OA
ENDBRANCH   1  15
BRANCH   6  18
ATOM     18  C   UNL d   1     -41.122-120.821 -51.750  0.00  0.00     0.080 C 
ATOM     19  C   UNL d   1     -41.127-120.211 -51.189  0.00  0.00     0.021 C 
ENDBRANCH   6  18
TORSDOF 2
ENDMDL
MODEL 4
REMARK VINA RESULT:       2.3      1.561      3.773
REMARK  2 active torsions:
REMARK  status: ('A' for Active; 'I' for Inactive)
REMARK    1  A    between atoms: C_9  and  C_1 
REMARK    2  A    between atoms: C_18  and  N_6 
ROOT
ATOM      1  C   UNL d   1     -41.623-122.417 -52.748  0.00  0.00     0.121 A 
ATOM      2  C   UNL d   1     -41.551-122.877 -51.391  0.00  0.00     0.057 A 
ATOM      3  C   UNL d   1     -41.682-123.041 -52.196  0.00  0.00     0.204 A 
ATOM      4  C   UNL d   1     -41.364-122.110 -51.132  0.00  0.00     0.069 A 
ATOM      5  C   UNL d   1     -41.437-121.647 -52.496  0.00  0.00     0.089 A 
ATOM      6  N   UNL d   1     -41.308-121.498 -51.688  0.00  0.00    -0.303 N 
ATOM      7  C   UNL d   1     -41.237-121.965 -50.338  0.00  0.00     0.044 A 
ATOM      8  C   UNL d   1     -41.607-123.490 -50.836  0.00  0.00     0.031 A 
ATOM      9  C   UNL d   1     -41.293-122.574 -49.790  0.00  0.00     0.121 A 
ATOM     10  C   UNL d   1     -41.478-123.336 -50.039  0.00  0.00     0.119 A 
ATOM     11  O   UNL d   1     -41.196-122.584 -48.976  0.00  0.00    -0.299 OA
ATOM     12  O   UNL d   1     -41.495-123.818 -49.379  0.00  0.00    -0.300 OA
ATOM     13  O   UNL d   1     -41.867-123.803 -52.445  0.00  0.00    -0.286 OA
ATOM     14  C   UNL d   1     -41.322-123.360 -48.723  0.00  0.00     0.304 A 
ENDROOT
BRANCH   1  15
ATOM     15  C   UNL d   1     -41.752-122.569 -53.548  0.00  0.00     0.215 C 
ATOM     16  O   UNL d   1     -41.167-122.935 -53.996  0.00  0.00    -0.644 OA
ATOM     17  O   UNL d   1     -42.465-122.355 -53.897  0.00  0.00    -0.644 OA
ENDBRANCH   1  15
BRANCH   6  18
ATOM     18  C   UNL d   1     -41.123-120.735 -51.439  0.00  0.00     0.080 C 
ATOM     19  C   UNL d   1     -41.255-120.094 -51.948  0.00  0.00     0.021 C 
ENDBRANCH   6  18
TORSDOF 2
ENDMDL
