MODEL 1
REMARK VINA RESULT:      74.0      0.000      0.000
REMARK  4 active torsions:
REMARK  status: ('A' for Active; 'I' for Inactive)
REMARK    1  A    between atoms: N_8  and  C_2 
REMARK    2  A    between atoms: C_9  and  C_3 
REMARK       I    between atoms: C_6  and  N_7 
REMARK    3  A    between atoms: C_11  and  C_6 
REMARK    4  A    between atoms: N_7  and  N_8 
ROOT
ATOM      1  N   UNL d   1      61.090  46.916  50.170  0.00  0.00    -0.221 NA
ATOM      2  C   UNL d   1      61.346  47.688  50.159  0.00  0.00     0.186 A 
ATOM      3  C   UNL d   1      61.660  46.471  49.807  0.00  0.00     0.090 A 
ATOM      4  S   UNL d   1      62.067  47.719  49.793  0.00  0.00    -0.047 SA
ATOM      5  C   UNL d   1      62.262  46.962  49.574  0.00  0.00     0.058 A 
ENDROOT
BRANCH   2   6
ATOM      6  N   UNL d   1      60.933  48.350  50.475  0.00  0.00    -0.275 N 
ATOM      7  H   UNL d   1      60.223  48.582  50.129  0.00  0.00     0.189 HD
BRANCH   6   8
ATOM      8  N   UNL d   1      61.243  48.757  51.124  0.00  0.00    -0.264 N 
ATOM      9  C   UNL d   1      60.761  49.298  51.522  0.00  0.00     0.271 C 
ATOM     10  O   UNL d   1      61.072  49.705  52.171  0.00  0.00    -0.266 OA
ATOM     11  H   UNL d   1      62.015  48.614  51.353  0.00  0.00     0.190 HD
BRANCH   9  12
ATOM     12  C   UNL d   1      59.994  49.432  51.285  0.00  0.00     0.057 A 
ATOM     13  C   UNL d   1      59.852  49.485  50.470  0.00  0.00     0.005 A 
ATOM     14  C   UNL d   1      59.082  49.622  50.198  0.00  0.00     0.000 A 
ATOM     15  C   UNL d   1      58.456  49.706  50.722  0.00  0.00     0.000 A 
ATOM     16  C   UNL d   1      58.610  49.650  51.550  0.00  0.00     0.000 A 
ATOM     17  C   UNL d   1      59.374  49.515  51.822  0.00  0.00     0.005 A 
ENDBRANCH   9  12
ENDBRANCH   6   8
ENDBRANCH   2   6
BRANCH   3  18
ATOM     18  C   UNL d   1      61.628  45.655  49.696  0.00  0.00     0.018 A 
ATOM     19  C   UNL d   1      61.528  45.159  50.349  0.00  0.00     0.002 A 
ATOM     20  C   UNL d   1      61.496  44.344  50.245  0.00  0.00     0.000 A 
ATOM     21  C   UNL d   1      61.565  44.023  49.481  0.00  0.00     0.000 A 
ATOM     22  C   UNL d   1      61.664  44.519  48.828  0.00  0.00     0.000 A 
ATOM     23  C   UNL d   1      61.534  43.206  49.365  0.00  0.00     0.000 C 
ATOM     24  C   UNL d   1      61.696  45.340  48.937  0.00  0.00     0.002 A 
ENDBRANCH   3  18
TORSDOF 4
ENDMDL
