MODEL 1
REMARK VINA RESULT:      -7.2      0.000      0.000
REMARK  5 active torsions:
REMARK  status: ('A' for Active; 'I' for Inactive)
REMARK    1  A    between atoms: O_8  and  C_2 
REMARK    2  A    between atoms: C_9  and  C_5 
REMARK    3  A    between atoms: C_14  and  O_8 
REMARK    4  A    between atoms: N_11  and  C_9 
REMARK    5  A    between atoms: O_21  and  C_18 
ROOT
ATOM      1  C   UNL d   1     -48.457  13.052  22.683  0.00  0.00     0.108 A 
ATOM      2  C   UNL d   1     -46.934  12.850  23.324  0.00  0.00     0.161 A 
ATOM      3  C   UNL d   1     -48.240  12.320  23.022  0.00  0.00     0.064 A 
ATOM      4  C   UNL d   1     -47.488  12.224  23.338  0.00  0.00     0.222 A 
ATOM      5  C   UNL d   1     -49.218  13.153  22.362  0.00  0.00     0.079 A 
ATOM      6  O   UNL d   1     -47.918  13.684  22.661  0.00  0.00    -0.305 OA
ATOM      7  C   UNL d   1     -47.152  13.585  22.983  0.00  0.00     0.126 A 
ATOM      8  C   UNL d   1     -48.795  11.702  23.033  0.00  0.00     0.009 A 
ATOM      9  C   UNL d   1     -49.760  12.531  22.378  0.00  0.00     0.199 A 
ATOM     10  O   UNL d   1     -47.269  11.502  23.675  0.00  0.00    -0.284 OA
ATOM     11  C   UNL d   1     -49.549  11.805  22.714  0.00  0.00     0.042 A 
ATOM     12  O   UNL d   1     -50.514  12.636  22.059  0.00  0.00    -0.286 OA
ATOM     13  C   UNL d   1     -46.610  14.207  22.967  0.00  0.00     0.029 C 
ENDROOT
BRANCH   2  14
ATOM     14  O   UNL d   1     -46.181  12.750  23.642  0.00  0.00    -0.302 OA
BRANCH  14  15
ATOM     15  C   UNL d   1     -45.564  12.478  23.165  0.00  0.00     0.102 A 
ATOM     16  C   UNL d   1     -45.223  11.742  23.315  0.00  0.00     0.049 A 
ATOM     17  C   UNL d   1     -44.606  11.471  22.839  0.00  0.00     0.096 A 
ATOM     18  C   UNL d   1     -44.331  11.935  22.214  0.00  0.00     0.024 A 
ATOM     19  C   UNL d   1     -44.680  12.681  22.067  0.00  0.00     0.004 A 
ATOM     20  C   UNL d   1     -45.293  12.943  22.544  0.00  0.00     0.025 A 
BRANCH  17  21
ATOM     21  O   UNL d   1     -44.265  10.734  22.989  0.00  0.00    -0.328 OA
ATOM     22  C   UNL d   1     -43.540  10.690  23.380  0.00  0.00     0.181 C 
ENDBRANCH  17  21
ENDBRANCH  14  15
ENDBRANCH   2  14
BRANCH   5  23
ATOM     23  C   UNL d   1     -49.427  13.871  22.030  0.00  0.00     0.086 C 
BRANCH  23  24
ATOM     24  N   UNL d   1     -49.948  14.376  22.431  0.00  0.00    -0.299 N 
ATOM     25  C   UNL d   1     -50.545  14.764  22.012  0.00  0.00     0.107 A 
ATOM     26  C   UNL d   1     -51.064  15.267  22.410  0.00  0.00     0.142 A 
ATOM     27  O   UNL d   1     -50.987  15.381  23.226  0.00  0.00    -0.300 OA
ATOM     28  C   UNL d   1     -50.388  14.991  23.642  0.00  0.00     0.142 A 
ATOM     29  C   UNL d   1     -49.864  14.485  23.243  0.00  0.00     0.107 A 
ENDBRANCH  23  24
ENDBRANCH   5  23
TORSDOF 5
ENDMDL
MODEL 2
REMARK VINA RESULT:      -6.0      1.349      2.293
REMARK  5 active torsions:
REMARK  status: ('A' for Active; 'I' for Inactive)
REMARK    1  A    between atoms: O_8  and  C_2 
REMARK    2  A    between atoms: C_9  and  C_5 
REMARK    3  A    between atoms: C_14  and  O_8 
REMARK    4  A    between atoms: N_11  and  C_9 
REMARK    5  A    between atoms: O_21  and  C_18 
ROOT
ATOM      1  C   UNL d   1     -48.516  14.281  23.026  0.00  0.00     0.108 A 
ATOM      2  C   UNL d   1     -46.926  13.807  23.159  0.00  0.00     0.161 A 
ATOM      3  C   UNL d   1     -47.905  14.797  22.789  0.00  0.00     0.064 A 
ATOM      4  C   UNL d   1     -47.122  14.561  22.855  0.00  0.00     0.222 A 
ATOM      5  C   UNL d   1     -49.312  14.516  22.961  0.00  0.00     0.079 A 
ATOM      6  O   UNL d   1     -48.339  13.527  23.330  0.00  0.00    -0.305 OA
ATOM      7  C   UNL d   1     -47.541  13.287  23.398  0.00  0.00     0.126 A 
ATOM      8  C   UNL d   1     -48.106  15.546  22.488  0.00  0.00     0.009 A 
ATOM      9  C   UNL d   1     -49.498  15.262  22.660  0.00  0.00     0.199 A 
ATOM     10  O   UNL d   1     -46.514  15.069  22.622  0.00  0.00    -0.284 OA
ATOM     11  C   UNL d   1     -48.896  15.777  22.424  0.00  0.00     0.042 A 
ATOM     12  O   UNL d   1     -50.288  15.493  22.596  0.00  0.00    -0.286 OA
ATOM     13  C   UNL d   1     -47.353  12.542  23.698  0.00  0.00     0.029 C 
ENDROOT
BRANCH   2  14
ATOM     14  O   UNL d   1     -46.139  13.574  23.224  0.00  0.00    -0.302 OA
BRANCH  14  15
ATOM     15  C   UNL d   1     -45.740  13.276  22.566  0.00  0.00     0.102 A 
ATOM     16  C   UNL d   1     -44.939  13.442  22.463  0.00  0.00     0.049 A 
ATOM     17  C   UNL d   1     -44.540  13.144  21.805  0.00  0.00     0.096 A 
ATOM     18  C   UNL d   1     -44.941  12.680  21.252  0.00  0.00     0.024 A 
ATOM     19  C   UNL d   1     -45.754  12.515  21.362  0.00  0.00     0.004 A 
ATOM     20  C   UNL d   1     -46.143  12.814  22.018  0.00  0.00     0.025 A 
BRANCH  17  21
ATOM     21  O   UNL d   1     -43.738  13.311  21.701  0.00  0.00    -0.328 OA
ATOM     22  C   UNL d   1     -43.230  12.723  21.423  0.00  0.00     0.181 C 
ENDBRANCH  17  21
ENDBRANCH  14  15
ENDBRANCH   2  14
BRANCH   5  23
ATOM     23  C   UNL d   1     -49.908  14.007  23.194  0.00  0.00     0.086 C 
BRANCH  23  24
ATOM     24  N   UNL d   1     -50.295  13.538  22.632  0.00  0.00    -0.299 N 
ATOM     25  C   UNL d   1     -50.342  12.720  22.744  0.00  0.00     0.107 A 
ATOM     26  C   UNL d   1     -50.727  12.252  22.185  0.00  0.00     0.142 A 
ATOM     27  O   UNL d   1     -51.064  12.600  21.513  0.00  0.00    -0.300 OA
ATOM     28  C   UNL d   1     -51.015  13.419  21.404  0.00  0.00     0.142 A 
ATOM     29  C   UNL d   1     -50.628  13.892  21.967  0.00  0.00     0.107 A 
ENDBRANCH  23  24
ENDBRANCH   5  23
TORSDOF 5
ENDMDL
MODEL 3
REMARK VINA RESULT:      -6.0      8.618     10.230
REMARK  5 active torsions:
REMARK  status: ('A' for Active; 'I' for Inactive)
REMARK    1  A    between atoms: O_8  and  C_2 
REMARK    2  A    between atoms: C_9  and  C_5 
REMARK    3  A    between atoms: C_14  and  O_8 
REMARK    4  A    between atoms: N_11  and  C_9 
REMARK    5  A    between atoms: O_21  and  C_18 
ROOT
ATOM      1  C   UNL d   1     -39.436  15.633  18.287  0.00  0.00     0.108 A 
ATOM      2  C   UNL d   1     -39.450  15.826  19.941  0.00  0.00     0.161 A 
ATOM      3  C   UNL d   1     -40.162  15.662  18.699  0.00  0.00     0.064 A 
ATOM      4  C   UNL d   1     -40.166  15.757  19.514  0.00  0.00     0.222 A 
ATOM      5  C   UNL d   1     -39.428  15.537  17.461  0.00  0.00     0.079 A 
ATOM      6  O   UNL d   1     -38.715  15.701  18.696  0.00  0.00    -0.305 OA
ATOM      7  C   UNL d   1     -38.720  15.798  19.527  0.00  0.00     0.126 A 
ATOM      8  C   UNL d   1     -40.870  15.592  18.269  0.00  0.00     0.009 A 
ATOM      9  C   UNL d   1     -40.138  15.469  17.046  0.00  0.00     0.199 A 
ATOM     10  O   UNL d   1     -40.881  15.786  19.926  0.00  0.00    -0.284 OA
ATOM     11  C   UNL d   1     -40.859  15.497  17.450  0.00  0.00     0.042 A 
ATOM     12  O   UNL d   1     -40.127  15.373  16.226  0.00  0.00    -0.286 OA
ATOM     13  C   UNL d   1     -38.010  15.866  19.942  0.00  0.00     0.029 C 
ENDROOT
BRANCH   2  14
ATOM     14  O   UNL d   1     -39.457  15.922  20.758  0.00  0.00    -0.302 OA
BRANCH  14  15
ATOM     15  C   UNL d   1     -39.393  15.264  21.252  0.00  0.00     0.102 A 
ATOM     16  C   UNL d   1     -38.932  15.308  21.935  0.00  0.00     0.049 A 
ATOM     17  C   UNL d   1     -38.867  14.650  22.429  0.00  0.00     0.096 A 
ATOM     18  C   UNL d   1     -39.263  13.950  22.241  0.00  0.00     0.024 A 
ATOM     19  C   UNL d   1     -39.729  13.911  21.547  0.00  0.00     0.004 A 
ATOM     20  C   UNL d   1     -39.788  14.569  21.061  0.00  0.00     0.025 A 
BRANCH  17  21
ATOM     21  O   UNL d   1     -38.406  14.693  23.112  0.00  0.00    -0.328 OA
ATOM     22  C   UNL d   1     -38.389  14.057  23.637  0.00  0.00     0.181 C 
ENDBRANCH  17  21
ENDBRANCH  14  15
ENDBRANCH   2  14
BRANCH   5  23
ATOM     23  C   UNL d   1     -38.715  15.509  17.061  0.00  0.00     0.086 C 
BRANCH  23  24
ATOM     24  N   UNL d   1     -38.466  14.802  16.709  0.00  0.00    -0.299 N 
ATOM     25  C   UNL d   1     -38.337  14.134  17.180  0.00  0.00     0.107 A 
ATOM     26  C   UNL d   1     -38.089  13.429  16.831  0.00  0.00     0.142 A 
ATOM     27  O   UNL d   1     -37.969  13.391  16.013  0.00  0.00    -0.300 OA
ATOM     28  C   UNL d   1     -38.099  14.061  15.545  0.00  0.00     0.142 A 
ATOM     29  C   UNL d   1     -38.349  14.771  15.895  0.00  0.00     0.107 A 
ENDBRANCH  23  24
ENDBRANCH   5  23
TORSDOF 5
ENDMDL
MODEL 4
REMARK VINA RESULT:      -5.9      1.369      5.105
REMARK  5 active torsions:
REMARK  status: ('A' for Active; 'I' for Inactive)
REMARK    1  A    between atoms: O_8  and  C_2 
REMARK    2  A    between atoms: C_9  and  C_5 
REMARK    3  A    between atoms: C_14  and  O_8 
REMARK    4  A    between atoms: N_11  and  C_9 
REMARK    5  A    between atoms: O_21  and  C_18 
ROOT
ATOM      1  C   UNL d   1     -47.045  12.948  22.768  0.00  0.00     0.108 A 
ATOM      2  C   UNL d   1     -48.574  13.159  23.390  0.00  0.00     0.161 A 
ATOM      3  C   UNL d   1     -47.299  13.708  23.003  0.00  0.00     0.064 A 
ATOM      4  C   UNL d   1     -48.054  13.809  23.310  0.00  0.00     0.222 A 
ATOM      5  C   UNL d   1     -46.280  12.843  22.456  0.00  0.00     0.079 A 
ATOM      6  O   UNL d   1     -47.549  12.292  22.840  0.00  0.00    -0.305 OA
ATOM      7  C   UNL d   1     -48.318  12.395  23.153  0.00  0.00     0.126 A 
ATOM      8  C   UNL d   1     -46.777  14.350  22.922  0.00  0.00     0.009 A 
ATOM      9  C   UNL d   1     -45.772  13.488  22.380  0.00  0.00     0.199 A 
ATOM     10  O   UNL d   1     -48.310  14.558  23.545  0.00  0.00    -0.284 OA
ATOM     11  C   UNL d   1     -46.020  14.242  22.613  0.00  0.00     0.042 A 
ATOM     12  O   UNL d   1     -45.014  13.379  22.071  0.00  0.00    -0.286 OA
ATOM     13  C   UNL d   1     -48.827  11.750  23.229  0.00  0.00     0.029 C 
ENDROOT
BRANCH   2  14
ATOM     14  O   UNL d   1     -49.330  13.263  23.698  0.00  0.00    -0.302 OA
BRANCH  14  15
ATOM     15  C   UNL d   1     -49.909  13.649  23.253  0.00  0.00     0.102 A 
ATOM     16  C   UNL d   1     -50.192  13.302  22.559  0.00  0.00     0.049 A 
ATOM     17  C   UNL d   1     -50.770  13.687  22.114  0.00  0.00     0.096 A 
ATOM     18  C   UNL d   1     -51.064  14.418  22.362  0.00  0.00     0.024 A 
ATOM     19  C   UNL d   1     -50.773  14.765  23.065  0.00  0.00     0.004 A 
ATOM     20  C   UNL d   1     -50.199  14.376  23.502  0.00  0.00     0.025 A 
BRANCH  17  21
ATOM     21  O   UNL d   1     -51.053  13.340  21.421  0.00  0.00    -0.328 OA
ATOM     22  C   UNL d   1     -50.815  13.635  20.688  0.00  0.00     0.181 C 
ENDBRANCH  17  21
ENDBRANCH  14  15
ENDBRANCH   2  14
BRANCH   5  23
ATOM     23  C   UNL d   1     -46.034  12.097  22.226  0.00  0.00     0.086 C 
BRANCH  23  24
ATOM     24  N   UNL d   1     -45.492  11.679  22.692  0.00  0.00    -0.299 N 
ATOM     25  C   UNL d   1     -45.766  11.115  23.231  0.00  0.00     0.107 A 
ATOM     26  C   UNL d   1     -45.227  10.697  23.696  0.00  0.00     0.142 A 
ATOM     27  O   UNL d   1     -44.415  10.843  23.623  0.00  0.00    -0.300 OA
ATOM     28  C   UNL d   1     -44.145  11.408  23.083  0.00  0.00     0.142 A 
ATOM     29  C   UNL d   1     -44.686  11.829  22.614  0.00  0.00     0.107 A 
ENDBRANCH  23  24
ENDBRANCH   5  23
TORSDOF 5
ENDMDL
MODEL 5
REMARK VINA RESULT:      -5.5      8.194     10.061
REMARK  5 active torsions:
REMARK  status: ('A' for Active; 'I' for Inactive)
REMARK    1  A    between atoms: O_8  and  C_2 
REMARK    2  A    between atoms: C_9  and  C_5 
REMARK    3  A    between atoms: C_14  and  O_8 
REMARK    4  A    between atoms: N_11  and  C_9 
REMARK    5  A    between atoms: O_21  and  C_18 
ROOT
ATOM      1  C   UNL d   1     -39.484  14.723  19.907  0.00  0.00     0.108 A 
ATOM      2  C   UNL d   1     -39.335  13.923  18.455  0.00  0.00     0.161 A 
ATOM      3  C   UNL d   1     -40.142  14.655  19.398  0.00  0.00     0.064 A 
ATOM      4  C   UNL d   1     -40.066  14.260  18.683  0.00  0.00     0.222 A 
ATOM      5  C   UNL d   1     -39.558  15.122  20.634  0.00  0.00     0.079 A 
ATOM      6  O   UNL d   1     -38.750  14.393  19.696  0.00  0.00    -0.305 OA
ATOM      7  C   UNL d   1     -38.673  13.991  18.967  0.00  0.00     0.126 A 
ATOM      8  C   UNL d   1     -40.866  14.991  19.630  0.00  0.00     0.009 A 
ATOM      9  C   UNL d   1     -40.282  15.452  20.852  0.00  0.00     0.199 A 
ATOM     10  O   UNL d   1     -40.714  14.190  18.175  0.00  0.00    -0.284 OA
ATOM     11  C   UNL d   1     -40.936  15.387  20.350  0.00  0.00     0.042 A 
ATOM     12  O   UNL d   1     -40.351  15.848  21.573  0.00  0.00    -0.286 OA
ATOM     13  C   UNL d   1     -37.950  13.661  18.748  0.00  0.00     0.029 C 
ENDROOT
BRANCH   2  14
ATOM     14  O   UNL d   1     -39.262  13.528  17.737  0.00  0.00    -0.302 OA
BRANCH  14  15
ATOM     15  C   UNL d   1     -38.970  13.924  17.074  0.00  0.00     0.102 A 
ATOM     16  C   UNL d   1     -38.601  13.498  16.471  0.00  0.00     0.049 A 
ATOM     17  C   UNL d   1     -38.309  13.894  15.809  0.00  0.00     0.096 A 
ATOM     18  C   UNL d   1     -38.385  14.714  15.750  0.00  0.00     0.024 A 
ATOM     19  C   UNL d   1     -38.760  15.141  16.364  0.00  0.00     0.004 A 
ATOM     20  C   UNL d   1     -39.048  14.740  17.019  0.00  0.00     0.025 A 
BRANCH  17  21
ATOM     21  O   UNL d   1     -37.940  13.468  15.206  0.00  0.00    -0.328 OA
ATOM     22  C   UNL d   1     -38.259  13.474  14.445  0.00  0.00     0.181 C 
ENDBRANCH  17  21
ENDBRANCH  14  15
ENDBRANCH   2  14
BRANCH   5  23
ATOM     23  C   UNL d   1     -38.911  15.187  21.130  0.00  0.00     0.086 C 
BRANCH  23  24
ATOM     24  N   UNL d   1     -38.866  14.721  21.814  0.00  0.00    -0.299 N 
ATOM     25  C   UNL d   1     -38.492  15.020  22.488  0.00  0.00     0.107 A 
ATOM     26  C   UNL d   1     -38.447  14.557  23.170  0.00  0.00     0.142 A 
ATOM     27  O   UNL d   1     -38.775  13.797  23.177  0.00  0.00    -0.300 OA
ATOM     28  C   UNL d   1     -39.149  13.502  22.501  0.00  0.00     0.142 A 
ATOM     29  C   UNL d   1     -39.195  13.966  21.814  0.00  0.00     0.107 A 
ENDBRANCH  23  24
ENDBRANCH   5  23
TORSDOF 5
ENDMDL
MODEL 6
REMARK VINA RESULT:      -5.4      1.436      4.905
REMARK  5 active torsions:
REMARK  status: ('A' for Active; 'I' for Inactive)
REMARK    1  A    between atoms: O_8  and  C_2 
REMARK    2  A    between atoms: C_9  and  C_5 
REMARK    3  A    between atoms: C_14  and  O_8 
REMARK    4  A    between atoms: N_11  and  C_9 
REMARK    5  A    between atoms: O_21  and  C_18 
ROOT
ATOM      1  C   UNL d   1     -46.717  12.281  23.417  0.00  0.00     0.108 A 
ATOM      2  C   UNL d   1     -48.320  12.729  23.410  0.00  0.00     0.161 A 
ATOM      3  C   UNL d   1     -47.311  11.710  23.550  0.00  0.00     0.064 A 
ATOM      4  C   UNL d   1     -48.101  11.934  23.546  0.00  0.00     0.222 A 
ATOM      5  C   UNL d   1     -45.915  12.057  23.420  0.00  0.00     0.079 A 
ATOM      6  O   UNL d   1     -46.917  13.076  23.279  0.00  0.00    -0.305 OA
ATOM      7  C   UNL d   1     -47.722  13.303  23.275  0.00  0.00     0.126 A 
ATOM      8  C   UNL d   1     -47.087  10.921  23.686  0.00  0.00     0.009 A 
ATOM      9  C   UNL d   1     -45.706  11.270  23.556  0.00  0.00     0.199 A 
ATOM     10  O   UNL d   1     -48.692  11.373  23.678  0.00  0.00    -0.284 OA
ATOM     11  C   UNL d   1     -46.292  10.702  23.688  0.00  0.00     0.042 A 
ATOM     12  O   UNL d   1     -44.910  11.053  23.558  0.00  0.00    -0.286 OA
ATOM     13  C   UNL d   1     -47.932  14.090  23.140  0.00  0.00     0.029 C 
ENDROOT
BRANCH   2  14
ATOM     14  O   UNL d   1     -49.112  12.950  23.406  0.00  0.00    -0.302 OA
BRANCH  14  15
ATOM     15  C   UNL d   1     -49.529  12.985  22.695  0.00  0.00     0.102 A 
ATOM     16  C   UNL d   1     -49.904  13.686  22.472  0.00  0.00     0.049 A 
ATOM     17  C   UNL d   1     -50.320  13.720  21.760  0.00  0.00     0.096 A 
ATOM     18  C   UNL d   1     -50.363  13.054  21.273  0.00  0.00     0.024 A 
ATOM     19  C   UNL d   1     -49.982  12.347  21.504  0.00  0.00     0.004 A 
ATOM     20  C   UNL d   1     -49.570  12.320  22.212  0.00  0.00     0.025 A 
BRANCH  17  21
ATOM     21  O   UNL d   1     -50.695  14.421  21.538  0.00  0.00    -0.328 OA
ATOM     22  C   UNL d   1     -51.064  14.888  22.109  0.00  0.00     0.181 C 
ENDBRANCH  17  21
ENDBRANCH  14  15
ENDBRANCH   2  14
BRANCH   5  23
ATOM     23  C   UNL d   1     -45.335  12.619  23.289  0.00  0.00     0.086 C 
BRANCH  23  24
ATOM     24  N   UNL d   1     -44.890  12.598  22.590  0.00  0.00    -0.299 N 
ATOM     25  C   UNL d   1     -44.152  12.226  22.587  0.00  0.00     0.107 A 
ATOM     26  C   UNL d   1     -43.708  12.204  21.892  0.00  0.00     0.142 A 
ATOM     27  O   UNL d   1     -44.001  12.555  21.201  0.00  0.00    -0.300 OA
ATOM     28  C   UNL d   1     -44.740  12.926  21.209  0.00  0.00     0.142 A 
ATOM     29  C   UNL d   1     -45.188  12.949  21.907  0.00  0.00     0.107 A 
ENDBRANCH  23  24
ENDBRANCH   5  23
TORSDOF 5
ENDMDL
MODEL 7
REMARK VINA RESULT:      -5.3      8.188      9.958
REMARK  5 active torsions:
REMARK  status: ('A' for Active; 'I' for Inactive)
REMARK    1  A    between atoms: O_8  and  C_2 
REMARK    2  A    between atoms: C_9  and  C_5 
REMARK    3  A    between atoms: C_14  and  O_8 
REMARK    4  A    between atoms: N_11  and  C_9 
REMARK    5  A    between atoms: O_21  and  C_18 
ROOT
ATOM      1  C   UNL d   1     -39.321  15.066  20.732  0.00  0.00     0.108 A 
ATOM      2  C   UNL d   1     -39.908  14.989  19.176  0.00  0.00     0.161 A 
ATOM      3  C   UNL d   1     -38.920  15.459  20.113  0.00  0.00     0.064 A 
ATOM      4  C   UNL d   1     -39.212  15.419  19.347  0.00  0.00     0.222 A 
ATOM      5  C   UNL d   1     -39.028  15.104  21.510  0.00  0.00     0.079 A 
ATOM      6  O   UNL d   1     -40.015  14.635  20.578  0.00  0.00    -0.305 OA
ATOM      7  C   UNL d   1     -40.312  14.595  19.798  0.00  0.00     0.126 A 
ATOM      8  C   UNL d   1     -38.228  15.884  20.290  0.00  0.00     0.009 A 
ATOM      9  C   UNL d   1     -38.340  15.530  21.672  0.00  0.00     0.199 A 
ATOM     10  O   UNL d   1     -38.819  15.806  18.732  0.00  0.00    -0.284 OA
ATOM     11  C   UNL d   1     -37.940  15.920  21.062  0.00  0.00     0.042 A 
ATOM     12  O   UNL d   1     -38.052  15.566  22.445  0.00  0.00    -0.286 OA
ATOM     13  C   UNL d   1     -40.999  14.169  19.635  0.00  0.00     0.029 C 
ENDROOT
BRANCH   2  14
ATOM     14  O   UNL d   1     -40.199  14.952  18.407  0.00  0.00    -0.302 OA
BRANCH  14  15
ATOM     15  C   UNL d   1     -39.798  14.512  17.835  0.00  0.00     0.102 A 
ATOM     16  C   UNL d   1     -39.608  13.723  17.983  0.00  0.00     0.049 A 
ATOM     17  C   UNL d   1     -39.207  13.283  17.411  0.00  0.00     0.096 A 
ATOM     18  C   UNL d   1     -38.997  13.632  16.692  0.00  0.00     0.024 A 
ATOM     19  C   UNL d   1     -39.193  14.432  16.547  0.00  0.00     0.004 A 
ATOM     20  C   UNL d   1     -39.591  14.863  17.121  0.00  0.00     0.025 A 
BRANCH  17  21
ATOM     21  O   UNL d   1     -39.017  12.494  17.559  0.00  0.00    -0.328 OA
ATOM     22  C   UNL d   1     -38.227  12.253  17.547  0.00  0.00     0.181 C 
ENDBRANCH  17  21
ENDBRANCH  14  15
ENDBRANCH   2  14
BRANCH   5  23
ATOM     23  C   UNL d   1     -39.423  14.718  22.113  0.00  0.00     0.086 C 
BRANCH  23  24
ATOM     24  N   UNL d   1     -39.057  14.093  22.513  0.00  0.00    -0.299 N 
ATOM     25  C   UNL d   1     -38.997  13.353  22.149  0.00  0.00     0.107 A 
ATOM     26  C   UNL d   1     -38.633  12.729  22.546  0.00  0.00     0.142 A 
ATOM     27  O   UNL d   1     -38.327  12.843  23.307  0.00  0.00    -0.300 OA
ATOM     28  C   UNL d   1     -38.388  13.585  23.668  0.00  0.00     0.142 A 
ATOM     29  C   UNL d   1     -38.755  14.214  23.270  0.00  0.00     0.107 A 
ENDBRANCH  23  24
ENDBRANCH   5  23
TORSDOF 5
ENDMDL
MODEL 8
REMARK VINA RESULT:      -5.3      8.676      9.993
REMARK  5 active torsions:
REMARK  status: ('A' for Active; 'I' for Inactive)
REMARK    1  A    between atoms: O_8  and  C_2 
REMARK    2  A    between atoms: C_9  and  C_5 
REMARK    3  A    between atoms: C_14  and  O_8 
REMARK    4  A    between atoms: N_11  and  C_9 
REMARK    5  A    between atoms: O_21  and  C_18 
ROOT
ATOM      1  C   UNL d   1     -38.766  14.615  17.816  0.00  0.00     0.108 A 
ATOM      2  C   UNL d   1     -38.214  14.451  19.378  0.00  0.00     0.161 A 
ATOM      3  C   UNL d   1     -38.491  13.875  18.087  0.00  0.00     0.064 A 
ATOM      4  C   UNL d   1     -38.219  13.797  18.858  0.00  0.00     0.222 A 
ATOM      5  C   UNL d   1     -39.043  14.698  17.036  0.00  0.00     0.079 A 
ATOM      6  O   UNL d   1     -38.768  15.275  18.322  0.00  0.00    -0.305 OA
ATOM      7  C   UNL d   1     -38.491  15.196  19.106  0.00  0.00     0.126 A 
ATOM      8  C   UNL d   1     -38.498  13.228  17.564  0.00  0.00     0.009 A 
ATOM      9  C   UNL d   1     -39.045  14.048  16.527  0.00  0.00     0.199 A 
ATOM     10  O   UNL d   1     -37.945  13.066  19.130  0.00  0.00    -0.284 OA
ATOM     11  C   UNL d   1     -38.772  13.313  16.791  0.00  0.00     0.042 A 
ATOM     12  O   UNL d   1     -39.320  14.134  15.753  0.00  0.00    -0.286 OA
ATOM     13  C   UNL d   1     -38.489  15.844  19.616  0.00  0.00     0.029 C 
ENDROOT
BRANCH   2  14
ATOM     14  O   UNL d   1     -37.941  14.369  20.150  0.00  0.00    -0.302 OA
BRANCH  14  15
ATOM     15  C   UNL d   1     -38.454  14.120  20.747  0.00  0.00     0.102 A 
ATOM     16  C   UNL d   1     -38.182  13.610  21.336  0.00  0.00     0.049 A 
ATOM     17  C   UNL d   1     -38.695  13.361  21.932  0.00  0.00     0.096 A 
ATOM     18  C   UNL d   1     -39.479  13.622  21.940  0.00  0.00     0.024 A 
ATOM     19  C   UNL d   1     -39.749  14.139  21.340  0.00  0.00     0.004 A 
ATOM     20  C   UNL d   1     -39.233  14.382  20.751  0.00  0.00     0.025 A 
BRANCH  17  21
ATOM     21  O   UNL d   1     -38.423  12.851  22.521  0.00  0.00    -0.328 OA
ATOM     22  C   UNL d   1     -38.358  13.120  23.299  0.00  0.00     0.181 C 
ENDBRANCH  17  21
ENDBRANCH  14  15
ENDBRANCH   2  14
BRANCH   5  23
ATOM     23  C   UNL d   1     -39.312  15.424  16.774  0.00  0.00     0.086 C 
BRANCH  23  24
ATOM     24  N   UNL d   1     -40.126  15.562  16.703  0.00  0.00    -0.299 N 
ATOM     25  C   UNL d   1     -40.441  15.784  15.971  0.00  0.00     0.107 A 
ATOM     26  C   UNL d   1     -41.251  15.921  15.899  0.00  0.00     0.142 A 
ATOM     27  O   UNL d   1     -41.746  15.837  16.557  0.00  0.00    -0.300 OA
ATOM     28  C   UNL d   1     -41.428  15.615  17.288  0.00  0.00     0.142 A 
ATOM     29  C   UNL d   1     -40.613  15.477  17.362  0.00  0.00     0.107 A 
ENDBRANCH  23  24
ENDBRANCH   5  23
TORSDOF 5
ENDMDL
MODEL 9
REMARK VINA RESULT:      -4.8      7.530     10.044
REMARK  5 active torsions:
REMARK  status: ('A' for Active; 'I' for Inactive)
REMARK    1  A    between atoms: O_8  and  C_2 
REMARK    2  A    between atoms: C_9  and  C_5 
REMARK    3  A    between atoms: C_14  and  O_8 
REMARK    4  A    between atoms: N_11  and  C_9 
REMARK    5  A    between atoms: O_21  and  C_18 
ROOT
ATOM      1  C   UNL d   1     -39.593  15.879  19.484  0.00  0.00     0.108 A 
ATOM      2  C   UNL d   1     -39.416  15.843  17.829  0.00  0.00     0.161 A 
ATOM      3  C   UNL d   1     -38.830  15.868  19.145  0.00  0.00     0.064 A 
ATOM      4  C   UNL d   1     -38.746  15.850  18.329  0.00  0.00     0.222 A 
ATOM      5  C   UNL d   1     -39.682  15.897  20.311  0.00  0.00     0.079 A 
ATOM      6  O   UNL d   1     -40.270  15.872  19.001  0.00  0.00    -0.305 OA
ATOM      7  C   UNL d   1     -40.183  15.854  18.170  0.00  0.00     0.126 A 
ATOM      8  C   UNL d   1     -38.167  15.875  19.647  0.00  0.00     0.009 A 
ATOM      9  C   UNL d   1     -39.016  15.904  20.799  0.00  0.00     0.199 A 
ATOM     10  O   UNL d   1     -37.993  15.839  17.989  0.00  0.00    -0.284 OA
ATOM     11  C   UNL d   1     -38.258  15.893  20.467  0.00  0.00     0.042 A 
ATOM     12  O   UNL d   1     -39.108  15.922  21.619  0.00  0.00    -0.286 OA
ATOM     13  C   UNL d   1     -40.849  15.847  17.682  0.00  0.00     0.029 C 
ENDROOT
BRANCH   2  14
ATOM     14  O   UNL d   1     -39.328  15.825  17.011  0.00  0.00    -0.302 OA
BRANCH  14  15
ATOM     15  C   UNL d   1     -39.102  15.126  16.634  0.00  0.00     0.102 A 
ATOM     16  C   UNL d   1     -38.635  15.159  15.955  0.00  0.00     0.049 A 
ATOM     17  C   UNL d   1     -38.409  14.461  15.578  0.00  0.00     0.096 A 
ATOM     18  C   UNL d   1     -38.650  13.731  15.880  0.00  0.00     0.024 A 
ATOM     19  C   UNL d   1     -39.124  13.704  16.569  0.00  0.00     0.004 A 
ATOM     20  C   UNL d   1     -39.344  14.402  16.938  0.00  0.00     0.025 A 
BRANCH  17  21
ATOM     21  O   UNL d   1     -37.942  14.494  14.899  0.00  0.00    -0.328 OA
ATOM     22  C   UNL d   1     -38.007  13.902  14.327  0.00  0.00     0.181 C 
ENDBRANCH  17  21
ENDBRANCH  14  15
ENDBRANCH   2  14
BRANCH   5  23
ATOM     23  C   UNL d   1     -40.431  15.908  20.640  0.00  0.00     0.086 C 
BRANCH  23  24
ATOM     24  N   UNL d   1     -40.780  15.202  20.896  0.00  0.00    -0.299 N 
ATOM     25  C   UNL d   1     -41.590  15.082  20.784  0.00  0.00     0.107 A 
ATOM     26  C   UNL d   1     -41.939  14.379  21.038  0.00  0.00     0.142 A 
ATOM     27  O   UNL d   1     -41.479  13.797  21.406  0.00  0.00    -0.300 OA
ATOM     28  C   UNL d   1     -40.669  13.921  21.517  0.00  0.00     0.142 A 
ATOM     29  C   UNL d   1     -40.316  14.627  21.261  0.00  0.00     0.107 A 
ENDBRANCH  23  24
ENDBRANCH   5  23
TORSDOF 5
ENDMDL
