MODEL 1
REMARK VINA RESULT:      25.6      0.000      0.000
REMARK  6 active torsions:
REMARK  status: ('A' for Active; 'I' for Inactive)
REMARK    1  A    between atoms: C_2  and  S_1 
REMARK    2  A    between atoms: C_13  and  S_1 
REMARK    3  A    between atoms: C_5  and  C_3 
REMARK    4  A    between atoms: C_16  and  C_5 
REMARK    5  A    between atoms: O_30  and  C_24 
REMARK    6  A    between atoms: C_33  and  O_30 
ROOT
ATOM      1  C   UNL d   1     -42.003-122.046 -52.232  0.00  0.00     0.094 A 
ATOM      2  C   UNL d   1     -42.265-122.450 -52.900  0.00  0.00     0.069 A 
ATOM      3  C   UNL d   1     -41.905-122.449 -51.521  0.00  0.00     0.031 A 
ATOM      4  C   UNL d   1     -42.070-123.257 -51.478  0.00  0.00     0.084 A 
ATOM      5  C   UNL d   1     -41.643-122.046 -50.853  0.00  0.00     0.029 A 
ATOM      6  N   UNL d   1     -42.331-123.661 -52.145  0.00  0.00    -0.244 NA
ATOM      7  C   UNL d   1     -42.429-123.258 -52.857  0.00  0.00     0.103 A 
ATOM      8  C   UNL d   1     -41.972-123.660 -50.766  0.00  0.00     0.046 A 
ATOM      9  C   UNL d   1     -41.545-122.448 -50.142  0.00  0.00     0.123 A 
ATOM     10  C   UNL d   1     -41.710-123.257 -50.099  0.00  0.00     0.124 A 
ATOM     11  O   UNL d   1     -41.283-122.045 -49.474  0.00  0.00    -0.301 OA
ATOM     12  O   UNL d   1     -41.612-123.659 -49.387  0.00  0.00    -0.301 OA
ATOM     13  C   UNL d   1     -41.182-122.448 -48.751  0.00  0.00     0.149 A 
ATOM     14  C   UNL d   1     -41.347-123.256 -48.708  0.00  0.00     0.149 A 
ENDROOT
BRANCH   1  15
ATOM     15  S   UNL d   1     -41.837-121.239 -52.271  0.00  0.00     0.210 S 
ATOM     16  O   UNL d   1     -42.551-121.108 -52.663  0.00  0.00    -0.217 OA
ATOM     17  O   UNL d   1     -41.123-121.370 -51.879  0.00  0.00    -0.217 OA
BRANCH  15  18
ATOM     18  C   UNL d   1     -41.665-120.433 -52.307  0.00  0.00     0.088 A 
ATOM     19  C   UNL d   1     -41.832-120.007 -52.989  0.00  0.00     0.013 A 
ATOM     20  C   UNL d   1     -41.657-119.196 -53.021  0.00  0.00     0.025 A 
ATOM     21  C   UNL d   1     -41.317-118.821 -52.371  0.00  0.00     0.100 A 
ATOM     22  C   UNL d   1     -41.150-119.244 -51.690  0.00  0.00     0.025 A 
ATOM     23  C   UNL d   1     -41.326-120.059 -51.658  0.00  0.00     0.013 A 
BRANCH  21  24
ATOM     24  O   UNL d   1     -41.142-118.008 -52.403  0.00  0.00    -0.305 OA
BRANCH  24  25
ATOM     25  C   UNL d   1     -41.359-117.564 -53.062  0.00  0.00     0.123 C 
ATOM     26  C   UNL d   1     -41.358-116.741 -53.020  0.00  0.00     0.029 C 
ENDBRANCH  24  25
ENDBRANCH  21  24
ENDBRANCH  15  18
ENDBRANCH   1  15
BRANCH   2  27
ATOM     27  C   UNL d   1     -42.366-122.047 -53.623  0.00  0.00     0.198 C 
ATOM     28  O   UNL d   1     -42.722-121.303 -53.629  0.00  0.00    -0.286 OA
BRANCH  27  29
ATOM     29  C   UNL d   1     -42.110-122.393 -54.328  0.00  0.00     0.039 A 
ATOM     30  C   UNL d   1     -42.579-122.352 -55.011  0.00  0.00     0.003 A 
ATOM     31  C   UNL d   1     -42.324-122.697 -55.717  0.00  0.00     0.000 A 
ATOM     32  C   UNL d   1     -41.598-123.088 -55.750  0.00  0.00     0.000 A 
ATOM     33  C   UNL d   1     -41.124-123.128 -55.054  0.00  0.00     0.000 A 
ATOM     34  C   UNL d   1     -41.338-123.435 -56.450  0.00  0.00     0.000 C 
ATOM     35  C   UNL d   1     -41.375-122.785 -54.350  0.00  0.00     0.003 A 
ENDBRANCH  27  29
ENDBRANCH   2  27
TORSDOF 6
ENDMDL
MODEL 2
REMARK VINA RESULT:      27.9      1.290      4.731
REMARK  6 active torsions:
REMARK  status: ('A' for Active; 'I' for Inactive)
REMARK    1  A    between atoms: C_2  and  S_1 
REMARK    2  A    between atoms: C_13  and  S_1 
REMARK    3  A    between atoms: C_5  and  C_3 
REMARK    4  A    between atoms: C_16  and  C_5 
REMARK    5  A    between atoms: O_30  and  C_24 
REMARK    6  A    between atoms: C_33  and  O_30 
ROOT
ATOM      1  C   UNL d   1     -41.720-121.115 -52.715  0.00  0.00     0.094 A 
ATOM      2  C   UNL d   1     -41.382-120.364 -52.720  0.00  0.00     0.069 A 
ATOM      3  C   UNL d   1     -41.853-121.510 -53.425  0.00  0.00     0.031 A 
ATOM      4  C   UNL d   1     -41.647-121.154 -54.141  0.00  0.00     0.084 A 
ATOM      5  C   UNL d   1     -42.191-122.260 -53.420  0.00  0.00     0.029 A 
ATOM      6  N   UNL d   1     -41.309-120.404 -54.146  0.00  0.00    -0.244 NA
ATOM      7  C   UNL d   1     -41.176-120.008 -53.436  0.00  0.00     0.103 A 
ATOM      8  C   UNL d   1     -41.779-121.549 -54.851  0.00  0.00     0.046 A 
ATOM      9  C   UNL d   1     -42.323-122.655 -54.129  0.00  0.00     0.123 A 
ATOM     10  C   UNL d   1     -42.117-122.299 -54.846  0.00  0.00     0.124 A 
ATOM     11  O   UNL d   1     -42.661-123.406 -54.125  0.00  0.00    -0.301 OA
ATOM     12  O   UNL d   1     -42.250-122.695 -55.556  0.00  0.00    -0.301 OA
ATOM     13  C   UNL d   1     -42.798-123.811 -54.841  0.00  0.00     0.149 A 
ATOM     14  C   UNL d   1     -42.592-123.455 -55.557  0.00  0.00     0.149 A 
ENDROOT
BRANCH   1  15
ATOM     15  S   UNL d   1     -41.927-121.473 -52.002  0.00  0.00     0.210 S 
ATOM     16  O   UNL d   1     -42.711-121.236 -52.105  0.00  0.00    -0.217 OA
ATOM     17  O   UNL d   1     -41.144-121.711 -51.899  0.00  0.00    -0.217 OA
BRANCH  15  18
ATOM     18  C   UNL d   1     -42.127-121.835 -51.287  0.00  0.00     0.088 A 
ATOM     19  C   UNL d   1     -42.841-121.656 -50.922  0.00  0.00     0.013 A 
ATOM     20  C   UNL d   1     -43.038-122.022 -50.203  0.00  0.00     0.025 A 
ATOM     21  C   UNL d   1     -42.519-122.561 -49.859  0.00  0.00     0.100 A 
ATOM     22  C   UNL d   1     -41.807-122.740 -50.221  0.00  0.00     0.025 A 
ATOM     23  C   UNL d   1     -41.609-122.373 -50.943  0.00  0.00     0.013 A 
BRANCH  21  24
ATOM     24  O   UNL d   1     -42.717-122.927 -49.137  0.00  0.00    -0.305 OA
BRANCH  24  25
ATOM     25  C   UNL d   1     -43.022-123.692 -49.133  0.00  0.00     0.123 C 
ATOM     26  C   UNL d   1     -43.814-123.816 -48.941  0.00  0.00     0.029 C 
ENDBRANCH  24  25
ENDBRANCH  21  24
ENDBRANCH  15  18
ENDBRANCH   1  15
BRANCH   2  27
ATOM     27  C   UNL d   1     -41.245-119.959 -52.004  0.00  0.00     0.198 C 
ATOM     28  O   UNL d   1     -41.140-120.387 -51.307  0.00  0.00    -0.286 OA
BRANCH  27  29
ATOM     29  C   UNL d   1     -41.216-119.134 -51.995  0.00  0.00     0.039 A 
ATOM     30  C   UNL d   1     -41.179-118.721 -51.276  0.00  0.00     0.003 A 
ATOM     31  C   UNL d   1     -41.150-117.896 -51.266  0.00  0.00     0.000 A 
ATOM     32  C   UNL d   1     -41.158-117.471 -51.973  0.00  0.00     0.000 A 
ATOM     33  C   UNL d   1     -41.195-117.893 -52.703  0.00  0.00     0.000 A 
ATOM     34  C   UNL d   1     -41.129-116.648 -51.970  0.00  0.00     0.000 C 
ATOM     35  C   UNL d   1     -41.224-118.715 -52.716  0.00  0.00     0.003 A 
ENDBRANCH  27  29
ENDBRANCH   2  27
TORSDOF 6
ENDMDL
