MODEL 1
REMARK VINA RESULT:      -1.7      0.000      0.000
REMARK  6 active torsions:
REMARK  status: ('A' for Active; 'I' for Inactive)
REMARK    1  A    between atoms: C_9  and  N_1 
REMARK    2  A    between atoms: S_10  and  C_6 
REMARK    3  A    between atoms: C_16  and  S_10 
REMARK    4  A    between atoms: C_12  and  C_16 
REMARK    5  A    between atoms: O_20  and  C_12 
REMARK    6  A    between atoms: C_22  and  O_20 
ROOT
ATOM      1  N   UNL d   1      32.680  18.729 -24.363  0.00  0.00    -0.212 N 
ATOM      2  C   UNL d   1      32.862  18.951 -23.593  0.00  0.00     0.169 A 
ATOM      3  N   UNL d   1      32.661  19.390 -24.830  0.00  0.00    -0.162 NA
ATOM      4  C   UNL d   1      32.958  19.770 -23.587  0.00  0.00     0.081 A 
ATOM      5  C   UNL d   1      32.834  20.045 -24.352  0.00  0.00     0.126 A 
ATOM      6  C   UNL d   1      33.145  20.157 -22.886  0.00  0.00     0.117 A 
ATOM      7  N   UNL d   1      32.954  18.519 -22.900  0.00  0.00    -0.205 NA
ATOM      8  N   UNL d   1      33.237  19.726 -22.189  0.00  0.00    -0.217 NA
ATOM      9  C   UNL d   1      33.142  18.907 -22.196  0.00  0.00     0.201 A 
ENDROOT
BRANCH   1  10
ATOM     10  C   UNL d   1      32.551  17.929 -24.545  0.00  0.00     0.085 A 
ATOM     11  C   UNL d   1      31.834  17.581 -24.363  0.00  0.00     0.020 A 
ATOM     12  C   UNL d   1      31.703  16.796 -24.540  0.00  0.00     0.013 A 
ATOM     13  C   UNL d   1      32.298  16.341 -24.908  0.00  0.00     0.058 A 
ATOM     14  C   UNL d   1      33.020  16.702 -25.088  0.00  0.00     0.013 A 
ATOM     15 CL   UNL d   1      32.169  15.541 -25.090  0.00  0.00    -0.082 Cl
ATOM     16  C   UNL d   1      33.145  17.490 -24.907  0.00  0.00     0.020 A 
ENDBRANCH   1  10
BRANCH   6  17
ATOM     17  S   UNL d   1      33.240  20.977 -22.879  0.00  0.00    -0.062 SA
BRANCH  17  18
ATOM     18  C   UNL d   1      33.089  21.399 -22.199  0.00  0.00     0.105 C 
BRANCH  18  19
ATOM     19  C   UNL d   1      33.111  22.224 -22.211  0.00  0.00     0.307 C 
ATOM     20  O   UNL d   1      33.012  22.629 -22.924  0.00  0.00    -0.258 OA
BRANCH  19  21
ATOM     21  O   UNL d   1      33.233  22.645 -21.511  0.00  0.00    -0.271 OA
BRANCH  21  22
ATOM     22  C   UNL d   1      32.615  23.078 -21.177  0.00  0.00     0.126 C 
ATOM     23  C   UNL d   1      32.737  23.500 -20.478  0.00  0.00     0.029 C 
ENDBRANCH  21  22
ENDBRANCH  19  21
ENDBRANCH  18  19
ENDBRANCH  17  18
ENDBRANCH   6  17
TORSDOF 6
ENDMDL
MODEL 2
REMARK VINA RESULT:      -1.6      2.924      5.383
REMARK  6 active torsions:
REMARK  status: ('A' for Active; 'I' for Inactive)
REMARK    1  A    between atoms: C_9  and  N_1 
REMARK    2  A    between atoms: S_10  and  C_6 
REMARK    3  A    between atoms: C_16  and  S_10 
REMARK    4  A    between atoms: C_12  and  C_16 
REMARK    5  A    between atoms: O_20  and  C_12 
REMARK    6  A    between atoms: C_22  and  O_20 
ROOT
ATOM      1  N   UNL d   1      32.707  21.597 -21.536  0.00  0.00    -0.212 N 
ATOM      2  C   UNL d   1      32.894  20.808 -21.404  0.00  0.00     0.169 A 
ATOM      3  N   UNL d   1      32.599  21.712 -22.331  0.00  0.00    -0.162 NA
ATOM      4  C   UNL d   1      32.902  20.428 -22.136  0.00  0.00     0.081 A 
ATOM      5  C   UNL d   1      32.720  20.987 -22.712  0.00  0.00     0.126 A 
ATOM      6  C   UNL d   1      33.075  19.626 -22.183  0.00  0.00     0.117 A 
ATOM      7  N   UNL d   1      33.059  20.386 -20.718  0.00  0.00    -0.205 NA
ATOM      8  N   UNL d   1      33.240  19.200 -21.495  0.00  0.00    -0.217 NA
ATOM      9  C   UNL d   1      33.232  19.580 -20.763  0.00  0.00     0.201 A 
ENDROOT
BRANCH   1  10
ATOM     10  C   UNL d   1      32.656  22.125 -20.897  0.00  0.00     0.085 A 
ATOM     11  C   UNL d   1      33.186  22.745 -20.838  0.00  0.00     0.020 A 
ATOM     12  C   UNL d   1      33.141  23.265 -20.213  0.00  0.00     0.013 A 
ATOM     13  C   UNL d   1      32.554  23.170 -19.627  0.00  0.00     0.058 A 
ATOM     14  C   UNL d   1      32.023  22.540 -19.694  0.00  0.00     0.013 A 
ATOM     15 CL   UNL d   1      32.505  23.699 -18.988  0.00  0.00    -0.082 Cl
ATOM     16  C   UNL d   1      32.075  22.022 -20.325  0.00  0.00     0.020 A 
ENDBRANCH   1  10
BRANCH   6  17
ATOM     17  S   UNL d   1      33.083  19.246 -22.915  0.00  0.00    -0.062 SA
BRANCH  17  18
ATOM     18  C   UNL d   1      33.017  18.435 -22.954  0.00  0.00     0.105 C 
BRANCH  18  19
ATOM     19  C   UNL d   1      32.703  18.078 -23.628  0.00  0.00     0.307 C 
ATOM     20  O   UNL d   1      32.967  18.306 -24.377  0.00  0.00    -0.258 OA
BRANCH  19  21
ATOM     21  O   UNL d   1      32.126  17.492 -23.555  0.00  0.00    -0.271 OA
BRANCH  21  22
ATOM     22  C   UNL d   1      31.772  17.175 -24.230  0.00  0.00     0.126 C 
ATOM     23  C   UNL d   1      31.114  16.681 -24.158  0.00  0.00     0.029 C 
ENDBRANCH  21  22
ENDBRANCH  19  21
ENDBRANCH  18  19
ENDBRANCH  17  18
ENDBRANCH   6  17
TORSDOF 6
ENDMDL
MODEL 3
REMARK VINA RESULT:      -1.0      2.781      5.139
REMARK  6 active torsions:
REMARK  status: ('A' for Active; 'I' for Inactive)
REMARK    1  A    between atoms: C_9  and  N_1 
REMARK    2  A    between atoms: S_10  and  C_6 
REMARK    3  A    between atoms: C_16  and  S_10 
REMARK    4  A    between atoms: C_12  and  C_16 
REMARK    5  A    between atoms: O_20  and  C_12 
REMARK    6  A    between atoms: C_22  and  O_20 
ROOT
ATOM      1  N   UNL d   1      32.847  20.180 -21.935  0.00  0.00    -0.212 N 
ATOM      2  C   UNL d   1      32.976  20.108 -22.743  0.00  0.00     0.169 A 
ATOM      3  N   UNL d   1      32.831  19.440 -21.605  0.00  0.00    -0.162 NA
ATOM      4  C   UNL d   1      33.041  19.303 -22.914  0.00  0.00     0.081 A 
ATOM      5  C   UNL d   1      32.951  18.888 -22.210  0.00  0.00     0.126 A 
ATOM      6  C   UNL d   1      33.172  19.056 -23.687  0.00  0.00     0.117 A 
ATOM      7  N   UNL d   1      33.043  20.665 -23.344  0.00  0.00    -0.205 NA
ATOM      8  N   UNL d   1      33.240  19.613 -24.292  0.00  0.00    -0.217 NA
ATOM      9  C   UNL d   1      33.176  20.417 -24.121  0.00  0.00     0.201 A 
ENDROOT
BRANCH   1  10
ATOM     10  C   UNL d   1      32.759  20.932 -21.594  0.00  0.00     0.085 A 
ATOM     11  C   UNL d   1      32.197  21.051 -21.012  0.00  0.00     0.020 A 
ATOM     12  C   UNL d   1      32.106  21.786 -20.673  0.00  0.00     0.013 A 
ATOM     13  C   UNL d   1      32.585  22.425 -20.918  0.00  0.00     0.058 A 
ATOM     14  C   UNL d   1      33.151  22.295 -21.507  0.00  0.00     0.013 A 
ATOM     15 CL   UNL d   1      32.496  23.176 -20.576  0.00  0.00    -0.082 Cl
ATOM     16  C   UNL d   1      33.236  21.553 -21.842  0.00  0.00     0.020 A 
ENDBRANCH   1  10
BRANCH   6  17
ATOM     17  S   UNL d   1      33.237  18.251 -23.858  0.00  0.00    -0.062 SA
BRANCH  17  18
ATOM     18  C   UNL d   1      32.972  17.964 -24.574  0.00  0.00     0.105 C 
BRANCH  18  19
ATOM     19  C   UNL d   1      32.702  17.187 -24.632  0.00  0.00     0.307 C 
ATOM     20  O   UNL d   1      33.236  16.559 -24.584  0.00  0.00    -0.258 OA
BRANCH  19  21
ATOM     21  O   UNL d   1      31.897  17.036 -24.739  0.00  0.00    -0.271 OA
BRANCH  21  22
ATOM     22  C   UNL d   1      31.635  16.264 -24.867  0.00  0.00     0.126 C 
ATOM     23  C   UNL d   1      30.836  16.118 -25.016  0.00  0.00     0.029 C 
ENDBRANCH  21  22
ENDBRANCH  19  21
ENDBRANCH  18  19
ENDBRANCH  17  18
ENDBRANCH   6  17
TORSDOF 6
ENDMDL
MODEL 4
REMARK VINA RESULT:      -0.5      3.214      6.052
REMARK  6 active torsions:
REMARK  status: ('A' for Active; 'I' for Inactive)
REMARK    1  A    between atoms: C_9  and  N_1 
REMARK    2  A    between atoms: S_10  and  C_6 
REMARK    3  A    between atoms: C_16  and  S_10 
REMARK    4  A    between atoms: C_12  and  C_16 
REMARK    5  A    between atoms: O_20  and  C_12 
REMARK    6  A    between atoms: C_22  and  O_20 
ROOT
ATOM      1  N   UNL d   1      32.627  22.634 -19.858  0.00  0.00    -0.212 N 
ATOM      2  C   UNL d   1      32.842  21.863 -20.046  0.00  0.00     0.169 A 
ATOM      3  N   UNL d   1      32.511  23.049 -20.544  0.00  0.00    -0.162 NA
ATOM      4  C   UNL d   1      32.859  21.803 -20.869  0.00  0.00     0.081 A 
ATOM      5  C   UNL d   1      32.654  22.537 -21.180  0.00  0.00     0.126 A 
ATOM      6  C   UNL d   1      33.058  21.090 -21.226  0.00  0.00     0.117 A 
ATOM      7  N   UNL d   1      33.023  21.211 -19.580  0.00  0.00    -0.205 NA
ATOM      8  N   UNL d   1      33.241  20.433 -20.761  0.00  0.00    -0.217 NA
ATOM      9  C   UNL d   1      33.223  20.494 -19.938  0.00  0.00     0.201 A 
ENDROOT
BRANCH   1  10
ATOM     10  C   UNL d   1      32.562  22.865 -19.063  0.00  0.00     0.085 A 
ATOM     11  C   UNL d   1      31.824  22.989 -18.735  0.00  0.00     0.020 A 
ATOM     12  C   UNL d   1      31.754  23.216 -17.955  0.00  0.00     0.013 A 
ATOM     13  C   UNL d   1      32.436  23.324 -17.485  0.00  0.00     0.058 A 
ATOM     14  C   UNL d   1      33.179  23.195 -17.827  0.00  0.00     0.013 A 
ATOM     15 CL   UNL d   1      32.371  23.555 -16.690  0.00  0.00    -0.082 Cl
ATOM     16  C   UNL d   1      33.240  22.968 -18.610  0.00  0.00     0.020 A 
ENDBRANCH   1  10
BRANCH   6  17
ATOM     17  S   UNL d   1      33.075  21.030 -22.048  0.00  0.00    -0.062 SA
BRANCH  17  18
ATOM     18  C   UNL d   1      33.215  20.308 -22.402  0.00  0.00     0.105 C 
BRANCH  18  19
ATOM     19  C   UNL d   1      32.972  20.175 -23.179  0.00  0.00     0.307 C 
ATOM     20  O   UNL d   1      33.026  20.780 -23.738  0.00  0.00    -0.258 OA
BRANCH  19  21
ATOM     21  O   UNL d   1      32.675  19.437 -23.398  0.00  0.00    -0.271 OA
BRANCH  21  22
ATOM     22  C   UNL d   1      32.769  19.167 -24.172  0.00  0.00     0.126 C 
ATOM     23  C   UNL d   1      32.769  18.356 -24.330  0.00  0.00     0.029 C 
ENDBRANCH  21  22
ENDBRANCH  19  21
ENDBRANCH  18  19
ENDBRANCH  17  18
ENDBRANCH   6  17
TORSDOF 6
ENDMDL
