MODEL 1
REMARK VINA RESULT:      15.4      0.000      0.000
REMARK  5 active torsions:
REMARK  status: ('A' for Active; 'I' for Inactive)
REMARK    1  A    between atoms: N_3  and  S_1 
REMARK    2  A    between atoms: C_5  and  S_1 
REMARK    3  A    between atoms: C_2  and  C_6 
REMARK       I    between atoms: N_4  and  C_2 
REMARK    4  A    between atoms: C_11  and  N_3 
REMARK    5  A    between atoms: O_18  and  C_14 
ROOT
ATOM      1  C   UNL d   1      45.639 -14.723  44.634  0.00  0.00     0.058 A 
ATOM      2  C   UNL d   1      46.136 -15.371  44.724  0.00  0.00     0.025 A 
ATOM      3  C   UNL d   1      45.827 -16.131  44.810  0.00  0.00     0.094 A 
ATOM      4  C   UNL d   1      44.812 -14.835  44.630  0.00  0.00     0.005 A 
ATOM      5  C   UNL d   1      44.502 -15.595  44.716  0.00  0.00     0.002 A 
ATOM      6  C   UNL d   1      45.003 -16.245  44.806  0.00  0.00     0.020 A 
ENDROOT
BRANCH   3   7
ATOM      7  N   UNL d   1      46.325 -16.778  44.899  0.00  0.00    -0.158 NA
BRANCH   7   8
ATOM      8  S   UNL d   1      46.313 -17.394  44.356  0.00  0.00     0.285 S 
ATOM      9  O   UNL d   1      46.467 -16.859  43.748  0.00  0.00    -0.198 OA
ATOM     10  O   UNL d   1      46.160 -17.932  44.953  0.00  0.00    -0.198 OA
BRANCH   8  11
ATOM     11  C   UNL d   1      46.302 -18.009  43.808  0.00  0.00     0.107 A 
ATOM     12  C   UNL d   1      46.295 -17.841  42.994  0.00  0.00     0.037 A 
ATOM     13  C   UNL d   1      46.284 -18.456  42.455  0.00  0.00     0.095 A 
ATOM     14  C   UNL d   1      46.281 -19.237  42.717  0.00  0.00     0.024 A 
ATOM     15  C   UNL d   1      46.288 -19.408  43.515  0.00  0.00     0.003 A 
ATOM     16  C   UNL d   1      46.299 -18.793  44.063  0.00  0.00     0.013 A 
BRANCH  13  17
ATOM     17  O   UNL d   1      46.277 -18.291  41.636  0.00  0.00    -0.328 OA
ATOM     18  C   UNL d   1      46.600 -18.843  41.091  0.00  0.00     0.181 C 
ENDBRANCH  13  17
ENDBRANCH   8  11
ENDBRANCH   7   8
ENDBRANCH   3   7
BRANCH   1  19
ATOM     19  C   UNL d   1      45.955 -13.968  44.549  0.00  0.00     0.265 C 
ATOM     20  N   UNL d   1      45.580 -13.419  44.054  0.00  0.00    -0.268 N 
ATOM     21  C   UNL d   1      45.897 -12.661  43.968  0.00  0.00     0.110 A 
ATOM     22  C   UNL d   1      44.897 -13.631  43.652  0.00  0.00     0.110 A 
ATOM     23  C   UNL d   1      45.522 -12.118  43.476  0.00  0.00     0.142 A 
ATOM     24  O   UNL d   1      44.838 -12.330  43.074  0.00  0.00    -0.300 OA
ATOM     25  C   UNL d   1      44.519 -13.082  43.155  0.00  0.00     0.142 A 
ATOM     26  O   UNL d   1      46.638 -13.757  44.952  0.00  0.00    -0.267 OA
ENDBRANCH   1  19
TORSDOF 5
ENDMDL
