MODEL 1
REMARK VINA RESULT:      68.5      0.000      0.000
REMARK  3 active torsions:
REMARK  status: ('A' for Active; 'I' for Inactive)
REMARK    1  A    between atoms: N_4  and  C_1 
REMARK    2  A    between atoms: C_11  and  C_3 
REMARK       I    between atoms: C_5  and  N_4 
REMARK    3  A    between atoms: C_8  and  C_5 
ROOT
ATOM      1  N   UNL d   1     -50.459  26.888  34.634  0.00  0.00    -0.183 NA
ATOM      2  C   UNL d   1     -50.487  26.547  33.881  0.00  0.00     0.281 C 
ATOM      3  O   UNL d   1     -49.940  26.794  33.307  0.00  0.00    -0.265 OA
ENDROOT
BRANCH   1   4
ATOM      4  C   UNL d   1     -50.991  26.658  35.218  0.00  0.00     0.197 A 
ATOM      5  N   UNL d   1     -50.820  26.592  36.025  0.00  0.00    -0.219 NA
ATOM      6  C   UNL d   1     -51.515  26.344  36.414  0.00  0.00     0.108 A 
ATOM      7  C   UNL d   1     -52.109  26.260  35.844  0.00  0.00     0.059 A 
ATOM      8  S   UNL d   1     -51.783  26.455  35.103  0.00  0.00    -0.046 SA
BRANCH   6   9
ATOM      9  C   UNL d   1     -51.593  26.208  37.232  0.00  0.00     0.100 A 
ATOM     10  N   UNL d   1     -51.137  26.634  37.762  0.00  0.00    -0.242 NA
ATOM     11  C   UNL d   1     -51.208  26.505  38.575  0.00  0.00     0.099 A 
ATOM     12  C   UNL d   1     -51.746  25.940  38.837  0.00  0.00     0.021 A 
ATOM     13  C   UNL d   1     -52.198  25.518  38.308  0.00  0.00     0.003 A 
ATOM     14  C   UNL d   1     -52.135  25.638  37.501  0.00  0.00     0.021 A 
ENDBRANCH   6   9
ENDBRANCH   1   4
BRANCH   2  15
ATOM     15  C   UNL d   1     -51.072  25.965  33.737  0.00  0.00     0.060 A 
ATOM     16  C   UNL d   1     -50.877  25.167  33.762  0.00  0.00     0.032 A 
ATOM     17  C   UNL d   1     -51.451  24.592  33.619  0.00  0.00     0.123 A 
ATOM     18  O   UNL d   1     -51.258  23.788  33.644  0.00  0.00    -0.301 OA
ATOM     19  C   UNL d   1     -52.232  24.836  33.450  0.00  0.00     0.123 A 
ATOM     20  C   UNL d   1     -51.838  23.214  33.500  0.00  0.00     0.149 A 
ATOM     21  C   UNL d   1     -52.622  23.456  33.330  0.00  0.00     0.149 A 
ATOM     22  O   UNL d   1     -52.816  24.254  33.306  0.00  0.00    -0.301 OA
ATOM     23  C   UNL d   1     -52.420  25.632  33.427  0.00  0.00     0.027 A 
ATOM     24  C   UNL d   1     -51.842  26.200  33.569  0.00  0.00     0.007 A 
ENDBRANCH   2  15
TORSDOF 3
ENDMDL
