MODEL 1
REMARK VINA RESULT:       2.1      0.000      0.000
REMARK  3 active torsions:
REMARK  status: ('A' for Active; 'I' for Inactive)
REMARK    1  A    between atoms: C_7  and  N_1 
REMARK    2  A    between atoms: N_3  and  C_8 
REMARK    3  A    between atoms: C_11  and  C_4 
ROOT
ATOM      1  N   UNL d   1     -41.787-123.176 -49.480  0.00  0.00    -0.230 N 
ATOM      2  N   UNL d   1     -41.213-123.264 -48.905  0.00  0.00    -0.165 NA
ATOM      3  C   UNL d   1     -42.532-123.141 -49.103  0.00  0.00     0.084 A 
ATOM      4  C   UNL d   1     -41.586-123.285 -48.171  0.00  0.00     0.103 A 
ATOM      5  C   UNL d   1     -42.393-123.210 -48.290  0.00  0.00     0.040 A 
ATOM      6  C   UNL d   1     -41.124-123.372 -47.468  0.00  0.00     0.022 C 
ENDROOT
BRANCH   1   7
ATOM      7  C   UNL d   1     -41.644-123.132 -50.285  0.00  0.00     0.083 A 
ATOM      8  C   UNL d   1     -41.487-123.816 -50.710  0.00  0.00     0.021 A 
ATOM      9  C   UNL d   1     -41.343-123.772 -51.521  0.00  0.00     0.025 A 
ATOM     10  C   UNL d   1     -41.356-123.047 -51.913  0.00  0.00     0.127 A 
ATOM     11  C   UNL d   1     -41.514-122.361 -51.486  0.00  0.00     0.025 A 
ATOM     12  C   UNL d   1     -41.658-122.407 -50.671  0.00  0.00     0.021 A 
BRANCH  10  13
ATOM     13  N   UNL d   1     -41.209-123.009 -52.737  0.00  0.00    -0.114 N 
ATOM     14  O   UNL d   1     -41.125-123.685 -53.253  0.00  0.00    -0.532 OA
ATOM     15  O   UNL d   1     -41.123-122.298 -53.173  0.00  0.00    -0.532 OA
ENDBRANCH  10  13
ENDBRANCH   1   7
BRANCH   3  16
ATOM     16  C   UNL d   1     -43.288-123.056 -49.433  0.00  0.00     0.018 A 
ATOM     17  C   UNL d   1     -43.787-123.725 -49.459  0.00  0.00     0.002 A 
ATOM     18  C   UNL d   1     -44.552-123.658 -49.787  0.00  0.00     0.000 A 
ATOM     19  C   UNL d   1     -44.804-122.932 -50.081  0.00  0.00     0.000 A 
ATOM     20  C   UNL d   1     -44.311-122.277 -50.053  0.00  0.00     0.000 A 
ATOM     21  C   UNL d   1     -43.553-122.324 -49.733  0.00  0.00     0.002 A 
ENDBRANCH   3  16
TORSDOF 3
ENDMDL
MODEL 2
REMARK VINA RESULT:       2.3      1.697      2.750
REMARK  3 active torsions:
REMARK  status: ('A' for Active; 'I' for Inactive)
REMARK    1  A    between atoms: C_7  and  N_1 
REMARK    2  A    between atoms: N_3  and  C_8 
REMARK    3  A    between atoms: C_11  and  C_4 
ROOT
ATOM      1  N   UNL d   1     -41.587-121.440 -51.781  0.00  0.00    -0.230 N 
ATOM      2  N   UNL d   1     -41.339-120.663 -51.826  0.00  0.00    -0.165 NA
ATOM      3  C   UNL d   1     -41.763-121.612 -50.982  0.00  0.00     0.084 A 
ATOM      4  C   UNL d   1     -41.355-120.343 -51.068  0.00  0.00     0.103 A 
ATOM      5  C   UNL d   1     -41.614-120.922 -50.550  0.00  0.00     0.040 A 
ATOM      6  C   UNL d   1     -41.123-119.539 -50.947  0.00  0.00     0.022 C 
ENDROOT
BRANCH   1   7
ATOM      7  C   UNL d   1     -41.650-121.953 -52.416  0.00  0.00     0.083 A 
ATOM      8  C   UNL d   1     -42.243-121.842 -52.973  0.00  0.00     0.021 A 
ATOM      9  C   UNL d   1     -42.307-122.359 -53.613  0.00  0.00     0.025 A 
ATOM     10  C   UNL d   1     -41.781-122.988 -53.702  0.00  0.00     0.127 A 
ATOM     11  C   UNL d   1     -41.187-123.098 -53.142  0.00  0.00     0.025 A 
ATOM     12  C   UNL d   1     -41.124-122.578 -52.500  0.00  0.00     0.021 A 
BRANCH  10  13
ATOM     13  N   UNL d   1     -41.852-123.509 -54.355  0.00  0.00    -0.114 N 
ATOM     14  O   UNL d   1     -42.588-123.812 -54.663  0.00  0.00    -0.532 OA
ATOM     15  O   UNL d   1     -41.205-123.807 -54.798  0.00  0.00    -0.532 OA
ENDBRANCH  10  13
ENDBRANCH   1   7
BRANCH   3  16
ATOM     16  C   UNL d   1     -42.035-122.317 -50.640  0.00  0.00     0.018 A 
ATOM     17  C   UNL d   1     -42.846-122.378 -50.451  0.00  0.00     0.002 A 
ATOM     18  C   UNL d   1     -43.138-123.081 -50.105  0.00  0.00     0.000 A 
ATOM     19  C   UNL d   1     -42.621-123.704 -49.957  0.00  0.00     0.000 A 
ATOM     20  C   UNL d   1     -41.826-123.639 -50.145  0.00  0.00     0.000 A 
ATOM     21  C   UNL d   1     -41.519-122.955 -50.485  0.00  0.00     0.002 A 
ENDBRANCH   3  16
TORSDOF 3
ENDMDL
MODEL 3
REMARK VINA RESULT:       2.9      2.134      3.872
REMARK  3 active torsions:
REMARK  status: ('A' for Active; 'I' for Inactive)
REMARK    1  A    between atoms: C_7  and  N_1 
REMARK    2  A    between atoms: N_3  and  C_8 
REMARK    3  A    between atoms: C_11  and  C_4 
ROOT
ATOM      1  N   UNL d   1     -41.679-121.389 -51.314  0.00  0.00    -0.230 N 
ATOM      2  N   UNL d   1     -41.575-120.584 -51.225  0.00  0.00    -0.165 NA
ATOM      3  C   UNL d   1     -41.450-121.598 -52.090  0.00  0.00     0.084 A 
ATOM      4  C   UNL d   1     -41.284-120.281 -51.933  0.00  0.00     0.103 A 
ATOM      5  C   UNL d   1     -41.206-120.901 -52.464  0.00  0.00     0.040 A 
ATOM      6  C   UNL d   1     -41.123-119.454 -52.002  0.00  0.00     0.022 C 
ENDROOT
BRANCH   1   7
ATOM      7  C   UNL d   1     -41.960-121.895 -50.735  0.00  0.00     0.083 A 
ATOM      8  C   UNL d   1     -42.759-122.081 -50.709  0.00  0.00     0.021 A 
ATOM      9  C   UNL d   1     -43.043-122.591 -50.126  0.00  0.00     0.025 A 
ATOM     10  C   UNL d   1     -42.534-122.918 -49.567  0.00  0.00     0.127 A 
ATOM     11  C   UNL d   1     -41.732-122.731 -49.593  0.00  0.00     0.025 A 
ATOM     12  C   UNL d   1     -41.449-122.218 -50.180  0.00  0.00     0.021 A 
BRANCH  10  13
ATOM     13  N   UNL d   1     -42.829-123.436 -48.977  0.00  0.00    -0.114 N 
ATOM     14  O   UNL d   1     -43.594-123.814 -48.995  0.00  0.00    -0.532 OA
ATOM     15  O   UNL d   1     -42.411-123.655 -48.284  0.00  0.00    -0.532 OA
ENDBRANCH  10  13
ENDBRANCH   1   7
BRANCH   3  16
ATOM     16  C   UNL d   1     -41.448-122.340 -52.459  0.00  0.00     0.018 A 
ATOM     17  C   UNL d   1     -41.743-122.396 -53.238  0.00  0.00     0.002 A 
ATOM     18  C   UNL d   1     -41.749-123.136 -53.626  0.00  0.00     0.000 A 
ATOM     19  C   UNL d   1     -41.463-123.801 -53.235  0.00  0.00     0.000 A 
ATOM     20  C   UNL d   1     -41.173-123.741 -52.470  0.00  0.00     0.000 A 
ATOM     21  C   UNL d   1     -41.159-123.020 -52.071  0.00  0.00     0.002 A 
ENDBRANCH   3  16
TORSDOF 3
ENDMDL
MODEL 4
REMARK VINA RESULT:       3.7      2.038      3.880
REMARK  3 active torsions:
REMARK  status: ('A' for Active; 'I' for Inactive)
REMARK    1  A    between atoms: C_7  and  N_1 
REMARK    2  A    between atoms: N_3  and  C_8 
REMARK    3  A    between atoms: C_11  and  C_4 
ROOT
ATOM      1  N   UNL d   1     -41.601-123.143 -51.897  0.00  0.00    -0.230 N 
ATOM      2  N   UNL d   1     -41.557-123.708 -52.485  0.00  0.00    -0.165 NA
ATOM      3  C   UNL d   1     -41.333-122.417 -52.212  0.00  0.00     0.084 A 
ATOM      4  C   UNL d   1     -41.265-123.350 -53.167  0.00  0.00     0.103 A 
ATOM      5  C   UNL d   1     -41.127-122.559 -53.002  0.00  0.00     0.040 A 
ATOM      6  C   UNL d   1     -41.160-123.808 -53.870  0.00  0.00     0.022 C 
ENDROOT
BRANCH   1   7
ATOM      7  C   UNL d   1     -41.864-123.276 -51.134  0.00  0.00     0.083 A 
ATOM      8  C   UNL d   1     -41.336-123.523 -50.557  0.00  0.00     0.021 A 
ATOM      9  C   UNL d   1     -41.600-123.657 -49.787  0.00  0.00     0.025 A 
ATOM     10  C   UNL d   1     -42.392-123.546 -49.588  0.00  0.00     0.127 A 
ATOM     11  C   UNL d   1     -42.923-123.298 -50.168  0.00  0.00     0.025 A 
ATOM     12  C   UNL d   1     -42.654-123.164 -50.941  0.00  0.00     0.021 A 
BRANCH  10  13
ATOM     13  N   UNL d   1     -42.655-123.684 -48.804  0.00  0.00    -0.114 N 
ATOM     14  O   UNL d   1     -43.469-123.801 -48.573  0.00  0.00    -0.532 OA
ATOM     15  O   UNL d   1     -42.153-123.726 -48.134  0.00  0.00    -0.532 OA
ENDBRANCH  10  13
ENDBRANCH   1   7
BRANCH   3  16
ATOM     16  C   UNL d   1     -41.266-121.675 -51.849  0.00  0.00     0.018 A 
ATOM     17  C   UNL d   1     -41.282-120.994 -52.332  0.00  0.00     0.002 A 
ATOM     18  C   UNL d   1     -41.217-120.237 -51.984  0.00  0.00     0.000 A 
ATOM     19  C   UNL d   1     -41.138-120.173 -51.167  0.00  0.00     0.000 A 
ATOM     20  C   UNL d   1     -41.123-120.845 -50.697  0.00  0.00     0.000 A 
ATOM     21  C   UNL d   1     -41.186-121.599 -51.022  0.00  0.00     0.002 A 
ENDBRANCH   3  16
TORSDOF 3
ENDMDL
