MODEL 1
REMARK VINA RESULT:       2.7      0.000      0.000
REMARK  0 active torsions:
REMARK  status: ('A' for Active; 'I' for Inactive)
ROOT
ATOM      1  C   UNL d   1     -51.981  24.855  33.334  0.00  0.00     0.221 A 
ATOM      2  N   UNL d   1     -52.688  24.429  33.326  0.00  0.00    -0.217 NA
ATOM      3  N   UNL d   1     -51.254  24.461  33.327  0.00  0.00    -0.216 NA
ATOM      4  S   UNL d   1     -51.968  25.679  33.347  0.00  0.00    -0.037 SA
ATOM      5  C   UNL d   1     -52.673  23.606  33.313  0.00  0.00     0.085 A 
ATOM      6  C   UNL d   1     -51.244  23.631  33.313  0.00  0.00     0.103 A 
ATOM      7  C   UNL d   1     -51.950  23.205  33.306  0.00  0.00     0.040 A 
ATOM      8  C   UNL d   1     -53.390  23.198  33.306  0.00  0.00     0.021 C 
ENDROOT
TORSDOF 0
ENDMDL
MODEL 2
REMARK VINA RESULT:       5.2      1.432      1.787
REMARK  0 active torsions:
REMARK  status: ('A' for Active; 'I' for Inactive)
ROOT
ATOM      1  C   UNL d   1     -51.018  26.281  33.310  0.00  0.00     0.221 A 
ATOM      2  N   UNL d   1     -51.645  25.745  33.312  0.00  0.00    -0.217 NA
ATOM      3  N   UNL d   1     -50.236  26.013  33.307  0.00  0.00    -0.216 NA
ATOM      4  S   UNL d   1     -51.141  27.097  33.312  0.00  0.00    -0.037 SA
ATOM      5  C   UNL d   1     -51.494  24.935  33.310  0.00  0.00     0.085 A 
ATOM      6  C   UNL d   1     -50.089  25.196  33.306  0.00  0.00     0.103 A 
ATOM      7  C   UNL d   1     -50.715  24.659  33.307  0.00  0.00     0.040 A 
ATOM      8  C   UNL d   1     -52.134  24.414  33.312  0.00  0.00     0.021 C 
ENDROOT
TORSDOF 0
ENDMDL
