MODEL 1
REMARK VINA RESULT:     -10.6      0.000      0.000
REMARK  3 active torsions:
REMARK  status: ('A' for Active; 'I' for Inactive)
REMARK    1  A    between atoms: N_2  and  S_1 
REMARK    2  A    between atoms: C_3  and  S_1 
REMARK    3  A    between atoms: C_4  and  N_2 
ROOT
ATOM      1  S   UNL d   1      54.154  32.129  53.601  0.00  0.00     0.287 S 
ATOM      2  O   UNL d   1      54.358  31.414  53.233  0.00  0.00    -0.198 OA
ATOM      3  O   UNL d   1      54.847  32.472  53.313  0.00  0.00    -0.198 OA
ENDROOT
BRANCH   1   4
ATOM      4  N   UNL d   1      53.463  31.781  53.885  0.00  0.00    -0.139 NA
BRANCH   4   5
ATOM      5  C   UNL d   1      53.275  31.002  53.695  0.00  0.00     0.175 A 
ATOM      6  N   UNL d   1      53.428  30.393  54.225  0.00  0.00    -0.226 NA
ATOM      7  C   UNL d   1      53.241  29.667  54.022  0.00  0.00     0.083 A 
ATOM      8  C   UNL d   1      53.384  29.029  54.537  0.00  0.00     0.021 C 
ATOM      9  C   UNL d   1      52.896  29.497  53.293  0.00  0.00     0.019 A 
ATOM     10  C   UNL d   1      52.761  30.065  52.816  0.00  0.00     0.005 A 
ATOM     11  C   UNL d   1      52.930  30.832  52.966  0.00  0.00     0.040 A 
ENDBRANCH   4   5
ENDBRANCH   1   4
BRANCH   1  12
ATOM     12  C   UNL d   1      53.957  32.834  53.961  0.00  0.00     0.105 A 
ATOM     13  C   UNL d   1      53.495  33.388  53.562  0.00  0.00     0.013 A 
ATOM     14  C   UNL d   1      53.297  34.100  53.929  0.00  0.00     0.001 A 
ATOM     15  C   UNL d   1      52.838  34.651  53.532  0.00  0.00     0.000 A 
ATOM     16  C   UNL d   1      53.562  34.258  54.694  0.00  0.00     0.000 A 
ATOM     17  C   UNL d   1      52.637  35.368  53.897  0.00  0.00     0.000 A 
ATOM     18  C   UNL d   1      52.905  35.524  54.668  0.00  0.00     0.000 A 
ATOM     19  C   UNL d   1      53.364  34.972  55.065  0.00  0.00     0.000 A 
ATOM     20  C   UNL d   1      54.024  33.703  55.093  0.00  0.00     0.001 A 
ATOM     21  C   UNL d   1      54.220  32.992  54.725  0.00  0.00     0.013 A 
ENDBRANCH   1  12
TORSDOF 3
ENDMDL
MODEL 2
REMARK VINA RESULT:      -9.3      0.805      4.177
REMARK  3 active torsions:
REMARK  status: ('A' for Active; 'I' for Inactive)
REMARK    1  A    between atoms: N_2  and  S_1 
REMARK    2  A    between atoms: C_3  and  S_1 
REMARK    3  A    between atoms: C_4  and  N_2 
ROOT
ATOM      1  S   UNL d   1      54.071  32.515  53.684  0.00  0.00     0.287 S 
ATOM      2  O   UNL d   1      54.444  33.243  53.819  0.00  0.00    -0.198 OA
ATOM      3  O   UNL d   1      54.714  32.272  53.229  0.00  0.00    -0.198 OA
ENDROOT
BRANCH   1   4
ATOM      4  N   UNL d   1      53.430  32.764  54.140  0.00  0.00    -0.139 NA
BRANCH   4   5
ATOM      5  C   UNL d   1      53.311  33.562  54.298  0.00  0.00     0.175 A 
ATOM      6  N   UNL d   1      52.808  34.012  53.828  0.00  0.00    -0.226 NA
ATOM      7  C   UNL d   1      52.712  34.763  53.998  0.00  0.00     0.083 A 
ATOM      8  C   UNL d   1      52.210  35.245  53.541  0.00  0.00     0.021 C 
ATOM      9  C   UNL d   1      53.101  35.116  54.635  0.00  0.00     0.019 A 
ATOM     10  C   UNL d   1      53.559  34.693  55.057  0.00  0.00     0.005 A 
ATOM     11  C   UNL d   1      53.700  33.915  54.934  0.00  0.00     0.040 A 
ENDBRANCH   4   5
ENDBRANCH   1   4
BRANCH   1  12
ATOM     12  C   UNL d   1      53.707  31.798  53.549  0.00  0.00     0.105 A 
ATOM     13  C   UNL d   1      53.824  31.169  54.070  0.00  0.00     0.013 A 
ATOM     14  C   UNL d   1      53.455  30.445  53.932  0.00  0.00     0.001 A 
ATOM     15  C   UNL d   1      53.571  29.820  54.450  0.00  0.00     0.000 A 
ATOM     16  C   UNL d   1      52.969  30.348  53.272  0.00  0.00     0.000 A 
ATOM     17  C   UNL d   1      53.203  29.091  54.314  0.00  0.00     0.000 A 
ATOM     18  C   UNL d   1      52.714  28.996  53.648  0.00  0.00     0.000 A 
ATOM     19  C   UNL d   1      52.597  29.621  53.130  0.00  0.00     0.000 A 
ATOM     20  C   UNL d   1      52.852  30.977  52.751  0.00  0.00     0.001 A 
ATOM     21  C   UNL d   1      53.222  31.700  52.891  0.00  0.00     0.013 A 
ENDBRANCH   1  12
TORSDOF 3
ENDMDL
MODEL 3
REMARK VINA RESULT:      -8.9      2.247      3.537
REMARK  3 active torsions:
REMARK  status: ('A' for Active; 'I' for Inactive)
REMARK    1  A    between atoms: N_2  and  S_1 
REMARK    2  A    between atoms: C_3  and  S_1 
REMARK    3  A    between atoms: C_4  and  N_2 
ROOT
ATOM      1  S   UNL d   1      52.195  32.841  53.222  0.00  0.00     0.287 S 
ATOM      2  O   UNL d   1      51.432  32.714  52.925  0.00  0.00    -0.198 OA
ATOM      3  O   UNL d   1      52.278  32.030  53.348  0.00  0.00    -0.198 OA
ENDROOT
BRANCH   1   4
ATOM      4  N   UNL d   1      52.106  33.651  53.093  0.00  0.00    -0.139 NA
BRANCH   4   5
ATOM      5  C   UNL d   1      51.427  33.947  52.735  0.00  0.00     0.175 A 
ATOM      6  N   UNL d   1      50.828  34.283  53.186  0.00  0.00    -0.226 NA
ATOM      7  C   UNL d   1      50.197  34.555  52.824  0.00  0.00     0.083 A 
ATOM      8  C   UNL d   1      49.573  34.900  53.253  0.00  0.00     0.021 C 
ATOM      9  C   UNL d   1      50.118  34.516  52.004  0.00  0.00     0.019 A 
ATOM     10  C   UNL d   1      50.675  34.207  51.602  0.00  0.00     0.005 A 
ATOM     11  C   UNL d   1      51.348  33.908  51.915  0.00  0.00     0.040 A 
ENDBRANCH   4   5
ENDBRANCH   1   4
BRANCH   1  12
ATOM     12  C   UNL d   1      52.947  32.962  53.515  0.00  0.00     0.105 A 
ATOM     13  C   UNL d   1      53.052  33.286  54.266  0.00  0.00     0.013 A 
ATOM     14  C   UNL d   1      53.813  33.408  54.560  0.00  0.00     0.001 A 
ATOM     15  C   UNL d   1      53.917  33.730  55.306  0.00  0.00     0.000 A 
ATOM     16  C   UNL d   1      54.469  33.205  54.103  0.00  0.00     0.000 A 
ATOM     17  C   UNL d   1      54.679  33.853  55.605  0.00  0.00     0.000 A 
ATOM     18  C   UNL d   1      55.339  33.648  55.143  0.00  0.00     0.000 A 
ATOM     19  C   UNL d   1      55.235  33.326  54.396  0.00  0.00     0.000 A 
ATOM     20  C   UNL d   1      54.364  32.880  53.352  0.00  0.00     0.001 A 
ATOM     21  C   UNL d   1      53.603  32.760  53.060  0.00  0.00     0.013 A 
ENDBRANCH   1  12
TORSDOF 3
ENDMDL
MODEL 4
REMARK VINA RESULT:      -8.4      2.315      3.348
REMARK  3 active torsions:
REMARK  status: ('A' for Active; 'I' for Inactive)
REMARK    1  A    between atoms: N_2  and  S_1 
REMARK    2  A    between atoms: C_3  and  S_1 
REMARK    3  A    between atoms: C_4  and  N_2 
ROOT
ATOM      1  S   UNL d   1      52.616  34.370  53.282  0.00  0.00     0.287 S 
ATOM      2  O   UNL d   1      53.341  34.373  53.684  0.00  0.00    -0.198 OA
ATOM      3  O   UNL d   1      52.821  35.077  52.910  0.00  0.00    -0.198 OA
ENDROOT
BRANCH   1   4
ATOM      4  N   UNL d   1      52.416  33.663  53.657  0.00  0.00    -0.139 NA
BRANCH   4   5
ATOM      5  C   UNL d   1      52.994  33.195  54.008  0.00  0.00     0.175 A 
ATOM      6  N   UNL d   1      53.190  32.463  53.689  0.00  0.00    -0.226 NA
ATOM      7  C   UNL d   1      53.739  32.039  54.039  0.00  0.00     0.083 A 
ATOM      8  C   UNL d   1      53.960  31.294  53.741  0.00  0.00     0.021 C 
ATOM      9  C   UNL d   1      54.127  32.307  54.716  0.00  0.00     0.019 A 
ATOM     10  C   UNL d   1      53.938  32.980  54.998  0.00  0.00     0.005 A 
ATOM     11  C   UNL d   1      53.382  33.463  54.685  0.00  0.00     0.040 A 
ENDBRANCH   4   5
ENDBRANCH   1   4
BRANCH   1  12
ATOM     12  C   UNL d   1      51.903  34.370  52.885  0.00  0.00     0.105 A 
ATOM     13  C   UNL d   1      51.220  34.639  53.260  0.00  0.00     0.013 A 
ATOM     14  C   UNL d   1      50.501  34.638  52.856  0.00  0.00     0.001 A 
ATOM     15  C   UNL d   1      49.821  34.905  53.229  0.00  0.00     0.000 A 
ATOM     16  C   UNL d   1      50.465  34.369  52.077  0.00  0.00     0.000 A 
ATOM     17  C   UNL d   1      49.097  34.906  52.828  0.00  0.00     0.000 A 
ATOM     18  C   UNL d   1      49.064  34.634  52.042  0.00  0.00     0.000 A 
ATOM     19  C   UNL d   1      49.743  34.367  51.669  0.00  0.00     0.000 A 
ATOM     20  C   UNL d   1      51.149  34.100  51.702  0.00  0.00     0.001 A 
ATOM     21  C   UNL d   1      51.866  34.102  52.107  0.00  0.00     0.013 A 
ENDBRANCH   1  12
TORSDOF 3
ENDMDL
