MODEL 1
REMARK VINA RESULT:      -8.4      0.000      0.000
REMARK  2 active torsions:
REMARK  status: ('A' for Active; 'I' for Inactive)
REMARK    1  A    between atoms: C_9  and  C_4 
REMARK    2  A    between atoms: C_13  and  C_6 
ROOT
ATOM      1  N   UNL d   1     -47.308  13.790  22.858  0.00  0.00    -0.185 N 
ATOM      2  C   UNL d   1     -46.515  14.024  22.820  0.00  0.00     0.219 A 
ATOM      3  N   UNL d   1     -47.327  12.998  23.056  0.00  0.00    -0.153 NA
ATOM      4  C   UNL d   1     -46.556  12.733  23.143  0.00  0.00     0.156 A 
ATOM      5  S   UNL d   1     -46.052  13.366  22.998  0.00  0.00    -0.024 SA
ATOM      6  C   UNL d   1     -47.774  14.446  22.681  0.00  0.00     0.187 A 
ATOM      7  N   UNL d   1     -47.271  15.088  22.533  0.00  0.00    -0.127 NA
ATOM      8  N   UNL d   1     -46.494  14.822  22.620  0.00  0.00    -0.120 NA
ENDROOT
BRANCH   6   9
ATOM      9  C   UNL d   1     -48.594  14.467  22.653  0.00  0.00     0.038 A 
ATOM     10  C   UNL d   1     -49.000  14.104  22.034  0.00  0.00     0.004 A 
ATOM     11  C   UNL d   1     -49.821  14.125  22.007  0.00  0.00     0.011 A 
ATOM     12  C   UNL d   1     -50.237  14.514  22.605  0.00  0.00     0.058 A 
ATOM     13  C   UNL d   1     -49.830  14.879  23.228  0.00  0.00     0.011 A 
ATOM     14 CL   UNL d   1     -51.064  14.538  22.582  0.00  0.00    -0.082 Cl
ATOM     15  C   UNL d   1     -49.012  14.851  23.243  0.00  0.00     0.004 A 
ENDBRANCH   6   9
BRANCH   4  16
ATOM     16  C   UNL d   1     -46.319  11.967  23.342  0.00  0.00     0.126 A 
ATOM     17  O   UNL d   1     -45.538  11.701  23.376  0.00  0.00    -0.298 OA
ATOM     18  C   UNL d   1     -45.555  10.907  23.595  0.00  0.00     0.134 A 
ATOM     19 BR   UNL d   1     -44.904  10.416  23.697  0.00  0.00    -0.022 Br
ATOM     20  C   UNL d   1     -46.346  10.679  23.697  0.00  0.00     0.034 A 
ATOM     21  C   UNL d   1     -46.818  11.336  23.540  0.00  0.00     0.029 A 
ENDBRANCH   4  16
TORSDOF 2
ENDMDL
MODEL 2
REMARK VINA RESULT:      -7.2      1.749      2.452
REMARK  2 active torsions:
REMARK  status: ('A' for Active; 'I' for Inactive)
REMARK    1  A    between atoms: C_9  and  C_4 
REMARK    2  A    between atoms: C_13  and  C_6 
ROOT
ATOM      1  N   UNL d   1     -49.239  12.123  23.408  0.00  0.00    -0.185 N 
ATOM      2  C   UNL d   1     -49.264  11.324  23.622  0.00  0.00     0.219 A 
ATOM      3  N   UNL d   1     -48.455  12.338  23.333  0.00  0.00    -0.153 NA
ATOM      4  C   UNL d   1     -47.989  11.685  23.497  0.00  0.00     0.156 A 
ATOM      5  S   UNL d   1     -48.487  11.056  23.676  0.00  0.00    -0.024 SA
ATOM      6  C   UNL d   1     -50.015  12.394  23.353  0.00  0.00     0.187 A 
ATOM      7  N   UNL d   1     -50.522  11.765  23.533  0.00  0.00    -0.127 NA
ATOM      8  N   UNL d   1     -50.053  11.105  23.698  0.00  0.00    -0.120 NA
ENDROOT
BRANCH   6   9
ATOM      9  C   UNL d   1     -50.252  13.155  23.156  0.00  0.00     0.038 A 
ATOM     10  C   UNL d   1     -50.143  13.776  23.688  0.00  0.00     0.004 A 
ATOM     11  C   UNL d   1     -50.380  14.538  23.489  0.00  0.00     0.011 A 
ATOM     12  C   UNL d   1     -50.728  14.677  22.754  0.00  0.00     0.058 A 
ATOM     13  C   UNL d   1     -50.838  14.053  22.219  0.00  0.00     0.011 A 
ATOM     14 CL   UNL d   1     -50.969  15.442  22.550  0.00  0.00    -0.082 Cl
ATOM     15  C   UNL d   1     -50.597  13.299  22.429  0.00  0.00     0.004 A 
ENDBRANCH   6   9
BRANCH   4  16
ATOM     16  C   UNL d   1     -47.163  11.655  23.486  0.00  0.00     0.126 A 
ATOM     17  O   UNL d   1     -46.706  10.988  23.656  0.00  0.00    -0.298 OA
ATOM     18  C   UNL d   1     -45.914  11.203  23.580  0.00  0.00     0.134 A 
ATOM     19 BR   UNL d   1     -45.264  10.715  23.697  0.00  0.00    -0.022 Br
ATOM     20  C   UNL d   1     -45.879  12.003  23.362  0.00  0.00     0.034 A 
ATOM     21  C   UNL d   1     -46.653  12.281  23.305  0.00  0.00     0.029 A 
ENDBRANCH   4  16
TORSDOF 2
ENDMDL
MODEL 3
REMARK VINA RESULT:      -6.9      1.670      1.880
REMARK  2 active torsions:
REMARK  status: ('A' for Active; 'I' for Inactive)
REMARK    1  A    between atoms: C_9  and  C_4 
REMARK    2  A    between atoms: C_13  and  C_6 
ROOT
ATOM      1  N   UNL d   1     -47.861  13.870  22.740  0.00  0.00    -0.185 N 
ATOM      2  C   UNL d   1     -47.463  14.594  22.697  0.00  0.00     0.219 A 
ATOM      3  N   UNL d   1     -47.310  13.274  22.650  0.00  0.00    -0.153 NA
ATOM      4  C   UNL d   1     -46.571  13.616  22.552  0.00  0.00     0.156 A 
ATOM      5  S   UNL d   1     -46.664  14.432  22.581  0.00  0.00    -0.024 SA
ATOM      6  C   UNL d   1     -48.661  14.028  22.856  0.00  0.00     0.187 A 
ATOM      7  N   UNL d   1     -48.761  14.850  22.886  0.00  0.00    -0.127 NA
ATOM      8  N   UNL d   1     -48.017  15.195  22.787  0.00  0.00    -0.120 NA
ENDROOT
BRANCH   6   9
ATOM      9  C   UNL d   1     -49.262  13.473  22.931  0.00  0.00     0.038 A 
ATOM     10  C   UNL d   1     -49.809  13.368  22.324  0.00  0.00     0.004 A 
ATOM     11  C   UNL d   1     -50.410  12.812  22.399  0.00  0.00     0.011 A 
ATOM     12  C   UNL d   1     -50.462  12.359  23.086  0.00  0.00     0.058 A 
ATOM     13  C   UNL d   1     -49.911  12.465  23.698  0.00  0.00     0.011 A 
ATOM     14 CL   UNL d   1     -51.064  11.798  23.167  0.00  0.00    -0.082 Cl
ATOM     15  C   UNL d   1     -49.317  13.021  23.611  0.00  0.00     0.004 A 
ENDBRANCH   6   9
BRANCH   4  16
ATOM     16  C   UNL d   1     -45.856  13.216  22.443  0.00  0.00     0.126 A 
ATOM     17  O   UNL d   1     -45.262  13.436  21.913  0.00  0.00    -0.298 OA
ATOM     18  C   UNL d   1     -44.650  12.888  21.984  0.00  0.00     0.134 A 
ATOM     19 BR   UNL d   1     -43.945  12.888  21.563  0.00  0.00    -0.022 Br
ATOM     20  C   UNL d   1     -44.864  12.329  22.559  0.00  0.00     0.034 A 
ATOM     21  C   UNL d   1     -45.611  12.534  22.842  0.00  0.00     0.029 A 
ENDBRANCH   4  16
TORSDOF 2
ENDMDL
MODEL 4
REMARK VINA RESULT:      -6.8      8.506      9.626
REMARK  2 active torsions:
REMARK  status: ('A' for Active; 'I' for Inactive)
REMARK    1  A    between atoms: C_9  and  C_4 
REMARK    2  A    between atoms: C_13  and  C_6 
ROOT
ATOM      1  N   UNL d   1     -40.049  14.482  18.943  0.00  0.00    -0.185 N 
ATOM      2  C   UNL d   1     -40.756  14.350  19.352  0.00  0.00     0.219 A 
ATOM      3  N   UNL d   1     -39.506  14.786  19.472  0.00  0.00    -0.153 NA
ATOM      4  C   UNL d   1     -39.864  14.846  20.207  0.00  0.00     0.156 A 
ATOM      5  S   UNL d   1     -40.638  14.577  20.135  0.00  0.00    -0.024 SA
ATOM      6  C   UNL d   1     -40.164  14.256  18.159  0.00  0.00     0.187 A 
ATOM      7  N   UNL d   1     -40.942  13.983  18.080  0.00  0.00    -0.127 NA
ATOM      8  N   UNL d   1     -41.305  14.044  18.820  0.00  0.00    -0.120 NA
ENDROOT
BRANCH   6   9
ATOM      9  C   UNL d   1     -39.608  14.291  17.556  0.00  0.00     0.038 A 
ATOM     10  C   UNL d   1     -39.086  13.665  17.434  0.00  0.00     0.004 A 
ATOM     11  C   UNL d   1     -38.530  13.701  16.830  0.00  0.00     0.011 A 
ATOM     12  C   UNL d   1     -38.498  14.368  16.345  0.00  0.00     0.058 A 
ATOM     13  C   UNL d   1     -39.023  14.998  16.468  0.00  0.00     0.011 A 
ATOM     14 CL   UNL d   1     -37.940  14.410  15.736  0.00  0.00    -0.082 Cl
ATOM     15  C   UNL d   1     -39.572  14.950  17.073  0.00  0.00     0.004 A 
ENDBRANCH   6   9
BRANCH   4  16
ATOM     16  C   UNL d   1     -39.516  15.127  20.902  0.00  0.00     0.126 A 
ATOM     17  O   UNL d   1     -39.018  14.693  21.396  0.00  0.00    -0.298 OA
ATOM     18  C   UNL d   1     -38.799  15.183  22.021  0.00  0.00     0.134 A 
ATOM     19 BR   UNL d   1     -38.306  14.982  22.648  0.00  0.00    -0.022 Br
ATOM     20  C   UNL d   1     -39.161  15.922  21.915  0.00  0.00     0.034 A 
ATOM     21  C   UNL d   1     -39.605  15.886  21.221  0.00  0.00     0.029 A 
ENDBRANCH   4  16
TORSDOF 2
ENDMDL
MODEL 5
REMARK VINA RESULT:      -6.4      8.661      9.668
REMARK  2 active torsions:
REMARK  status: ('A' for Active; 'I' for Inactive)
REMARK    1  A    between atoms: C_9  and  C_4 
REMARK    2  A    between atoms: C_13  and  C_6 
ROOT
ATOM      1  N   UNL d   1     -40.005  15.132  18.623  0.00  0.00    -0.185 N 
ATOM      2  C   UNL d   1     -40.465  15.342  17.968  0.00  0.00     0.219 A 
ATOM      3  N   UNL d   1     -39.399  14.652  18.360  0.00  0.00    -0.153 NA
ATOM      4  C   UNL d   1     -39.473  14.559  17.549  0.00  0.00     0.156 A 
ATOM      5  S   UNL d   1     -40.132  14.985  17.305  0.00  0.00    -0.024 SA
ATOM      6  C   UNL d   1     -40.335  15.488  19.289  0.00  0.00     0.187 A 
ATOM      7  N   UNL d   1     -41.000  15.919  19.048  0.00  0.00    -0.127 NA
ATOM      8  N   UNL d   1     -41.076  15.826  18.231  0.00  0.00    -0.120 NA
ENDROOT
BRANCH   6   9
ATOM      9  C   UNL d   1     -40.058  15.430  20.059  0.00  0.00     0.038 A 
ATOM     10  C   UNL d   1     -40.387  14.880  20.579  0.00  0.00     0.004 A 
ATOM     11  C   UNL d   1     -40.110  14.823  21.351  0.00  0.00     0.011 A 
ATOM     12  C   UNL d   1     -39.500  15.318  21.602  0.00  0.00     0.058 A 
ATOM     13  C   UNL d   1     -39.169  15.870  21.079  0.00  0.00     0.011 A 
ATOM     14 CL   UNL d   1     -39.217  15.263  22.378  0.00  0.00    -0.082 Cl
ATOM     15  C   UNL d   1     -39.454  15.918  20.314  0.00  0.00     0.004 A 
ENDBRANCH   6   9
BRANCH   4  16
ATOM     16  C   UNL d   1     -38.977  14.116  17.058  0.00  0.00     0.126 A 
ATOM     17  O   UNL d   1     -38.786  14.305  16.277  0.00  0.00    -0.298 OA
ATOM     18  C   UNL d   1     -38.280  13.718  15.997  0.00  0.00     0.134 A 
ATOM     19 BR   UNL d   1     -37.948  13.679  15.246  0.00  0.00    -0.022 Br
ATOM     20  C   UNL d   1     -38.157  13.165  16.603  0.00  0.00     0.034 A 
ATOM     21  C   UNL d   1     -38.590  13.413  17.259  0.00  0.00     0.029 A 
ENDBRANCH   4  16
TORSDOF 2
ENDMDL
