MODEL 1
REMARK VINA RESULT:      -3.5      0.000      0.000
REMARK  9 active torsions:
REMARK  status: ('A' for Active; 'I' for Inactive)
REMARK    1  A    between atoms: C_3  and  C_1 
REMARK    2  A    between atoms: C_4  and  C_1 
REMARK    3  A    between atoms: C_2  and  C_4 
REMARK    4  A    between atoms: O_9  and  C_2 
REMARK       I    between atoms: N_6  and  C_3 
REMARK    5  A    between atoms: N_5  and  C_4 
REMARK    6  A    between atoms: C_10  and  N_5 
REMARK    7  A    between atoms: C_11  and  N_6 
REMARK    8  A    between atoms: C_12  and  C_10 
REMARK    9  A    between atoms: C_13  and  C_11 
ROOT
ATOM      1  C   UNK d   1      58.328   0.126  30.041  0.00  0.00     0.124 C 
ENDROOT
BRANCH   1   2
ATOM      2  C   UNK d   1      58.071   0.055  29.248  0.00  0.00     0.194 C 
ATOM      3  O   UNK d   1      58.227  -0.626  28.824  0.00  0.00    -0.645 OA
BRANCH   2   4
ATOM      4  O   UNK d   1      57.654   0.681  28.887  0.00  0.00    -0.772 OA
ATOM      5  H   UNK d   1      56.830   0.647  28.828  0.00  0.00     0.167 HD
ENDBRANCH   2   4
ENDBRANCH   1   2
BRANCH   1   6
ATOM      6  C   UNK d   1      57.787   0.294  30.639  0.00  0.00     0.084 C 
BRANCH   6   7
ATOM      7  C   UNK d   1      57.448  -0.319  31.062  0.00  0.00     0.259 C 
ATOM      8  N   UNK d   1      56.995  -0.153  31.731  0.00  0.00    -0.320 N 
ATOM      9  H   UNK d   1      56.884   0.639  31.977  0.00  0.00     0.169 HD
ATOM     10  O   UNK d   1      57.558  -1.108  30.818  0.00  0.00    -0.267 OA
BRANCH   8  11
ATOM     11  C   UNK d   1      56.651  -0.767  32.161  0.00  0.00     0.075 C 
BRANCH  11  12
ATOM     12  C   UNK d   1      56.224  -0.608  32.856  0.00  0.00     0.017 C 
ATOM     13  C   UNK d   1      55.520  -1.007  33.015  0.00  0.00     0.002 C 
ATOM     14  C   UNK d   1      56.509  -0.044  33.391  0.00  0.00     0.002 C 
ENDBRANCH  11  12
ENDBRANCH   8  11
ENDBRANCH   6   7
ENDBRANCH   1   6
BRANCH   1  15
ATOM     15  N   UNK d   1      59.124   0.029  30.231  0.00  0.00    -0.347 N 
ATOM     16  H   UNK d   1      59.404  -0.733  30.415  0.00  0.00     0.166 HD
BRANCH  15  17
ATOM     17  C   UNK d   0      59.637   0.680  30.238  0.00  0.00     0.073 C 
BRANCH  17  18
ATOM     18  C   UNK d   0      60.416   0.585  30.467  0.00  0.00     0.017 C 
ATOM     19  C   UNK d   0      60.991   0.392  29.909  0.00  0.00     0.002 C 
ATOM     20  C   UNK d   0      60.626   0.682  31.258  0.00  0.00     0.002 C 
ENDBRANCH  17  18
ENDBRANCH  15  17
ENDBRANCH   1  15
TORSDOF 9
ENDMDL
MODEL 2
REMARK VINA RESULT:      -3.4      1.559      1.958
REMARK  9 active torsions:
REMARK  status: ('A' for Active; 'I' for Inactive)
REMARK    1  A    between atoms: C_3  and  C_1 
REMARK    2  A    between atoms: C_4  and  C_1 
REMARK    3  A    between atoms: C_2  and  C_4 
REMARK    4  A    between atoms: O_9  and  C_2 
REMARK       I    between atoms: N_6  and  C_3 
REMARK    5  A    between atoms: N_5  and  C_4 
REMARK    6  A    between atoms: C_10  and  N_5 
REMARK    7  A    between atoms: C_11  and  N_6 
REMARK    8  A    between atoms: C_12  and  C_10 
REMARK    9  A    between atoms: C_13  and  C_11 
ROOT
ATOM      1  C   UNK d   1      58.545  -0.343  29.621  0.00  0.00     0.124 C 
ENDROOT
BRANCH   1   2
ATOM      2  C   UNK d   1      58.658   0.231  29.023  0.00  0.00     0.194 C 
ATOM      3  O   UNK d   1      58.082   0.353  28.455  0.00  0.00    -0.645 OA
BRANCH   2   4
ATOM      4  O   UNK d   1      59.360   0.681  29.004  0.00  0.00    -0.772 OA
ATOM      5  H   UNK d   1      59.758   0.854  29.707  0.00  0.00     0.167 HD
ENDBRANCH   2   4
ENDBRANCH   1   2
BRANCH   1   6
ATOM      6  C   UNK d   1      58.470  -0.112  30.408  0.00  0.00     0.084 C 
BRANCH   6   7
ATOM      7  C   UNK d   1      57.726   0.033  30.719  0.00  0.00     0.259 C 
ATOM      8  N   UNK d   1      57.515  -0.299  31.444  0.00  0.00    -0.320 N 
ATOM      9  H   UNK d   1      58.057  -0.781  31.860  0.00  0.00     0.169 HD
ATOM     10  O   UNK d   1      57.186   0.512  30.305  0.00  0.00    -0.267 OA
BRANCH   8  11
ATOM     11  C   UNK d   1      56.767  -0.156  31.761  0.00  0.00     0.075 C 
BRANCH  11  12
ATOM     12  C   UNK d   1      56.551  -0.482  32.494  0.00  0.00     0.017 C 
ATOM     13  C   UNK d   1      56.177  -1.216  32.533  0.00  0.00     0.002 C 
ATOM     14  C   UNK d   1      56.713  -0.065  33.192  0.00  0.00     0.002 C 
ENDBRANCH  11  12
ENDBRANCH   8  11
ENDBRANCH   6   7
ENDBRANCH   1   6
BRANCH   1  15
ATOM     15  N   UNK d   1      58.508  -1.143  29.428  0.00  0.00    -0.347 N 
ATOM     16  H   UNK d   1      57.770  -1.529  29.452  0.00  0.00     0.166 HD
BRANCH  15  17
ATOM     17  C   UNK d   0      59.194  -1.557  29.215  0.00  0.00     0.073 C 
BRANCH  17  18
ATOM     18  C   UNK d   0      59.171  -2.369  29.126  0.00  0.00     0.017 C 
ATOM     19  C   UNK d   0      58.528  -2.726  28.752  0.00  0.00     0.002 C 
ATOM     20  C   UNK d   0      59.791  -2.831  29.410  0.00  0.00     0.002 C 
ENDBRANCH  17  18
ENDBRANCH  15  17
ENDBRANCH   1  15
TORSDOF 9
ENDMDL
MODEL 3
REMARK VINA RESULT:      -3.2      1.481      4.443
REMARK  9 active torsions:
REMARK  status: ('A' for Active; 'I' for Inactive)
REMARK    1  A    between atoms: C_3  and  C_1 
REMARK    2  A    between atoms: C_4  and  C_1 
REMARK    3  A    between atoms: C_2  and  C_4 
REMARK    4  A    between atoms: O_9  and  C_2 
REMARK       I    between atoms: N_6  and  C_3 
REMARK    5  A    between atoms: N_5  and  C_4 
REMARK    6  A    between atoms: C_10  and  N_5 
REMARK    7  A    between atoms: C_11  and  N_6 
REMARK    8  A    between atoms: C_12  and  C_10 
REMARK    9  A    between atoms: C_13  and  C_11 
ROOT
ATOM      1  C   UNK d   1      56.354  -0.339  32.725  0.00  0.00     0.124 C 
ENDROOT
BRANCH   1   2
ATOM      2  C   UNK d   1      56.311  -1.174  32.727  0.00  0.00     0.194 C 
ATOM      3  O   UNK d   1      55.814  -1.563  32.207  0.00  0.00    -0.645 OA
BRANCH   2   4
ATOM      4  O   UNK d   1      56.777  -1.614  33.262  0.00  0.00    -0.772 OA
ATOM      5  H   UNK d   1      57.126  -1.239  33.910  0.00  0.00     0.167 HD
ENDBRANCH   2   4
ENDBRANCH   1   2
BRANCH   1   6
ATOM      6  C   UNK d   1      57.038   0.041  32.465  0.00  0.00     0.084 C 
BRANCH   6   7
ATOM      7  C   UNK d   1      57.105   0.262  31.680  0.00  0.00     0.259 C 
ATOM      8  N   UNK d   1      57.834   0.201  31.299  0.00  0.00    -0.320 N 
ATOM      9  H   UNK d   1      58.502  -0.087  31.713  0.00  0.00     0.169 HD
ATOM     10  O   UNK d   1      56.441   0.548  31.267  0.00  0.00    -0.267 OA
BRANCH   8  11
ATOM     11  C   UNK d   1      57.907   0.422  30.507  0.00  0.00     0.075 C 
BRANCH  11  12
ATOM     12  C   UNK d   1      58.593   0.233  30.079  0.00  0.00     0.017 C 
ATOM     13  C   UNK d   1      58.588  -0.386  29.533  0.00  0.00     0.002 C 
ATOM     14  C   UNK d   1      59.286   0.671  30.201  0.00  0.00     0.002 C 
ENDBRANCH  11  12
ENDBRANCH   8  11
ENDBRANCH   6   7
ENDBRANCH   1   6
BRANCH   1  15
ATOM     15  N   UNK d   1      55.714   0.112  32.982  0.00  0.00    -0.347 N 
ATOM     16  H   UNK d   1      55.029   0.144  32.509  0.00  0.00     0.166 HD
BRANCH  15  17
ATOM     17  C   UNK d   0      55.752   0.526  33.698  0.00  0.00     0.073 C 
BRANCH  17  18
ATOM     18  C   UNK d   0      55.077   0.630  34.148  0.00  0.00     0.017 C 
ATOM     19  C   UNK d   0      55.131   0.682  34.969  0.00  0.00     0.002 C 
ATOM     20  C   UNK d   0      54.342   0.682  33.778  0.00  0.00     0.002 C 
ENDBRANCH  17  18
ENDBRANCH  15  17
ENDBRANCH   1  15
TORSDOF 9
ENDMDL
MODEL 4
REMARK VINA RESULT:      -2.7      2.150      3.872
REMARK  9 active torsions:
REMARK  status: ('A' for Active; 'I' for Inactive)
REMARK    1  A    between atoms: C_3  and  C_1 
REMARK    2  A    between atoms: C_4  and  C_1 
REMARK    3  A    between atoms: C_2  and  C_4 
REMARK    4  A    between atoms: O_9  and  C_2 
REMARK       I    between atoms: N_6  and  C_3 
REMARK    5  A    between atoms: N_5  and  C_4 
REMARK    6  A    between atoms: C_10  and  N_5 
REMARK    7  A    between atoms: C_11  and  N_6 
REMARK    8  A    between atoms: C_12  and  C_10 
REMARK    9  A    between atoms: C_13  and  C_11 
ROOT
ATOM      1  C   UNK d   1      58.344  -0.385  29.940  0.00  0.00     0.124 C 
ENDROOT
BRANCH   1   2
ATOM      2  C   UNK d   1      58.461   0.244  29.401  0.00  0.00     0.194 C 
ATOM      3  O   UNK d   1      59.152   0.681  29.421  0.00  0.00    -0.645 OA
BRANCH   2   4
ATOM      4  O   UNK d   1      57.872   0.427  28.839  0.00  0.00    -0.772 OA
ATOM      5  H   UNK d   1      57.578   1.198  28.787  0.00  0.00     0.167 HD
ENDBRANCH   2   4
ENDBRANCH   1   2
BRANCH   1   6
ATOM      6  C   UNK d   1      58.891  -0.999  29.985  0.00  0.00     0.084 C 
BRANCH   6   7
ATOM      7  C   UNK d   1      58.839  -1.627  29.462  0.00  0.00     0.259 C 
ATOM      8  N   UNK d   1      59.499  -2.103  29.329  0.00  0.00    -0.320 N 
ATOM      9  H   UNK d   1      60.218  -1.945  29.726  0.00  0.00     0.169 HD
ATOM     10  O   UNK d   1      58.124  -1.784  29.066  0.00  0.00    -0.267 OA
BRANCH   8  11
ATOM     11  C   UNK d   1      59.453  -2.736  28.802  0.00  0.00     0.075 C 
BRANCH  11  12
ATOM     12  C   UNK d   1      60.113  -3.223  28.670  0.00  0.00     0.017 C 
ATOM     13  C   UNK d   1      60.014  -4.018  28.470  0.00  0.00     0.002 C 
ATOM     14  C   UNK d   1      60.876  -2.907  28.739  0.00  0.00     0.002 C 
ENDBRANCH  11  12
ENDBRANCH   8  11
ENDBRANCH   6   7
ENDBRANCH   1   6
BRANCH   1  15
ATOM     15  N   UNK d   1      57.681  -0.395  30.429  0.00  0.00    -0.347 N 
ATOM     16  H   UNK d   1      56.970  -0.715  30.137  0.00  0.00     0.166 HD
BRANCH  15  17
ATOM     17  C   UNK d   0      57.723  -0.093  31.200  0.00  0.00     0.073 C 
BRANCH  17  18
ATOM     18  C   UNK d   0      57.052  -0.066  31.666  0.00  0.00     0.017 C 
ATOM     19  C   UNK d   0      56.725   0.660  31.879  0.00  0.00     0.002 C 
ATOM     20  C   UNK d   0      56.703  -0.767  31.923  0.00  0.00     0.002 C 
ENDBRANCH  17  18
ENDBRANCH  15  17
ENDBRANCH   1  15
TORSDOF 9
ENDMDL
MODEL 5
REMARK VINA RESULT:      -2.0      1.549      2.364
REMARK  9 active torsions:
REMARK  status: ('A' for Active; 'I' for Inactive)
REMARK    1  A    between atoms: C_3  and  C_1 
REMARK    2  A    between atoms: C_4  and  C_1 
REMARK    3  A    between atoms: C_2  and  C_4 
REMARK    4  A    between atoms: O_9  and  C_2 
REMARK       I    between atoms: N_6  and  C_3 
REMARK    5  A    between atoms: N_5  and  C_4 
REMARK    6  A    between atoms: C_10  and  N_5 
REMARK    7  A    between atoms: C_11  and  N_6 
REMARK    8  A    between atoms: C_12  and  C_10 
REMARK    9  A    between atoms: C_13  and  C_11 
ROOT
ATOM      1  C   UNK d   1      57.187  -0.100  31.564  0.00  0.00     0.124 C 
ENDROOT
BRANCH   1   2
ATOM      2  C   UNK d   1      56.996  -0.914  31.541  0.00  0.00     0.194 C 
ATOM      3  O   UNK d   1      56.259  -1.157  31.283  0.00  0.00    -0.645 OA
BRANCH   2   4
ATOM      4  O   UNK d   1      57.557  -1.481  31.783  0.00  0.00    -0.772 OA
ATOM      5  H   UNK d   1      57.898  -1.430  32.534  0.00  0.00     0.167 HD
ENDBRANCH   2   4
ENDBRANCH   1   2
BRANCH   1   6
ATOM      6  C   UNK d   1      56.696   0.431  31.960  0.00  0.00     0.084 C 
BRANCH   6   7
ATOM      7  C   UNK d   1      56.707   0.459  32.778  0.00  0.00     0.259 C 
ATOM      8  N   UNK d   1      56.018   0.647  33.190  0.00  0.00    -0.320 N 
ATOM      9  H   UNK d   1      55.310   0.807  32.773  0.00  0.00     0.169 HD
ATOM     10  O   UNK d   1      57.411   0.299  33.193  0.00  0.00    -0.267 OA
BRANCH   8  11
ATOM     11  C   UNK d   1      56.023   0.677  34.014  0.00  0.00     0.075 C 
BRANCH  11  12
ATOM     12  C   UNK d   1      55.310   0.662  34.441  0.00  0.00     0.017 C 
ATOM     13  C   UNK d   1      54.587   0.630  34.046  0.00  0.00     0.002 C 
ATOM     14  C   UNK d   1      55.328   0.680  35.269  0.00  0.00     0.002 C 
ENDBRANCH  11  12
ENDBRANCH   8  11
ENDBRANCH   6   7
ENDBRANCH   1   6
BRANCH   1  15
ATOM     15  N   UNK d   1      57.867   0.179  31.191  0.00  0.00    -0.347 N 
ATOM     16  H   UNK d   1      58.546   0.326  31.651  0.00  0.00     0.166 HD
BRANCH  15  17
ATOM     17  C   UNK d   0      57.874   0.310  30.373  0.00  0.00     0.073 C 
BRANCH  17  18
ATOM     18  C   UNK d   0      58.563   0.547  30.003  0.00  0.00     0.017 C 
ATOM     19  C   UNK d   0      59.247   0.674  30.445  0.00  0.00     0.002 C 
ATOM     20  C   UNK d   0      58.573   0.658  29.186  0.00  0.00     0.002 C 
ENDBRANCH  17  18
ENDBRANCH  15  17
ENDBRANCH   1  15
TORSDOF 9
ENDMDL
