MODEL 1
REMARK VINA RESULT:      86.1      0.000      0.000
REMARK  2 active torsions:
REMARK  status: ('A' for Active; 'I' for Inactive)
REMARK    1  A    between atoms: N_8  and  C_3 
REMARK    2  A    between atoms: C_7  and  N_9 
ROOT
ATOM      1  N   UNL d   1      56.874  49.375  53.865  0.00  0.00    -0.286 N 
ATOM      2  N   UNL d   1      56.946  49.256  52.201  0.00  0.00    -0.135 N 
ATOM      3  C   UNL d   1      57.554  49.118  53.475  0.00  0.00     0.101 A 
ATOM      4  C   UNL d   1      56.218  49.576  53.416  0.00  0.00     0.101 A 
ATOM      5  C   UNL d   1      56.224  49.527  52.588  0.00  0.00     0.117 A 
ATOM      6  C   UNL d   1      57.590  49.059  52.649  0.00  0.00     0.117 A 
ENDROOT
BRANCH   1   7
ATOM      7  C   UNL d   1      56.839  49.432  54.659  0.00  0.00     0.152 A 
ATOM      8  C   UNL d   1      57.518  49.515  55.120  0.00  0.00     0.059 A 
ATOM      9  C   UNL d   1      57.482  49.575  55.946  0.00  0.00     0.115 A 
ATOM     10  C   UNL d   1      58.296  49.555  54.900  0.00  0.00     0.011 A 
ATOM     11  S   UNL d   1      58.238  49.650  56.224  0.00  0.00    -0.068 SA
ATOM     12  N   UNL d   1      56.767  49.551  56.322  0.00  0.00    -0.217 NA
ATOM     13  C   UNL d   1      58.728  49.638  55.596  0.00  0.00     0.031 A 
ATOM     14  C   UNL d   1      59.566  49.701  55.628  0.00  0.00     0.007 C 
ATOM     15  C   UNL d   1      56.042  49.467  55.891  0.00  0.00     0.201 A 
ATOM     16  N   UNL d   1      56.079  49.405  55.033  0.00  0.00    -0.206 NA
ATOM     17  C   UNL d   1      58.639  49.520  54.112  0.00  0.00     0.001 C 
ENDBRANCH   1   7
BRANCH   2  18
ATOM     18  C   UNL d   1      56.947  49.206  51.335  0.00  0.00     0.735 A 
ATOM     19  N   UNL d   1      56.282  48.975  50.986  0.00  0.00    -0.059 NA
ATOM     20  C   UNL d   1      56.247  48.916  50.148  0.00  0.00     0.120 A 
ATOM     21  C   UNL d   1      56.909  49.101  49.713  0.00  0.00     0.043 A 
ATOM     22  C   UNL d   1      57.594  49.341  50.100  0.00  0.00     0.120 A 
ATOM     23  N   UNL d   1      57.628  49.397  50.900  0.00  0.00    -0.059 NA
ENDBRANCH   2  18
TORSDOF 2
ENDMDL
