MODEL 1
REMARK VINA RESULT:      -2.2      0.000      0.000
REMARK  3 active torsions:
REMARK  status: ('A' for Active; 'I' for Inactive)
REMARK    1  A    between atoms: C_12  and  N_3 
REMARK    2  A    between atoms: C_11  and  C_6 
REMARK    3  A    between atoms: C_22  and  C_12 
ROOT
ATOM      1  C   UNL d   1      30.666  16.651 -23.620  0.00  0.00     0.130 A 
ATOM      2  C   UNL d   1      30.411  17.300 -24.060  0.00  0.00     0.157 A 
ATOM      3  N   UNL d   1      32.019  17.110 -23.728  0.00  0.00    -0.256 N 
ATOM      4  C   UNL d   1      31.469  16.560 -23.457  0.00  0.00     0.272 A 
ATOM      5  N   UNL d   1      30.955  17.858 -24.337  0.00  0.00    -0.208 NA
ATOM      6  C   UNL d   1      31.757  17.769 -24.175  0.00  0.00     0.175 A 
ATOM      7  C   UNL d   1      30.125  16.100 -23.346  0.00  0.00     0.204 A 
ATOM      8  N   UNL d   1      29.605  17.400 -24.229  0.00  0.00    -0.289 N 
ATOM      9  C   UNL d   1      29.321  16.193 -23.511  0.00  0.00     0.055 A 
ATOM     10  C   UNL d   1      29.058  16.840 -23.951  0.00  0.00     0.069 A 
ATOM     11  O   UNL d   1      31.731  15.914 -23.017  0.00  0.00    -0.266 OA
ATOM     12  O   UNL d   1      30.383  15.453 -22.907  0.00  0.00    -0.286 OA
ATOM     13  C   UNL d   1      29.343  18.047 -24.669  0.00  0.00     0.101 C 
ATOM     14  C   UNL d   1      28.781  15.637 -23.234  0.00  0.00     0.005 A 
ATOM     15  C   UNL d   1      28.256  16.931 -24.114  0.00  0.00     0.018 A 
ATOM     16  C   UNL d   1      27.979  15.727 -23.397  0.00  0.00     0.000 A 
ATOM     17  C   UNL d   1      27.716  16.373 -23.836  0.00  0.00     0.002 A 
ENDROOT
BRANCH   6  18
ATOM     18  C   UNL d   1      32.310  18.326 -24.451  0.00  0.00     0.135 A 
ATOM     19  O   UNL d   1      32.410  19.034 -24.039  0.00  0.00    -0.302 OA
ATOM     20  C   UNL d   1      32.986  19.473 -24.435  0.00  0.00     0.123 A 
ATOM     21  C   UNL d   1      33.241  19.036 -25.089  0.00  0.00     0.029 A 
ATOM     22  C   UNL d   1      32.822  18.328 -25.097  0.00  0.00     0.030 A 
ENDBRANCH   6  18
BRANCH   3  23
ATOM     23  C   UNL d   1      32.827  17.018 -23.563  0.00  0.00     0.085 C 
BRANCH  23  24
ATOM     24  C   UNL d   1      33.081  16.400 -23.066  0.00  0.00     0.018 C 
ATOM     25  C   UNL d   1      33.241  15.642 -23.392  0.00  0.00     0.002 C 
ATOM     26  C   UNL d   1      33.179  16.531 -22.248  0.00  0.00     0.002 C 
ENDBRANCH  23  24
ENDBRANCH   3  23
TORSDOF 3
ENDMDL
MODEL 2
REMARK VINA RESULT:       0.6      4.262      6.072
REMARK  3 active torsions:
REMARK  status: ('A' for Active; 'I' for Inactive)
REMARK    1  A    between atoms: C_12  and  N_3 
REMARK    2  A    between atoms: C_11  and  C_6 
REMARK    3  A    between atoms: C_22  and  C_12 
ROOT
ATOM      1  C   UNL d   1      33.101  21.550 -21.209  0.00  0.00     0.130 A 
ATOM      2  C   UNL d   1      33.065  22.263 -21.623  0.00  0.00     0.157 A 
ATOM      3  N   UNL d   1      33.182  20.836 -22.448  0.00  0.00    -0.256 N 
ATOM      4  C   UNL d   1      33.160  20.842 -21.625  0.00  0.00     0.272 A 
ATOM      5  N   UNL d   1      33.086  22.269 -22.449  0.00  0.00    -0.208 NA
ATOM      6  C   UNL d   1      33.145  21.561 -22.866  0.00  0.00     0.175 A 
ATOM      7  C   UNL d   1      33.080  21.548 -20.390  0.00  0.00     0.204 A 
ATOM      8  N   UNL d   1      33.006  22.982 -21.213  0.00  0.00    -0.289 N 
ATOM      9  C   UNL d   1      33.021  22.260 -19.976  0.00  0.00     0.055 A 
ATOM     10  C   UNL d   1      32.984  22.977 -20.383  0.00  0.00     0.069 A 
ATOM     11  O   UNL d   1      33.197  20.125 -21.218  0.00  0.00    -0.266 OA
ATOM     12  O   UNL d   1      33.117  20.834 -19.980  0.00  0.00    -0.286 OA
ATOM     13  C   UNL d   1      32.969  23.699 -21.620  0.00  0.00     0.101 C 
ATOM     14  C   UNL d   1      33.000  22.252 -19.153  0.00  0.00     0.005 A 
ATOM     15  C   UNL d   1      32.926  23.685 -19.967  0.00  0.00     0.018 A 
ATOM     16  C   UNL d   1      32.942  22.960 -18.737  0.00  0.00     0.000 A 
ATOM     17  C   UNL d   1      32.904  23.676 -19.144  0.00  0.00     0.002 A 
ENDROOT
BRANCH   6  18
ATOM     18  C   UNL d   1      33.167  21.560 -23.698  0.00  0.00     0.135 A 
ATOM     19  O   UNL d   1      33.212  22.277 -24.102  0.00  0.00    -0.302 OA
ATOM     20  C   UNL d   1      33.226  22.108 -24.910  0.00  0.00     0.123 A 
ATOM     21  C   UNL d   1      33.188  21.287 -25.003  0.00  0.00     0.029 A 
ATOM     22  C   UNL d   1      33.152  20.951 -24.253  0.00  0.00     0.030 A 
ENDBRANCH   6  18
BRANCH   3  23
ATOM     23  C   UNL d   1      33.241  20.122 -22.866  0.00  0.00     0.085 C 
BRANCH  23  24
ATOM     24  C   UNL d   1      32.782  19.466 -22.635  0.00  0.00     0.018 C 
ATOM     25  C   UNL d   1      33.161  18.780 -22.331  0.00  0.00     0.002 C 
ATOM     26  C   UNL d   1      31.952  19.488 -22.702  0.00  0.00     0.002 C 
ENDBRANCH  23  24
ENDBRANCH   3  23
TORSDOF 3
ENDMDL
MODEL 3
REMARK VINA RESULT:       0.6      1.183      2.365
REMARK  3 active torsions:
REMARK  status: ('A' for Active; 'I' for Inactive)
REMARK    1  A    between atoms: C_12  and  N_3 
REMARK    2  A    between atoms: C_11  and  C_6 
REMARK    3  A    between atoms: C_22  and  C_12 
ROOT
ATOM      1  C   UNL d   1      30.050  17.419 -24.133  0.00  0.00     0.130 A 
ATOM      2  C   UNL d   1      30.078  16.622 -23.920  0.00  0.00     0.157 A 
ATOM      3  N   UNL d   1      31.424  17.357 -24.536  0.00  0.00    -0.256 N 
ATOM      4  C   UNL d   1      30.724  17.781 -24.440  0.00  0.00     0.272 A 
ATOM      5  N   UNL d   1      30.775  16.188 -24.012  0.00  0.00    -0.208 NA
ATOM      6  C   UNL d   1      31.449  16.548 -24.319  0.00  0.00     0.175 A 
ATOM      7  C   UNL d   1      29.358  17.846 -24.039  0.00  0.00     0.204 A 
ATOM      8  N   UNL d   1      29.405  16.249 -23.610  0.00  0.00    -0.289 N 
ATOM      9  C   UNL d   1      28.684  17.481 -23.731  0.00  0.00     0.055 A 
ATOM     10  C   UNL d   1      28.704  16.685 -23.516  0.00  0.00     0.069 A 
ATOM     11  O   UNL d   1      30.704  18.577 -24.655  0.00  0.00    -0.266 OA
ATOM     12  O   UNL d   1      29.334  18.642 -24.253  0.00  0.00    -0.286 OA
ATOM     13  C   UNL d   1      29.425  15.453 -23.394  0.00  0.00     0.101 C 
ATOM     14  C   UNL d   1      27.992  17.915 -23.640  0.00  0.00     0.005 A 
ATOM     15  C   UNL d   1      28.031  16.323 -23.210  0.00  0.00     0.018 A 
ATOM     16  C   UNL d   1      27.318  17.554 -23.333  0.00  0.00     0.000 A 
ATOM     17  C   UNL d   1      27.338  16.758 -23.118  0.00  0.00     0.002 A 
ENDROOT
BRANCH   6  18
ATOM     18  C   UNL d   1      32.154  16.117 -24.415  0.00  0.00     0.135 A 
ATOM     19  O   UNL d   1      32.574  15.875 -23.748  0.00  0.00    -0.302 OA
ATOM     20  C   UNL d   1      33.241  15.463 -24.008  0.00  0.00     0.123 A 
ATOM     21  C   UNL d   1      33.231  15.453 -24.835  0.00  0.00     0.029 A 
ATOM     22  C   UNL d   1      32.559  15.857 -25.084  0.00  0.00     0.030 A 
ENDBRANCH   6  18
BRANCH   3  23
ATOM     23  C   UNL d   1      32.101  17.723 -24.845  0.00  0.00     0.085 C 
BRANCH  23  24
ATOM     24  C   UNL d   1      32.338  18.468 -24.559  0.00  0.00     0.018 C 
ATOM     25  C   UNL d   1      32.427  19.110 -25.095  0.00  0.00     0.002 C 
ATOM     26  C   UNL d   1      32.487  18.580 -23.747  0.00  0.00     0.002 C 
ENDBRANCH  23  24
ENDBRANCH   3  23
TORSDOF 3
ENDMDL
