MODEL 1
REMARK VINA RESULT:      68.5      0.000      0.000
REMARK  8 active torsions:
REMARK  status: ('A' for Active; 'I' for Inactive)
REMARK    1  A    between atoms: C_6  and  N_1 
REMARK    2  A    between atoms: C_15  and  N_2 
REMARK    3  A    between atoms: C_8  and  C_3 
REMARK    4  A    between atoms: O_23  and  C_5 
REMARK    5  A    between atoms: C_7  and  O_9 
REMARK    6  A    between atoms: O_9  and  C_21 
REMARK    7  A    between atoms: C_20  and  C_15 
REMARK    8  A    between atoms: C_21  and  C_20 
ROOT
ATOM      1  C   UNL d   1     -54.951-101.876 -42.969  0.00  0.00     0.238 C 
ATOM      2  O   UNL d   1     -55.356-102.583 -42.836  0.00  0.00    -0.283 OA
ENDROOT
BRANCH   1   3
ATOM      3  C   UNL d   1     -54.778-101.371 -42.340  0.00  0.00     0.125 C 
BRANCH   3   4
ATOM      4  N   UNL d   1     -54.957-101.596 -41.559  0.00  0.00    -0.297 N 
ATOM      5  C   UNL d   1     -55.370-101.063 -41.077  0.00  0.00     0.100 A 
ATOM      6  C   UNL d   1     -55.553-101.275 -40.299  0.00  0.00     0.100 A 
ATOM      7  N   UNL d   1     -55.323-102.014 -40.010  0.00  0.00    -0.301 N 
ATOM      8  C   UNL d   1     -54.910-102.545 -40.496  0.00  0.00     0.100 A 
ATOM      9  C   UNL d   1     -54.725-102.330 -41.281  0.00  0.00     0.100 A 
BRANCH   7  10
ATOM     10  C   UNL d   1     -55.506-102.226 -39.234  0.00  0.00     0.064 A 
ATOM     11  C   UNL d   1     -54.911-102.475 -38.721  0.00  0.00     0.020 A 
ATOM     12  C   UNL d   1     -55.092-102.687 -37.942  0.00  0.00     0.031 A 
ATOM     13  C   UNL d   1     -55.872-102.647 -37.683  0.00  0.00     0.140 A 
ATOM     14  C   UNL d   1     -56.471-102.397 -38.199  0.00  0.00     0.031 A 
ATOM     15  F   UNL d   1     -56.055-102.858 -36.907  0.00  0.00    -0.204 F 
ATOM     16  C   UNL d   1     -56.281-102.188 -38.971  0.00  0.00     0.020 A 
ENDBRANCH   7  10
ENDBRANCH   3   4
ENDBRANCH   1   3
BRANCH   1  17
ATOM     17  C   UNL d   1     -54.713-101.667 -43.745  0.00  0.00     0.166 C 
BRANCH  17  18
ATOM     18  O   UNL d   1     -54.832-100.886 -44.026  0.00  0.00    -0.300 OA
BRANCH  18  19
ATOM     19  C   UNL d   1     -55.587-100.522 -44.014  0.00  0.00     0.122 A 
ATOM     20  C   UNL d   1     -55.701 -99.804 -44.385  0.00  0.00     0.117 A 
ATOM     21  C   UNL d   1     -56.438 -99.447 -44.375  0.00  0.00     0.029 A 
ATOM     22  C   UNL d   1     -57.068 -99.815 -43.988  0.00  0.00     0.041 A 
ATOM     23  C   UNL d   1     -56.954-100.534 -43.616  0.00  0.00     0.005 A 
ATOM     24  C   UNL d   1     -56.208-100.898 -43.626  0.00  0.00     0.027 A 
BRANCH  20  25
ATOM     25  O   UNL d   1     -55.074 -99.439 -44.770  0.00  0.00    -0.326 OA
ATOM     26  C   UNL d   1     -55.203 -99.024 -45.471  0.00  0.00     0.181 C 
ENDBRANCH  20  25
BRANCH  22  27
ATOM     27  C   UNL d   1     -57.811 -99.459 -43.976  0.00  0.00     0.196 C 
ATOM     28  O   UNL d   1     -58.181 -99.252 -44.684  0.00  0.00    -0.287 OA
ATOM     29  C   UNL d   1     -58.183 -99.309 -43.257  0.00  0.00     0.045 C 
ENDBRANCH  22  27
ENDBRANCH  18  19
ENDBRANCH  17  18
ENDBRANCH   1  17
TORSDOF 8
ENDMDL
MODEL 2
REMARK VINA RESULT:      69.8      1.102      1.743
REMARK  8 active torsions:
REMARK  status: ('A' for Active; 'I' for Inactive)
REMARK    1  A    between atoms: C_6  and  N_1 
REMARK    2  A    between atoms: C_15  and  N_2 
REMARK    3  A    between atoms: C_8  and  C_3 
REMARK    4  A    between atoms: O_23  and  C_5 
REMARK    5  A    between atoms: C_7  and  O_9 
REMARK    6  A    between atoms: O_9  and  C_21 
REMARK    7  A    between atoms: C_20  and  C_15 
REMARK    8  A    between atoms: C_21  and  C_20 
ROOT
ATOM      1  C   UNL d   1     -55.473-101.113 -44.172  0.00  0.00     0.238 C 
ATOM      2  O   UNL d   1     -56.144-100.983 -44.635  0.00  0.00    -0.283 OA
ENDROOT
BRANCH   1   3
ATOM      3  C   UNL d   1     -55.309-101.867 -43.881  0.00  0.00     0.125 C 
BRANCH   3   4
ATOM      4  N   UNL d   1     -55.342-102.019 -43.063  0.00  0.00    -0.297 N 
ATOM      5  C   UNL d   1     -54.711-101.767 -42.587  0.00  0.00     0.100 A 
ATOM      6  C   UNL d   1     -54.732-101.911 -41.774  0.00  0.00     0.100 A 
ATOM      7  N   UNL d   1     -55.380-102.304 -41.444  0.00  0.00    -0.301 N 
ATOM      8  C   UNL d   1     -56.009-102.554 -41.923  0.00  0.00     0.100 A 
ATOM      9  C   UNL d   1     -55.987-102.408 -42.745  0.00  0.00     0.100 A 
BRANCH   7  10
ATOM     10  C   UNL d   1     -55.401-102.448 -40.631  0.00  0.00     0.064 A 
ATOM     11  C   UNL d   1     -56.095-102.714 -40.276  0.00  0.00     0.020 A 
ATOM     12  C   UNL d   1     -56.118-102.859 -39.461  0.00  0.00     0.031 A 
ATOM     13  C   UNL d   1     -55.442-102.736 -39.009  0.00  0.00     0.140 A 
ATOM     14  C   UNL d   1     -54.743-102.468 -39.367  0.00  0.00     0.031 A 
ATOM     15  F   UNL d   1     -55.462-102.879 -38.197  0.00  0.00    -0.204 F 
ATOM     16  C   UNL d   1     -54.731-102.327 -40.176  0.00  0.00     0.020 A 
ENDBRANCH   7  10
ENDBRANCH   3   4
ENDBRANCH   1   3
BRANCH   1  17
ATOM     17  C   UNL d   1     -54.955-100.479 -43.995  0.00  0.00     0.166 C 
BRANCH  17  18
ATOM     18  O   UNL d   1     -55.256 -99.701 -43.906  0.00  0.00    -0.300 OA
BRANCH  18  19
ATOM     19  C   UNL d   1     -56.031 -99.497 -44.149  0.00  0.00     0.122 A 
ATOM     20  C   UNL d   1     -56.506 -99.042 -43.665  0.00  0.00     0.117 A 
ATOM     21  C   UNL d   1     -57.264 -98.842 -43.902  0.00  0.00     0.029 A 
ATOM     22  C   UNL d   1     -57.549 -99.100 -44.633  0.00  0.00     0.041 A 
ATOM     23  C   UNL d   1     -57.073 -99.555 -45.118  0.00  0.00     0.005 A 
ATOM     24  C   UNL d   1     -56.305 -99.760 -44.880  0.00  0.00     0.027 A 
BRANCH  20  25
ATOM     25  O   UNL d   1     -56.221 -98.786 -42.938  0.00  0.00    -0.326 OA
ATOM     26  C   UNL d   1     -56.660 -98.919 -42.252  0.00  0.00     0.181 C 
ENDBRANCH  20  25
BRANCH  22  27
ATOM     27  C   UNL d   1     -58.310 -98.900 -44.874  0.00  0.00     0.196 C 
ATOM     28  O   UNL d   1     -58.488 -98.844 -45.677  0.00  0.00    -0.287 OA
ATOM     29  C   UNL d   1     -58.893 -98.756 -44.312  0.00  0.00     0.045 C 
ENDBRANCH  22  27
ENDBRANCH  18  19
ENDBRANCH  17  18
ENDBRANCH   1  17
TORSDOF 8
ENDMDL
