MODEL 1
REMARK VINA RESULT:      -6.0      0.000      0.000
REMARK  4 active torsions:
REMARK  status: ('A' for Active; 'I' for Inactive)
REMARK    1  A    between atoms: N_9  and  C_1 
REMARK    2  A    between atoms: C_5  and  O_12 
REMARK    3  A    between atoms: C_13  and  N_9 
REMARK    4  A    between atoms: O_12  and  C_17 
ROOT
ATOM      1  C   UNL d   1     -41.152-122.590 -51.730  0.00  0.00     0.083 A 
ATOM      2  C   UNL d   1     -41.147-122.693 -53.379  0.00  0.00     0.102 A 
ATOM      3  C   UNL d   1     -41.177-121.893 -52.188  0.00  0.00     0.021 A 
ATOM      4  C   UNL d   1     -41.124-123.330 -52.091  0.00  0.00     0.021 A 
ATOM      5  C   UNL d   1     -41.175-121.948 -53.010  0.00  0.00     0.026 A 
ATOM      6  C   UNL d   1     -41.122-123.378 -52.919  0.00  0.00     0.026 A 
ENDROOT
BRANCH   1   7
ATOM      7  N   UNL d   1     -41.154-122.531 -50.901  0.00  0.00    -0.227 NA
BRANCH   7   8
ATOM      8  C   UNL d   1     -41.864-122.610 -50.486  0.00  0.00     0.169 A 
ATOM      9  C   UNL d   1     -41.883-123.011 -49.815  0.00  0.00     0.094 A 
ATOM     10  C   UNL d   1     -42.564-123.082 -49.425  0.00  0.00     0.190 A 
ATOM     11  C   UNL d   1     -41.254-123.747 -48.854  0.00  0.00     0.128 A 
ATOM     12  N   UNL d   1     -42.576-123.487 -48.751  0.00  0.00    -0.128 NA
ATOM     13  N   UNL d   1     -43.211-122.760 -49.698  0.00  0.00    -0.203 NA
ATOM     14  N   UNL d   1     -41.935-123.817 -48.464  0.00  0.00    -0.145 NA
ATOM     15  C   UNL d   1     -43.198-122.354 -50.371  0.00  0.00     0.202 A 
ATOM     16  N   UNL d   1     -42.521-122.279 -50.767  0.00  0.00    -0.205 NA
ENDBRANCH   7   8
ENDBRANCH   1   7
BRANCH   2  17
ATOM     17  O   UNL d   1     -41.145-122.747 -54.201  0.00  0.00    -0.253 OA
BRANCH  17  18
ATOM     18  C   UNL d   1     -41.822-122.535 -54.625  0.00  0.00     0.530 C 
ATOM     19  F   UNL d   1     -41.864-121.802 -55.009  0.00  0.00    -0.144 F 
ATOM     20  F   UNL d   1     -42.457-123.058 -54.665  0.00  0.00    -0.144 F 
ATOM     21  F   UNL d   1     -42.849-122.220 -55.266  0.00  0.00    -0.144 F 
ENDBRANCH  17  18
ENDBRANCH   2  17
TORSDOF 4
ENDMDL
MODEL 2
REMARK VINA RESULT:      -5.3      3.238      4.643
REMARK  4 active torsions:
REMARK  status: ('A' for Active; 'I' for Inactive)
REMARK    1  A    between atoms: N_9  and  C_1 
REMARK    2  A    between atoms: C_5  and  O_12 
REMARK    3  A    between atoms: C_13  and  N_9 
REMARK    4  A    between atoms: O_12  and  C_17 
ROOT
ATOM      1  C   UNL d   1     -41.485-122.508 -51.488  0.00  0.00     0.083 A 
ATOM      2  C   UNL d   1     -42.064-123.051 -50.038  0.00  0.00     0.102 A 
ATOM      3  C   UNL d   1     -42.139-122.129 -51.135  0.00  0.00     0.021 A 
ATOM      4  C   UNL d   1     -41.124-123.151 -51.121  0.00  0.00     0.021 A 
ATOM      5  C   UNL d   1     -42.425-122.402 -50.412  0.00  0.00     0.026 A 
ATOM      6  C   UNL d   1     -41.417-123.421 -50.394  0.00  0.00     0.026 A 
ENDROOT
BRANCH   1   7
ATOM      7  N   UNL d   1     -41.199-122.229 -52.217  0.00  0.00    -0.227 NA
BRANCH   7   8
ATOM      8  C   UNL d   1     -41.355-122.653 -52.908  0.00  0.00     0.169 A 
ATOM      9  C   UNL d   1     -41.705-122.302 -53.512  0.00  0.00     0.094 A 
ATOM     10  C   UNL d   1     -41.851-122.714 -54.169  0.00  0.00     0.190 A 
ATOM     11  C   UNL d   1     -42.263-121.195 -54.081  0.00  0.00     0.128 A 
ATOM     12  N   UNL d   1     -42.203-122.354 -54.773  0.00  0.00    -0.128 NA
ATOM     13  N   UNL d   1     -41.652-123.458 -54.221  0.00  0.00    -0.203 NA
ATOM     14  N   UNL d   1     -42.409-121.606 -54.737  0.00  0.00    -0.145 NA
ATOM     15  C   UNL d   1     -41.299-123.817 -53.616  0.00  0.00     0.202 A 
ATOM     16  N   UNL d   1     -41.150-123.413 -52.957  0.00  0.00    -0.205 NA
ENDBRANCH   7   8
ENDBRANCH   1   7
BRANCH   2  17
ATOM     17  O   UNL d   1     -42.350-123.324 -49.316  0.00  0.00    -0.253 OA
BRANCH  17  18
ATOM     18  C   UNL d   1     -41.996-123.069 -48.615  0.00  0.00     0.530 C 
ATOM     19  F   UNL d   1     -42.347-122.471 -48.160  0.00  0.00    -0.144 F 
ATOM     20  F   UNL d   1     -41.289-123.413 -48.368  0.00  0.00    -0.144 F 
ATOM     21  F   UNL d   1     -41.455-122.686 -47.554  0.00  0.00    -0.144 F 
ENDBRANCH  17  18
ENDBRANCH   2  17
TORSDOF 4
ENDMDL
MODEL 3
REMARK VINA RESULT:      -4.8      3.028      4.507
REMARK  4 active torsions:
REMARK  status: ('A' for Active; 'I' for Inactive)
REMARK    1  A    between atoms: N_9  and  C_1 
REMARK    2  A    between atoms: C_5  and  O_12 
REMARK    3  A    between atoms: C_13  and  N_9 
REMARK    4  A    between atoms: O_12  and  C_17 
ROOT
ATOM      1  C   UNL d   1     -41.213-122.698 -52.454  0.00  0.00     0.083 A 
ATOM      2  C   UNL d   1     -41.385-123.094 -50.858  0.00  0.00     0.102 A 
ATOM      3  C   UNL d   1     -41.124-122.110 -51.869  0.00  0.00     0.021 A 
ATOM      4  C   UNL d   1     -41.386-123.476 -52.243  0.00  0.00     0.021 A 
ATOM      5  C   UNL d   1     -41.210-122.310 -51.075  0.00  0.00     0.026 A 
ATOM      6  C   UNL d   1     -41.472-123.671 -51.442  0.00  0.00     0.026 A 
ENDROOT
BRANCH   1   7
ATOM      7  N   UNL d   1     -41.125-122.492 -53.254  0.00  0.00    -0.227 NA
BRANCH   7   8
ATOM      8  C   UNL d   1     -41.769-122.190 -53.673  0.00  0.00     0.169 A 
ATOM      9  C   UNL d   1     -41.758-122.177 -54.454  0.00  0.00     0.094 A 
ATOM     10  C   UNL d   1     -42.376-121.886 -54.847  0.00  0.00     0.190 A 
ATOM     11  C   UNL d   1     -41.127-122.435 -55.636  0.00  0.00     0.128 A 
ATOM     12  N   UNL d   1     -42.357-121.876 -55.633  0.00  0.00    -0.128 NA
ATOM     13  N   UNL d   1     -42.992-121.615 -54.469  0.00  0.00    -0.203 NA
ATOM     14  N   UNL d   1     -41.745-122.145 -56.029  0.00  0.00    -0.145 NA
ATOM     15  C   UNL d   1     -43.011-121.625 -53.683  0.00  0.00     0.202 A 
ATOM     16  N   UNL d   1     -42.396-121.914 -53.283  0.00  0.00    -0.205 NA
ENDBRANCH   7   8
ENDBRANCH   1   7
BRANCH   2  17
ATOM     17  O   UNL d   1     -41.471-123.294 -50.063  0.00  0.00    -0.253 OA
BRANCH  17  18
ATOM     18  C   UNL d   1     -42.161-123.079 -49.662  0.00  0.00     0.530 C 
ATOM     19  F   UNL d   1     -42.803-123.600 -49.622  0.00  0.00    -0.144 F 
ATOM     20  F   UNL d   1     -42.206-122.341 -49.300  0.00  0.00    -0.144 F 
ATOM     21  F   UNL d   1     -43.202-122.748 -49.053  0.00  0.00    -0.144 F 
ENDBRANCH  17  18
ENDBRANCH   2  17
TORSDOF 4
ENDMDL
MODEL 4
REMARK VINA RESULT:      -4.4      0.993      1.645
REMARK  4 active torsions:
REMARK  status: ('A' for Active; 'I' for Inactive)
REMARK    1  A    between atoms: N_9  and  C_1 
REMARK    2  A    between atoms: C_5  and  O_12 
REMARK    3  A    between atoms: C_13  and  N_9 
REMARK    4  A    between atoms: O_12  and  C_17 
ROOT
ATOM      1  C   UNL d   1     -41.713-122.146 -52.713  0.00  0.00     0.083 A 
ATOM      2  C   UNL d   1     -41.940-122.469 -54.318  0.00  0.00     0.102 A 
ATOM      3  C   UNL d   1     -41.123-122.551 -53.141  0.00  0.00     0.021 A 
ATOM      4  C   UNL d   1     -42.409-121.905 -53.083  0.00  0.00     0.021 A 
ATOM      5  C   UNL d   1     -41.239-122.711 -53.941  0.00  0.00     0.026 A 
ATOM      6  C   UNL d   1     -42.520-122.068 -53.888  0.00  0.00     0.026 A 
ENDROOT
BRANCH   1   7
ATOM      7  N   UNL d   1     -41.592-121.987 -51.907  0.00  0.00    -0.227 NA
BRANCH   7   8
ATOM      8  C   UNL d   1     -41.599-122.606 -51.360  0.00  0.00     0.169 A 
ATOM      9  C   UNL d   1     -42.074-122.578 -50.741  0.00  0.00     0.094 A 
ATOM     10  C   UNL d   1     -42.075-123.173 -50.224  0.00  0.00     0.190 A 
ATOM     11  C   UNL d   1     -43.028-121.938 -50.006  0.00  0.00     0.128 A 
ATOM     12  N   UNL d   1     -42.556-123.138 -49.603  0.00  0.00    -0.128 NA
ATOM     13  N   UNL d   1     -41.610-123.782 -50.324  0.00  0.00    -0.203 NA
ATOM     14  N   UNL d   1     -43.029-122.533 -49.489  0.00  0.00    -0.145 NA
ATOM     15  C   UNL d   1     -41.129-123.817 -50.944  0.00  0.00     0.202 A 
ATOM     16  N   UNL d   1     -41.123-123.226 -51.466  0.00  0.00    -0.205 NA
ENDBRANCH   7   8
ENDBRANCH   1   7
BRANCH   2  17
ATOM     17  O   UNL d   1     -42.056-122.629 -55.118  0.00  0.00    -0.253 OA
BRANCH  17  18
ATOM     18  C   UNL d   1     -42.115-122.003 -55.654  0.00  0.00     0.530 C 
ATOM     19  F   UNL d   1     -41.433-121.644 -55.957  0.00  0.00    -0.144 F 
ATOM     20  F   UNL d   1     -42.859-121.736 -55.887  0.00  0.00    -0.144 F 
ATOM     21  F   UNL d   1     -42.211-121.055 -56.465  0.00  0.00    -0.144 F 
ENDBRANCH  17  18
ENDBRANCH   2  17
TORSDOF 4
ENDMDL
MODEL 5
REMARK VINA RESULT:      -3.4      1.151      1.635
REMARK  4 active torsions:
REMARK  status: ('A' for Active; 'I' for Inactive)
REMARK    1  A    between atoms: N_9  and  C_1 
REMARK    2  A    between atoms: C_5  and  O_12 
REMARK    3  A    between atoms: C_13  and  N_9 
REMARK    4  A    between atoms: O_12  and  C_17 
ROOT
ATOM      1  C   UNL d   1     -41.201-122.963 -50.329  0.00  0.00     0.083 A 
ATOM      2  C   UNL d   1     -41.149-122.730 -51.964  0.00  0.00     0.102 A 
ATOM      3  C   UNL d   1     -41.151-123.621 -50.839  0.00  0.00     0.021 A 
ATOM      4  C   UNL d   1     -41.224-122.197 -50.632  0.00  0.00     0.021 A 
ATOM      5  C   UNL d   1     -41.125-123.502 -51.654  0.00  0.00     0.026 A 
ATOM      6  C   UNL d   1     -41.198-122.084 -51.452  0.00  0.00     0.026 A 
ENDROOT
BRANCH   1   7
ATOM      7  N   UNL d   1     -41.227-123.087 -49.507  0.00  0.00    -0.227 NA
BRANCH   7   8
ATOM      8  C   UNL d   1     -41.943-123.277 -49.143  0.00  0.00     0.169 A 
ATOM      9  C   UNL d   1     -41.993-123.301 -48.364  0.00  0.00     0.094 A 
ATOM     10  C   UNL d   1     -42.680-123.483 -48.024  0.00  0.00     0.190 A 
ATOM     11  C   UNL d   1     -41.417-123.171 -47.134  0.00  0.00     0.128 A 
ATOM     12  N   UNL d   1     -42.722-123.505 -47.239  0.00  0.00    -0.128 NA
ATOM     13  N   UNL d   1     -43.304-123.637 -48.452  0.00  0.00    -0.203 NA
ATOM     14  N   UNL d   1     -42.105-123.352 -46.794  0.00  0.00    -0.145 NA
ATOM     15  C   UNL d   1     -43.261-123.615 -49.237  0.00  0.00     0.202 A 
ATOM     16  N   UNL d   1     -42.578-123.434 -49.584  0.00  0.00    -0.205 NA
ENDBRANCH   7   8
ENDBRANCH   1   7
BRANCH   2  17
ATOM     17  O   UNL d   1     -41.123-122.611 -52.779  0.00  0.00    -0.253 OA
BRANCH  17  18
ATOM     18  C   UNL d   1     -41.828-122.547 -53.204  0.00  0.00     0.530 C 
ATOM     19  F   UNL d   1     -42.013-121.849 -53.609  0.00  0.00    -0.144 F 
ATOM     20  F   UNL d   1     -42.350-123.185 -53.222  0.00  0.00    -0.144 F 
ATOM     21  F   UNL d   1     -42.899-122.457 -53.845  0.00  0.00    -0.144 F 
ENDBRANCH  17  18
ENDBRANCH   2  17
TORSDOF 4
ENDMDL
