MODEL 1
REMARK VINA RESULT:      -2.5      0.000      0.000
REMARK  5 active torsions:
REMARK  status: ('A' for Active; 'I' for Inactive)
REMARK    1  A    between atoms: C_10  and  C_3 
REMARK    2  A    between atoms: C_11  and  N_5 
REMARK    3  A    between atoms: O_17  and  C_10 
REMARK    4  A    between atoms: C_22  and  O_17 
REMARK    5  A    between atoms: O_21  and  C_18 
ROOT
ATOM      1  C   UNL d   1      58.352  -1.608  29.656  0.00  0.00     0.086 A 
ATOM      2  C   UNL d   1      58.930  -1.073  29.424  0.00  0.00     0.038 A 
ATOM      3  C   UNL d   1      59.000  -0.332  29.787  0.00  0.00     0.165 A 
ATOM      4  C   UNL d   1      57.828  -1.404  30.265  0.00  0.00     0.282 A 
ATOM      5  N   UNL d   1      57.888  -0.671  30.634  0.00  0.00    -0.194 N 
ATOM      6  N   UNL d   1      58.473  -0.137  30.394  0.00  0.00    -0.157 NA
ATOM      7  C   UNL d   1      58.429  -2.287  29.190  0.00  0.00     0.137 A 
ATOM      8  C   UNL d   1      59.370  -1.413  28.814  0.00  0.00     0.039 A 
ATOM      9  S   UNL d   1      59.057  -2.165  28.672  0.00  0.00    -0.066 SA
ATOM     10  O   UNL d   1      57.247  -1.933  30.504  0.00  0.00    -0.265 OA
ATOM     11  N   UNL d   1      57.957  -2.966  29.239  0.00  0.00    -0.141 N 
ENDROOT
BRANCH   5  12
ATOM     12  C   UNL d   1      57.367  -0.469  31.239  0.00  0.00     0.086 A 
ATOM     13  C   UNL d   1      57.008   0.279  31.249  0.00  0.00     0.021 A 
ATOM     14  C   UNL d   1      56.488   0.476  31.858  0.00  0.00     0.026 A 
ATOM     15  C   UNL d   1      56.323  -0.066  32.455  0.00  0.00     0.094 A 
ATOM     16  C   UNL d   1      56.682  -0.813  32.446  0.00  0.00     0.026 A 
ATOM     17  C   UNL d   1      57.204  -1.009  31.833  0.00  0.00     0.021 A 
BRANCH  15  18
ATOM     18  O   UNL d   1      55.803   0.139  33.058  0.00  0.00    -0.328 OA
ATOM     19  C   UNL d   1      55.187  -0.378  33.265  0.00  0.00     0.181 C 
ENDBRANCH  15  18
ENDBRANCH   5  12
BRANCH   3  20
ATOM     20  C   UNL d   1      59.581   0.201  29.550  0.00  0.00     0.320 C 
ATOM     21  O   UNL d   1      59.792   0.255  28.751  0.00  0.00    -0.257 OA
BRANCH  20  22
ATOM     22  O   UNL d   1      59.954   0.682  30.111  0.00  0.00    -0.270 OA
BRANCH  22  23
ATOM     23  C   UNL d   1      60.772   0.676  30.178  0.00  0.00     0.126 C 
ATOM     24  C   UNL d   1      61.133   0.495  30.897  0.00  0.00     0.029 C 
ENDBRANCH  22  23
ENDBRANCH  20  22
ENDBRANCH   3  20
TORSDOF 5
ENDMDL
MODEL 2
REMARK VINA RESULT:      -0.7      9.144      9.439
REMARK  5 active torsions:
REMARK  status: ('A' for Active; 'I' for Inactive)
REMARK    1  A    between atoms: C_10  and  C_3 
REMARK    2  A    between atoms: C_11  and  N_5 
REMARK    3  A    between atoms: O_17  and  C_10 
REMARK    4  A    between atoms: C_22  and  O_17 
REMARK    5  A    between atoms: O_21  and  C_18 
ROOT
ATOM      1  C   UNL d   1      57.992  -9.725  31.135  0.00  0.00     0.086 A 
ATOM      2  C   UNL d   1      58.440  -9.695  30.448  0.00  0.00     0.038 A 
ATOM      3  C   UNL d   1      59.266  -9.649  30.476  0.00  0.00     0.165 A 
ATOM      4  C   UNL d   1      58.372  -9.708  31.872  0.00  0.00     0.282 A 
ATOM      5  N   UNL d   1      59.192  -9.662  31.913  0.00  0.00    -0.194 N 
ATOM      6  N   UNL d   1      59.638  -9.632  31.216  0.00  0.00    -0.157 NA
ATOM      7  C   UNL d   1      57.194  -9.768  30.920  0.00  0.00     0.137 A 
ATOM      8  C   UNL d   1      57.928  -9.720  29.802  0.00  0.00     0.039 A 
ATOM      9  S   UNL d   1      57.157  -9.765  30.098  0.00  0.00    -0.066 SA
ATOM     10  O   UNL d   1      57.932  -9.738  32.565  0.00  0.00    -0.265 OA
ATOM     11  N   UNL d   1      56.552  -9.808  31.441  0.00  0.00    -0.141 N 
ENDROOT
BRANCH   5  12
ATOM     12  C   UNL d   1      59.570  -9.646  32.645  0.00  0.00     0.086 A 
ATOM     13  C   UNL d   1      59.146  -9.817  33.337  0.00  0.00     0.021 A 
ATOM     14  C   UNL d   1      59.529  -9.799  34.067  0.00  0.00     0.026 A 
ATOM     15  C   UNL d   1      60.330  -9.612  34.111  0.00  0.00     0.094 A 
ATOM     16  C   UNL d   1      60.754  -9.441  33.420  0.00  0.00     0.026 A 
ATOM     17  C   UNL d   1      60.367  -9.460  32.687  0.00  0.00     0.021 A 
BRANCH  15  18
ATOM     18  O   UNL d   1      60.704  -9.596  34.843  0.00  0.00    -0.328 OA
ATOM     19  C   UNL d   1      60.379  -9.151  35.465  0.00  0.00     0.181 C 
ENDBRANCH  15  18
ENDBRANCH   5  12
BRANCH   3  20
ATOM     20  C   UNL d   1      59.711  -9.619  29.784  0.00  0.00     0.320 C 
ATOM     21  O   UNL d   1      59.363  -9.818  29.059  0.00  0.00    -0.257 OA
BRANCH  20  22
ATOM     22  O   UNL d   1      60.506  -9.391  29.813  0.00  0.00    -0.270 OA
BRANCH  22  23
ATOM     23  C   UNL d   1      61.026  -9.640  29.229  0.00  0.00     0.126 C 
ATOM     24  C   UNL d   1      61.103  -9.216  28.527  0.00  0.00     0.029 C 
ENDBRANCH  22  23
ENDBRANCH  20  22
ENDBRANCH   3  20
TORSDOF 5
ENDMDL
MODEL 3
REMARK VINA RESULT:      -0.7      1.486      1.709
REMARK  5 active torsions:
REMARK  status: ('A' for Active; 'I' for Inactive)
REMARK    1  A    between atoms: C_10  and  C_3 
REMARK    2  A    between atoms: C_11  and  N_5 
REMARK    3  A    between atoms: O_17  and  C_10 
REMARK    4  A    between atoms: C_22  and  O_17 
REMARK    5  A    between atoms: O_21  and  C_18 
ROOT
ATOM      1  C   UNL d   1      58.022   0.223  29.619  0.00  0.00     0.086 A 
ATOM      2  C   UNL d   1      58.817   0.045  29.722  0.00  0.00     0.038 A 
ATOM      3  C   UNL d   1      59.110  -0.206  30.455  0.00  0.00     0.165 A 
ATOM      4  C   UNL d   1      57.502   0.152  30.261  0.00  0.00     0.282 A 
ATOM      5  N   UNL d   1      57.780  -0.097  30.994  0.00  0.00    -0.194 N 
ATOM      6  N   UNL d   1      58.583  -0.275  31.090  0.00  0.00    -0.157 NA
ATOM      7  C   UNL d   1      57.911   0.454  28.833  0.00  0.00     0.137 A 
ATOM      8  C   UNL d   1      59.205   0.162  29.004  0.00  0.00     0.039 A 
ATOM      9  S   UNL d   1      58.641   0.415  28.456  0.00  0.00    -0.066 SA
ATOM     10  O   UNL d   1      56.705   0.328  30.168  0.00  0.00    -0.265 OA
ATOM     11  N   UNL d   1      57.192   0.682  28.491  0.00  0.00    -0.141 N 
ENDROOT
BRANCH   5  12
ATOM     12  C   UNL d   1      57.263  -0.168  31.631  0.00  0.00     0.086 A 
ATOM     13  C   UNL d   1      57.045   0.503  32.068  0.00  0.00     0.021 A 
ATOM     14  C   UNL d   1      56.526   0.426  32.705  0.00  0.00     0.026 A 
ATOM     15  C   UNL d   1      56.225  -0.313  32.908  0.00  0.00     0.094 A 
ATOM     16  C   UNL d   1      56.443  -0.983  32.471  0.00  0.00     0.026 A 
ATOM     17  C   UNL d   1      56.964  -0.904  31.832  0.00  0.00     0.021 A 
BRANCH  15  18
ATOM     18  O   UNL d   1      55.709  -0.381  33.544  0.00  0.00    -0.328 OA
ATOM     19  C   UNL d   1      55.363   0.300  33.872  0.00  0.00     0.181 C 
ENDBRANCH  15  18
ENDBRANCH   5  12
BRANCH   3  20
ATOM     20  C   UNL d   1      59.907  -0.384  30.553  0.00  0.00     0.320 C 
ATOM     21  O   UNL d   1      60.402   0.142  30.959  0.00  0.00    -0.257 OA
BRANCH  20  22
ATOM     22  O   UNL d   1      60.215  -1.089  30.246  0.00  0.00    -0.270 OA
BRANCH  22  23
ATOM     23  C   UNL d   1      60.916  -1.079  29.819  0.00  0.00     0.126 C 
ATOM     24  C   UNL d   1      61.133  -1.723  29.353  0.00  0.00     0.029 C 
ENDBRANCH  22  23
ENDBRANCH  20  22
ENDBRANCH   3  20
TORSDOF 5
ENDMDL
MODEL 4
REMARK VINA RESULT:       0.2      2.501      5.290
REMARK  5 active torsions:
REMARK  status: ('A' for Active; 'I' for Inactive)
REMARK    1  A    between atoms: C_10  and  C_3 
REMARK    2  A    between atoms: C_11  and  N_5 
REMARK    3  A    between atoms: O_17  and  C_10 
REMARK    4  A    between atoms: C_22  and  O_17 
REMARK    5  A    between atoms: O_21  and  C_18 
ROOT
ATOM      1  C   UNL d   1      57.009   0.432  34.235  0.00  0.00     0.086 A 
ATOM      2  C   UNL d   1      56.201   0.289  34.240  0.00  0.00     0.038 A 
ATOM      3  C   UNL d   1      55.782   0.168  33.536  0.00  0.00     0.165 A 
ATOM      4  C   UNL d   1      57.415   0.456  33.512  0.00  0.00     0.282 A 
ATOM      5  N   UNL d   1      57.010   0.338  32.806  0.00  0.00    -0.194 N 
ATOM      6  N   UNL d   1      56.195   0.194  32.819  0.00  0.00    -0.157 NA
ATOM      7  C   UNL d   1      57.258   0.528  35.018  0.00  0.00     0.137 A 
ATOM      8  C   UNL d   1      55.940   0.295  35.022  0.00  0.00     0.039 A 
ATOM      9  S   UNL d   1      56.597   0.443  35.501  0.00  0.00    -0.066 SA
ATOM     10  O   UNL d   1      58.224   0.599  33.497  0.00  0.00    -0.265 OA
ATOM     11  N   UNL d   1      58.032   0.682  35.266  0.00  0.00    -0.141 N 
ENDROOT
BRANCH   5  12
ATOM     12  C   UNL d   1      57.413   0.362  32.088  0.00  0.00     0.086 A 
ATOM     13  C   UNL d   1      57.047   0.091  31.394  0.00  0.00     0.021 A 
ATOM     14  C   UNL d   1      57.456   0.117  30.678  0.00  0.00     0.026 A 
ATOM     15  C   UNL d   1      58.225   0.411  30.650  0.00  0.00     0.094 A 
ATOM     16  C   UNL d   1      58.591   0.681  31.343  0.00  0.00     0.026 A 
ATOM     17  C   UNL d   1      58.178   0.654  32.061  0.00  0.00     0.021 A 
BRANCH  15  18
ATOM     18  O   UNL d   1      58.625   0.434  29.932  0.00  0.00    -0.328 OA
ATOM     19  C   UNL d   1      58.823  -0.275  29.547  0.00  0.00     0.181 C 
ENDBRANCH  15  18
ENDBRANCH   5  12
BRANCH   3  20
ATOM     20  C   UNL d   1      54.971   0.025  33.546  0.00  0.00     0.320 C 
ATOM     21  O   UNL d   1      54.687  -0.751  33.486  0.00  0.00    -0.257 OA
BRANCH  20  22
ATOM     22  O   UNL d   1      54.441   0.657  33.616  0.00  0.00    -0.270 OA
BRANCH  22  23
ATOM     23  C   UNL d   1      53.632   0.515  33.611  0.00  0.00     0.126 C 
ATOM     24  C   UNL d   1      53.173   0.682  34.275  0.00  0.00     0.029 C 
ENDBRANCH  22  23
ENDBRANCH  20  22
ENDBRANCH   3  20
TORSDOF 5
ENDMDL
