MODEL 1
REMARK VINA RESULT:      -5.1      0.000      0.000
REMARK  4 active torsions:
REMARK  status: ('A' for Active; 'I' for Inactive)
REMARK    1  A    between atoms: C_5  and  N_1 
REMARK    2  A    between atoms: C_7  and  C_5 
REMARK    3  A    between atoms: O_10  and  C_8 
REMARK    4  A    between atoms: C_14  and  O_10 
ROOT
ATOM      1  C   UNL d   1      56.619   0.503  32.211  0.00  0.00     0.087 C 
ENDROOT
BRANCH   1   2
ATOM      2  N   UNL d   1      57.421   0.567  32.061  0.00  0.00    -0.251 N 
ATOM      3  C   UNL d   1      58.053   0.626  32.603  0.00  0.00     0.378 A 
ATOM      4  O   UNL d   1      58.762   0.678  32.170  0.00  0.00    -0.258 OA
ATOM      5  O   UNL d   1      57.984   0.632  33.425  0.00  0.00    -0.237 OA
ATOM      6  C   UNL d   1      58.576   0.651  31.366  0.00  0.00     0.121 A 
ATOM      7  C   UNL d   1      57.752   0.583  31.298  0.00  0.00     0.092 A 
ATOM      8  C   UNL d   1      59.042   0.679  30.676  0.00  0.00     0.026 A 
ATOM      9  C   UNL d   1      57.399   0.543  30.547  0.00  0.00     0.020 A 
ATOM     10  C   UNL d   1      57.865   0.571  29.869  0.00  0.00     0.002 A 
ATOM     11  C   UNL d   1      58.689   0.640  29.934  0.00  0.00     0.002 A 
ENDBRANCH   1   2
BRANCH   1  12
ATOM     12  C   UNL d   1      56.305  -0.188  32.528  0.00  0.00     0.041 A 
ATOM     13  C   UNL d   1      55.695  -0.153  33.073  0.00  0.00     0.101 A 
ATOM     14  C   UNL d   1      55.383  -0.843  33.389  0.00  0.00     0.025 A 
ATOM     15  C   UNL d   1      55.687  -1.576  33.155  0.00  0.00     0.002 A 
ATOM     16  C   UNL d   1      56.303  -1.616  32.606  0.00  0.00     0.000 A 
ATOM     17  C   UNL d   1      56.613  -0.921  32.291  0.00  0.00     0.004 A 
BRANCH  13  18
ATOM     18  O   UNL d   1      55.391   0.579  33.307  0.00  0.00    -0.307 OA
BRANCH  18  19
ATOM     19  C   UNL d   1      54.860   0.622  33.940  0.00  0.00     0.100 C 
ATOM     20  C   UNL d   1      54.053   0.682  33.799  0.00  0.00     0.027 C 
ATOM     21  C   UNL d   1      55.143   0.605  34.714  0.00  0.00     0.027 C 
ENDBRANCH  18  19
ENDBRANCH  13  18
ENDBRANCH   1  12
TORSDOF 4
ENDMDL
MODEL 2
REMARK VINA RESULT:      -4.4      0.967      1.423
REMARK  4 active torsions:
REMARK  status: ('A' for Active; 'I' for Inactive)
REMARK    1  A    between atoms: C_5  and  N_1 
REMARK    2  A    between atoms: C_7  and  C_5 
REMARK    3  A    between atoms: O_10  and  C_8 
REMARK    4  A    between atoms: C_14  and  O_10 
ROOT
ATOM      1  C   UNL d   1      56.890   0.638  32.031  0.00  0.00     0.087 C 
ENDROOT
BRANCH   1   2
ATOM      2  N   UNL d   1      57.467   0.620  31.451  0.00  0.00    -0.251 N 
ATOM      3  C   UNL d   1      57.376   0.584  30.622  0.00  0.00     0.378 A 
ATOM      4  O   UNL d   1      58.134   0.578  30.278  0.00  0.00    -0.258 OA
ATOM      5  O   UNL d   1      56.658   0.558  30.216  0.00  0.00    -0.237 OA
ATOM      6  C   UNL d   1      58.693   0.611  30.885  0.00  0.00     0.121 A 
ATOM      7  C   UNL d   1      58.284   0.637  31.606  0.00  0.00     0.092 A 
ATOM      8  C   UNL d   1      59.527   0.621  30.887  0.00  0.00     0.026 A 
ATOM      9  C   UNL d   1      58.705   0.672  32.322  0.00  0.00     0.020 A 
ATOM     10  C   UNL d   1      59.528   0.682  32.316  0.00  0.00     0.002 A 
ATOM     11  C   UNL d   1      59.940   0.656  31.597  0.00  0.00     0.002 A 
ENDBRANCH   1   2
BRANCH   1  12
ATOM     12  C   UNL d   1      56.551  -0.059  32.306  0.00  0.00     0.041 A 
ATOM     13  C   UNL d   1      56.089  -0.056  32.982  0.00  0.00     0.101 A 
ATOM     14  C   UNL d   1      55.751  -0.752  33.255  0.00  0.00     0.025 A 
ATOM     15  C   UNL d   1      55.879  -1.460  32.845  0.00  0.00     0.002 A 
ATOM     16  C   UNL d   1      56.344  -1.468  32.163  0.00  0.00     0.000 A 
ATOM     17  C   UNL d   1      56.682  -0.767  31.892  0.00  0.00     0.004 A 
BRANCH  13  18
ATOM     18  O   UNL d   1      55.961   0.650  33.392  0.00  0.00    -0.307 OA
BRANCH  18  19
ATOM     19  C   UNL d   1      55.491   0.653  34.074  0.00  0.00     0.100 C 
ATOM     20  C   UNL d   1      54.673   0.631  34.011  0.00  0.00     0.027 C 
ATOM     21  C   UNL d   1      55.849   0.676  34.816  0.00  0.00     0.027 C 
ENDBRANCH  18  19
ENDBRANCH  13  18
ENDBRANCH   1  12
TORSDOF 4
ENDMDL
MODEL 3
REMARK VINA RESULT:      -4.0      1.633      4.552
REMARK  4 active torsions:
REMARK  status: ('A' for Active; 'I' for Inactive)
REMARK    1  A    between atoms: C_5  and  N_1 
REMARK    2  A    between atoms: C_7  and  C_5 
REMARK    3  A    between atoms: O_10  and  C_8 
REMARK    4  A    between atoms: C_14  and  O_10 
ROOT
ATOM      1  C   UNL d   1      58.413  -0.191  30.847  0.00  0.00     0.087 C 
ENDROOT
BRANCH   1   2
ATOM      2  N   UNL d   1      57.737  -0.530  31.161  0.00  0.00    -0.251 N 
ATOM      3  C   UNL d   1      57.351  -1.235  30.936  0.00  0.00     0.378 A 
ATOM      4  O   UNL d   1      56.687  -1.336  31.428  0.00  0.00    -0.258 OA
ATOM      5  O   UNL d   1      57.588  -1.743  30.331  0.00  0.00    -0.237 OA
ATOM      6  C   UNL d   1      56.658  -0.700  31.955  0.00  0.00     0.121 A 
ATOM      7  C   UNL d   1      57.303  -0.205  31.792  0.00  0.00     0.092 A 
ATOM      8  C   UNL d   1      56.132  -0.497  32.569  0.00  0.00     0.026 A 
ATOM      9  C   UNL d   1      57.419   0.487  32.237  0.00  0.00     0.020 A 
ATOM     10  C   UNL d   1      56.896   0.682  32.841  0.00  0.00     0.002 A 
ATOM     11  C   UNL d   1      56.250   0.189  33.008  0.00  0.00     0.002 A 
ENDBRANCH   1   2
BRANCH   1  12
ATOM     12  C   UNL d   1      58.420   0.091  30.074  0.00  0.00     0.041 A 
ATOM     13  C   UNL d   1      59.109   0.070  29.633  0.00  0.00     0.101 A 
ATOM     14  C   UNL d   1      59.115   0.352  28.862  0.00  0.00     0.025 A 
ATOM     15  C   UNL d   1      58.420   0.658  28.531  0.00  0.00     0.002 A 
ATOM     16  C   UNL d   1      57.723   0.682  28.973  0.00  0.00     0.000 A 
ATOM     17  C   UNL d   1      57.722   0.398  29.746  0.00  0.00     0.004 A 
BRANCH  13  18
ATOM     18  O   UNL d   1      59.802  -0.236  29.962  0.00  0.00    -0.307 OA
BRANCH  18  19
ATOM     19  C   UNL d   1      60.521  -0.158  29.559  0.00  0.00     0.100 C 
ATOM     20  C   UNL d   1      61.000   0.495  29.693  0.00  0.00     0.027 C 
ATOM     21  C   UNL d   1      60.754  -0.738  29.021  0.00  0.00     0.027 C 
ENDBRANCH  18  19
ENDBRANCH  13  18
ENDBRANCH   1  12
TORSDOF 4
ENDMDL
MODEL 4
REMARK VINA RESULT:      -3.9      1.615      4.296
REMARK  4 active torsions:
REMARK  status: ('A' for Active; 'I' for Inactive)
REMARK    1  A    between atoms: C_5  and  N_1 
REMARK    2  A    between atoms: C_7  and  C_5 
REMARK    3  A    between atoms: O_10  and  C_8 
REMARK    4  A    between atoms: C_14  and  O_10 
ROOT
ATOM      1  C   UNL d   1      58.028  -0.728  30.896  0.00  0.00     0.087 C 
ENDROOT
BRANCH   1   2
ATOM      2  N   UNL d   1      57.828  -0.259  31.537  0.00  0.00    -0.251 N 
ATOM      3  C   UNL d   1      58.244   0.385  31.867  0.00  0.00     0.378 A 
ATOM      4  O   UNL d   1      57.806   0.674  32.513  0.00  0.00    -0.258 OA
ATOM      5  O   UNL d   1      58.965   0.682  31.597  0.00  0.00    -0.237 OA
ATOM      6  C   UNL d   1      57.123   0.216  32.587  0.00  0.00     0.121 A 
ATOM      7  C   UNL d   1      57.135  -0.358  31.988  0.00  0.00     0.092 A 
ATOM      8  C   UNL d   1      56.482   0.237  33.119  0.00  0.00     0.026 A 
ATOM      9  C   UNL d   1      56.513  -0.904  31.922  0.00  0.00     0.020 A 
ATOM     10  C   UNL d   1      55.883  -0.878  32.452  0.00  0.00     0.002 A 
ATOM     11  C   UNL d   1      55.867  -0.306  33.051  0.00  0.00     0.002 A 
ENDBRANCH   1   2
BRANCH   1  12
ATOM     12  C   UNL d   1      58.108  -0.399  30.147  0.00  0.00     0.041 A 
ATOM     13  C   UNL d   1      58.506  -0.806  29.558  0.00  0.00     0.101 A 
ATOM     14  C   UNL d   1      58.585  -0.478  28.809  0.00  0.00     0.025 A 
ATOM     15  C   UNL d   1      58.262   0.268  28.652  0.00  0.00     0.002 A 
ATOM     16  C   UNL d   1      57.860   0.682  29.243  0.00  0.00     0.000 A 
ATOM     17  C   UNL d   1      57.783   0.349  29.992  0.00  0.00     0.004 A 
BRANCH  13  18
ATOM     18  O   UNL d   1      58.828  -1.551  29.715  0.00  0.00    -0.307 OA
BRANCH  18  19
ATOM     19  C   UNL d   1      59.173  -1.989  29.103  0.00  0.00     0.100 C 
ATOM     20  C   UNL d   1      59.932  -1.810  28.845  0.00  0.00     0.027 C 
ATOM     21  C   UNL d   1      58.752  -2.605  28.753  0.00  0.00     0.027 C 
ENDBRANCH  18  19
ENDBRANCH  13  18
ENDBRANCH   1  12
TORSDOF 4
ENDMDL
MODEL 5
REMARK VINA RESULT:      -3.8      1.888      2.728
REMARK  4 active torsions:
REMARK  status: ('A' for Active; 'I' for Inactive)
REMARK    1  A    between atoms: C_5  and  N_1 
REMARK    2  A    between atoms: C_7  and  C_5 
REMARK    3  A    between atoms: O_10  and  C_8 
REMARK    4  A    between atoms: C_14  and  O_10 
ROOT
ATOM      1  C   UNL d   1      57.412  -0.727  30.687  0.00  0.00     0.087 C 
ENDROOT
BRANCH   1   2
ATOM      2  N   UNL d   1      57.813  -0.623  29.981  0.00  0.00    -0.251 N 
ATOM      3  C   UNL d   1      57.770   0.012  29.442  0.00  0.00     0.378 A 
ATOM      4  O   UNL d   1      58.289  -0.148  28.811  0.00  0.00    -0.258 OA
ATOM      5  O   UNL d   1      57.295   0.682  29.522  0.00  0.00    -0.237 OA
ATOM      6  C   UNL d   1      58.652  -0.875  28.954  0.00  0.00     0.121 A 
ATOM      7  C   UNL d   1      58.361  -1.168  29.673  0.00  0.00     0.092 A 
ATOM      8  C   UNL d   1      59.215  -1.321  28.529  0.00  0.00     0.026 A 
ATOM      9  C   UNL d   1      58.629  -1.899  29.964  0.00  0.00     0.020 A 
ATOM     10  C   UNL d   1      59.184  -2.333  29.539  0.00  0.00     0.002 A 
ATOM     11  C   UNL d   1      59.478  -2.044  28.820  0.00  0.00     0.002 A 
ENDBRANCH   1   2
BRANCH   1  12
ATOM     12  C   UNL d   1      57.585  -0.259  31.341  0.00  0.00     0.041 A 
ATOM     13  C   UNL d   1      57.088  -0.255  31.991  0.00  0.00     0.101 A 
ATOM     14  C   UNL d   1      57.262   0.212  32.643  0.00  0.00     0.025 A 
ATOM     15  C   UNL d   1      57.944   0.682  32.641  0.00  0.00     0.002 A 
ATOM     16  C   UNL d   1      58.449   0.682  31.987  0.00  0.00     0.000 A 
ATOM     17  C   UNL d   1      58.270   0.211  31.335  0.00  0.00     0.004 A 
BRANCH  13  18
ATOM     18  O   UNL d   1      56.407  -0.724  31.993  0.00  0.00    -0.307 OA
BRANCH  18  19
ATOM     19  C   UNL d   1      55.963  -0.803  32.687  0.00  0.00     0.100 C 
ATOM     20  C   UNL d   1      55.473  -0.193  32.936  0.00  0.00     0.027 C 
ATOM     21  C   UNL d   1      56.013  -1.498  33.128  0.00  0.00     0.027 C 
ENDBRANCH  18  19
ENDBRANCH  13  18
ENDBRANCH   1  12
TORSDOF 4
ENDMDL
MODEL 6
REMARK VINA RESULT:      -3.8      0.967      3.660
REMARK  4 active torsions:
REMARK  status: ('A' for Active; 'I' for Inactive)
REMARK    1  A    between atoms: C_5  and  N_1 
REMARK    2  A    between atoms: C_7  and  C_5 
REMARK    3  A    between atoms: O_10  and  C_8 
REMARK    4  A    between atoms: C_14  and  O_10 
ROOT
ATOM      1  C   UNL d   1      56.322   0.562  32.537  0.00  0.00     0.087 C 
ENDROOT
BRANCH   1   2
ATOM      2  N   UNL d   1      56.225   0.590  33.350  0.00  0.00    -0.251 N 
ATOM      3  C   UNL d   1      56.807   0.597  33.948  0.00  0.00     0.378 A 
ATOM      4  O   UNL d   1      56.421   0.628  34.685  0.00  0.00    -0.258 OA
ATOM      5  O   UNL d   1      57.623   0.578  33.828  0.00  0.00    -0.237 OA
ATOM      6  C   UNL d   1      55.607   0.639  34.549  0.00  0.00     0.121 A 
ATOM      7  C   UNL d   1      55.485   0.615  33.730  0.00  0.00     0.092 A 
ATOM      8  C   UNL d   1      54.948   0.667  35.060  0.00  0.00     0.026 A 
ATOM      9  C   UNL d   1      54.713   0.620  33.423  0.00  0.00     0.020 A 
ATOM     10  C   UNL d   1      54.067   0.648  33.933  0.00  0.00     0.002 A 
ATOM     11  C   UNL d   1      54.185   0.672  34.753  0.00  0.00     0.002 A 
ENDBRANCH   1   2
BRANCH   1  12
ATOM     12  C   UNL d   1      56.554  -0.134  32.167  0.00  0.00     0.041 A 
ATOM     13  C   UNL d   1      57.054  -0.111  31.519  0.00  0.00     0.101 A 
ATOM     14  C   UNL d   1      57.285  -0.807  31.150  0.00  0.00     0.025 A 
ATOM     15  C   UNL d   1      57.009  -1.534  31.435  0.00  0.00     0.002 A 
ATOM     16  C   UNL d   1      56.504  -1.562  32.088  0.00  0.00     0.000 A 
ATOM     17  C   UNL d   1      56.275  -0.861  32.455  0.00  0.00     0.004 A 
BRANCH  13  18
ATOM     18  O   UNL d   1      57.330   0.614  31.235  0.00  0.00    -0.307 OA
BRANCH  18  19
ATOM     19  C   UNL d   1      57.771   0.642  30.535  0.00  0.00     0.100 C 
ATOM     20  C   UNL d   1      58.591   0.656  30.565  0.00  0.00     0.027 C 
ATOM     21  C   UNL d   1      57.383   0.657  29.807  0.00  0.00     0.027 C 
ENDBRANCH  18  19
ENDBRANCH  13  18
ENDBRANCH   1  12
TORSDOF 4
ENDMDL
MODEL 7
REMARK VINA RESULT:      -3.3      1.092      3.653
REMARK  4 active torsions:
REMARK  status: ('A' for Active; 'I' for Inactive)
REMARK    1  A    between atoms: C_5  and  N_1 
REMARK    2  A    between atoms: C_7  and  C_5 
REMARK    3  A    between atoms: O_10  and  C_8 
REMARK    4  A    between atoms: C_14  and  O_10 
ROOT
ATOM      1  C   UNL d   1      57.222   0.650  31.743  0.00  0.00     0.087 C 
ENDROOT
BRANCH   1   2
ATOM      2  N   UNL d   1      57.156   0.661  32.559  0.00  0.00    -0.251 N 
ATOM      3  C   UNL d   1      57.760   0.671  33.135  0.00  0.00     0.378 A 
ATOM      4  O   UNL d   1      57.403   0.680  33.887  0.00  0.00    -0.258 OA
ATOM      5  O   UNL d   1      58.571   0.673  32.982  0.00  0.00    -0.237 OA
ATOM      6  C   UNL d   1      56.583   0.674  33.782  0.00  0.00     0.121 A 
ATOM      7  C   UNL d   1      56.430   0.663  32.968  0.00  0.00     0.092 A 
ATOM      8  C   UNL d   1      55.944   0.678  34.318  0.00  0.00     0.026 A 
ATOM      9  C   UNL d   1      55.647   0.655  32.691  0.00  0.00     0.020 A 
ATOM     10  C   UNL d   1      55.021   0.660  33.226  0.00  0.00     0.002 A 
ATOM     11  C   UNL d   1      55.170   0.671  34.041  0.00  0.00     0.002 A 
ENDBRANCH   1   2
BRANCH   1  12
ATOM     12  C   UNL d   1      57.382  -0.051  31.345  0.00  0.00     0.041 A 
ATOM     13  C   UNL d   1      57.878  -0.053  30.694  0.00  0.00     0.101 A 
ATOM     14  C   UNL d   1      58.038  -0.754  30.297  0.00  0.00     0.025 A 
ATOM     15  C   UNL d   1      57.694  -1.460  30.559  0.00  0.00     0.002 A 
ATOM     16  C   UNL d   1      57.193  -1.464  31.215  0.00  0.00     0.000 A 
ATOM     17  C   UNL d   1      57.036  -0.758  31.610  0.00  0.00     0.004 A 
BRANCH  13  18
ATOM     18  O   UNL d   1      58.221   0.653  30.433  0.00  0.00    -0.307 OA
BRANCH  18  19
ATOM     19  C   UNL d   1      58.628   0.672  29.713  0.00  0.00     0.100 C 
ATOM     20  C   UNL d   1      59.449   0.682  29.703  0.00  0.00     0.027 C 
ATOM     21  C   UNL d   1      58.207   0.682  29.004  0.00  0.00     0.027 C 
ENDBRANCH  18  19
ENDBRANCH  13  18
ENDBRANCH   1  12
TORSDOF 4
ENDMDL
MODEL 8
REMARK VINA RESULT:      -2.9      2.914      4.367
REMARK  4 active torsions:
REMARK  status: ('A' for Active; 'I' for Inactive)
REMARK    1  A    between atoms: C_5  and  N_1 
REMARK    2  A    between atoms: C_7  and  C_5 
REMARK    3  A    between atoms: O_10  and  C_8 
REMARK    4  A    between atoms: C_14  and  O_10 
ROOT
ATOM      1  C   UNL d   1      59.138  -1.273  29.886  0.00  0.00     0.087 C 
ENDROOT
BRANCH   1   2
ATOM      2  N   UNL d   1      59.793  -1.559  29.487  0.00  0.00    -0.251 N 
ATOM      3  C   UNL d   1      60.510  -1.170  29.309  0.00  0.00     0.378 A 
ATOM      4  O   UNL d   1      60.998  -1.701  28.894  0.00  0.00    -0.258 OA
ATOM      5  O   UNL d   1      60.700  -0.393  29.511  0.00  0.00    -0.237 OA
ATOM      6  C   UNL d   1      60.590  -2.415  28.813  0.00  0.00     0.121 A 
ATOM      7  C   UNL d   1      59.850  -2.329  29.176  0.00  0.00     0.092 A 
ATOM      8  C   UNL d   1      60.788  -3.142  28.455  0.00  0.00     0.026 A 
ATOM      9  C   UNL d   1      59.313  -2.963  29.183  0.00  0.00     0.020 A 
ATOM     10  C   UNL d   1      59.515  -3.678  28.828  0.00  0.00     0.002 A 
ATOM     11  C   UNL d   1      60.254  -3.768  28.464  0.00  0.00     0.002 A 
ENDBRANCH   1   2
BRANCH   1  12
ATOM     12  C   UNL d   1      58.708  -0.639  29.587  0.00  0.00     0.041 A 
ATOM     13  C   UNL d   1      58.199  -0.220  30.071  0.00  0.00     0.101 A 
ATOM     14  C   UNL d   1      57.770   0.413  29.772  0.00  0.00     0.025 A 
ATOM     15  C   UNL d   1      57.855   0.627  28.976  0.00  0.00     0.002 A 
ATOM     16  C   UNL d   1      58.368   0.206  28.484  0.00  0.00     0.000 A 
ATOM     17  C   UNL d   1      58.796  -0.428  28.789  0.00  0.00     0.004 A 
BRANCH  13  18
ATOM     18  O   UNL d   1      58.114  -0.433  30.866  0.00  0.00    -0.307 OA
BRANCH  18  19
ATOM     19  C   UNL d   1      57.524  -0.080  31.327  0.00  0.00     0.100 C 
ATOM     20  C   UNL d   1      57.628   0.682  31.617  0.00  0.00     0.027 C 
ATOM     21  C   UNL d   1      56.832  -0.495  31.495  0.00  0.00     0.027 C 
ENDBRANCH  18  19
ENDBRANCH  13  18
ENDBRANCH   1  12
TORSDOF 4
ENDMDL
MODEL 9
REMARK VINA RESULT:      -2.3      2.696      5.082
REMARK  4 active torsions:
REMARK  status: ('A' for Active; 'I' for Inactive)
REMARK    1  A    between atoms: C_5  and  N_1 
REMARK    2  A    between atoms: C_7  and  C_5 
REMARK    3  A    between atoms: O_10  and  C_8 
REMARK    4  A    between atoms: C_14  and  O_10 
ROOT
ATOM      1  C   UNL d   1      58.563  -1.162  29.574  0.00  0.00     0.087 C 
ENDROOT
BRANCH   1   2
ATOM      2  N   UNL d   1      58.121  -0.495  29.747  0.00  0.00    -0.251 N 
ATOM      3  C   UNL d   1      57.918   0.144  29.249  0.00  0.00     0.378 A 
ATOM      4  O   UNL d   1      57.462   0.682  29.691  0.00  0.00    -0.258 OA
ATOM      5  O   UNL d   1      58.133   0.225  28.457  0.00  0.00    -0.237 OA
ATOM      6  C   UNL d   1      57.381   0.384  30.457  0.00  0.00     0.121 A 
ATOM      7  C   UNL d   1      57.785  -0.339  30.493  0.00  0.00     0.092 A 
ATOM      8  C   UNL d   1      56.992   0.668  31.137  0.00  0.00     0.026 A 
ATOM      9  C   UNL d   1      57.801  -0.773  31.201  0.00  0.00     0.020 A 
ATOM     10  C   UNL d   1      57.415  -0.486  31.869  0.00  0.00     0.002 A 
ATOM     11  C   UNL d   1      57.010   0.236  31.837  0.00  0.00     0.002 A 
ENDBRANCH   1   2
BRANCH   1  12
ATOM     12  C   UNL d   1      59.342  -1.094  29.319  0.00  0.00     0.041 A 
ATOM     13  C   UNL d   1      59.776  -1.763  29.133  0.00  0.00     0.101 A 
ATOM     14  C   UNL d   1      60.553  -1.694  28.878  0.00  0.00     0.025 A 
ATOM     15  C   UNL d   1      60.898  -0.944  28.809  0.00  0.00     0.002 A 
ATOM     16  C   UNL d   1      60.463  -0.266  28.994  0.00  0.00     0.000 A 
ATOM     17  C   UNL d   1      59.684  -0.340  29.250  0.00  0.00     0.004 A 
BRANCH  13  18
ATOM     18  O   UNL d   1      59.433  -2.511  29.203  0.00  0.00    -0.307 OA
BRANCH  18  19
ATOM     19  C   UNL d   1      59.906  -3.189  29.159  0.00  0.00     0.100 C 
ATOM     20  C   UNL d   1      59.964  -3.607  28.455  0.00  0.00     0.027 C 
ATOM     21  C   UNL d   1      60.321  -3.442  29.826  0.00  0.00     0.027 C 
ENDBRANCH  18  19
ENDBRANCH  13  18
ENDBRANCH   1  12
TORSDOF 4
ENDMDL
