MODEL 1
REMARK VINA RESULT:      14.6      0.000      0.000
REMARK  4 active torsions:
REMARK  status: ('A' for Active; 'I' for Inactive)
REMARK    1  A    between atoms: C_4  and  N_1 
REMARK    2  A    between atoms: C_8  and  C_2 
REMARK    3  A    between atoms: C_17  and  C_6 
REMARK    4  A    between atoms: C_7  and  C_8 
ROOT
ATOM      1  N   UNL d   1     -41.712-122.340 -53.649  0.00  0.00    -0.255 N 
ATOM      2  C   UNL d   1     -41.609-122.234 -52.325  0.00  0.00     0.101 A 
ATOM      3  C   UNL d   1     -41.637-123.110 -53.335  0.00  0.00     0.305 A 
ATOM      4  C   UNL d   1     -41.573-123.044 -52.519  0.00  0.00     0.256 A 
ATOM      5  C   UNL d   1     -41.694-121.815 -53.024  0.00  0.00     0.075 A 
ATOM      6  O   UNL d   1     -41.629-123.813 -53.766  0.00  0.00    -0.263 OA
ATOM      7  O   UNL d   1     -41.490-123.670 -51.988  0.00  0.00    -0.281 OA
ENDROOT
BRANCH   2   8
ATOM      8  C   UNL d   1     -41.565-121.916 -51.564  0.00  0.00     0.223 C 
ATOM      9  O   UNL d   1     -41.125-121.243 -51.421  0.00  0.00    -0.284 OA
BRANCH   8  10
ATOM     10  C   UNL d   1     -41.969-122.279 -50.942  0.00  0.00     0.139 A 
ATOM     11  O   UNL d   1     -42.788-122.275 -50.829  0.00  0.00    -0.304 OA
ATOM     12  C   UNL d   1     -42.946-122.701 -50.144  0.00  0.00     0.100 A 
ATOM     13  C   UNL d   1     -43.653-122.882 -49.760  0.00  0.00     0.025 A 
ATOM     14  C   UNL d   1     -42.236-122.970 -49.832  0.00  0.00     0.025 A 
ATOM     15  C   UNL d   1     -43.649-123.322 -49.078  0.00  0.00     0.002 A 
ATOM     16  C   UNL d   1     -42.930-123.593 -48.765  0.00  0.00     0.000 A 
ATOM     17  C   UNL d   1     -42.229-123.416 -49.142  0.00  0.00     0.002 A 
ATOM     18  C   UNL d   1     -41.631-122.710 -50.325  0.00  0.00     0.030 A 
ENDBRANCH   8  10
ENDBRANCH   2   8
BRANCH   5  19
ATOM     19  C   UNL d   1     -41.750-120.988 -53.078  0.00  0.00     0.017 A 
ATOM     20  C   UNL d   1     -42.432-120.641 -53.381  0.00  0.00     0.001 A 
ATOM     21  C   UNL d   1     -42.489-119.820 -53.434  0.00  0.00     0.000 A 
ATOM     22  C   UNL d   1     -41.859-119.349 -53.181  0.00  0.00     0.000 A 
ATOM     23  C   UNL d   1     -41.172-119.700 -52.875  0.00  0.00     0.000 A 
ATOM     24  C   UNL d   1     -41.912-118.523 -53.232  0.00  0.00     0.000 C 
ATOM     25  C   UNL d   1     -41.124-120.527 -52.825  0.00  0.00     0.001 A 
ENDBRANCH   5  19
BRANCH   1  26
ATOM     26  C   UNL d   1     -41.791-122.149 -54.452  0.00  0.00     0.179 A 
ATOM     27  N   UNL d   1     -41.182-121.923 -54.949  0.00  0.00    -0.108 NA
ATOM     28  O   UNL d   1     -41.509-121.786 -55.699  0.00  0.00    -0.210 OA
ATOM     29  C   UNL d   1     -42.316-121.928 -55.656  0.00  0.00     0.128 A 
ATOM     30  C   UNL d   1     -42.499-122.156 -54.874  0.00  0.00     0.067 A 
ATOM     31  C   UNL d   1     -42.864-121.861 -56.268  0.00  0.00     0.029 C 
ENDBRANCH   1  26
TORSDOF 4
ENDMDL
MODEL 2
REMARK VINA RESULT:      16.7      1.109      2.418
REMARK  4 active torsions:
REMARK  status: ('A' for Active; 'I' for Inactive)
REMARK    1  A    between atoms: C_4  and  N_1 
REMARK    2  A    between atoms: C_8  and  C_2 
REMARK    3  A    between atoms: C_17  and  C_6 
REMARK    4  A    between atoms: C_7  and  C_8 
ROOT
ATOM      1  N   UNL d   1     -41.471-121.088 -52.439  0.00  0.00    -0.255 N 
ATOM      2  C   UNL d   1     -41.444-122.172 -51.665  0.00  0.00     0.101 A 
ATOM      3  C   UNL d   1     -41.295-120.843 -51.661  0.00  0.00     0.305 A 
ATOM      4  C   UNL d   1     -41.279-121.511 -51.184  0.00  0.00     0.256 A 
ATOM      5  C   UNL d   1     -41.560-121.900 -52.430  0.00  0.00     0.075 A 
ATOM      6  O   UNL d   1     -41.161-120.068 -51.413  0.00  0.00    -0.263 OA
ATOM      7  O   UNL d   1     -41.125-121.524 -50.374  0.00  0.00    -0.281 OA
ENDROOT
BRANCH   2   8
ATOM      8  C   UNL d   1     -41.484-122.957 -51.412  0.00  0.00     0.223 C 
ATOM      9  O   UNL d   1     -41.165-123.555 -51.868  0.00  0.00    -0.284 OA
BRANCH   8  10
ATOM     10  C   UNL d   1     -41.848-123.141 -50.694  0.00  0.00     0.139 A 
ATOM     11  O   UNL d   1     -42.661-123.122 -50.545  0.00  0.00    -0.304 OA
ATOM     12  C   UNL d   1     -42.775-123.345 -49.762  0.00  0.00     0.100 A 
ATOM     13  C   UNL d   1     -43.458-123.426 -49.308  0.00  0.00     0.025 A 
ATOM     14  C   UNL d   1     -42.044-123.501 -49.424  0.00  0.00     0.025 A 
ATOM     15  C   UNL d   1     -43.410-123.660 -48.532  0.00  0.00     0.002 A 
ATOM     16  C   UNL d   1     -42.669-123.817 -48.193  0.00  0.00     0.000 A 
ATOM     17  C   UNL d   1     -41.992-123.737 -48.639  0.00  0.00     0.002 A 
ATOM     18  C   UNL d   1     -41.470-123.375 -50.000  0.00  0.00     0.030 A 
ENDBRANCH   8  10
ENDBRANCH   2   8
BRANCH   5  19
ATOM     19  C   UNL d   1     -41.738-122.381 -53.082  0.00  0.00     0.017 A 
ATOM     20  C   UNL d   1     -42.520-122.578 -53.246  0.00  0.00     0.001 A 
ATOM     21  C   UNL d   1     -42.697-123.057 -53.895  0.00  0.00     0.000 A 
ATOM     22  C   UNL d   1     -42.087-123.335 -54.377  0.00  0.00     0.000 A 
ATOM     23  C   UNL d   1     -41.300-123.136 -54.211  0.00  0.00     0.000 A 
ATOM     24  C   UNL d   1     -42.261-123.816 -55.029  0.00  0.00     0.000 C 
ATOM     25  C   UNL d   1     -41.130-122.654 -53.556  0.00  0.00     0.001 A 
ENDBRANCH   5  19
BRANCH   1  26
ATOM     26  C   UNL d   1     -41.541-120.592 -53.100  0.00  0.00     0.179 A 
ATOM     27  N   UNL d   1     -41.157-120.695 -53.815  0.00  0.00    -0.108 NA
ATOM     28  O   UNL d   1     -41.387-120.075 -54.315  0.00  0.00    -0.210 OA
ATOM     29  C   UNL d   1     -41.911-119.596 -53.903  0.00  0.00     0.128 A 
ATOM     30  C   UNL d   1     -42.011-119.917 -53.139  0.00  0.00     0.067 A 
ATOM     31  C   UNL d   1     -42.281-118.914 -54.180  0.00  0.00     0.029 C 
ENDBRANCH   1  26
TORSDOF 4
ENDMDL
