MODEL 1
REMARK VINA RESULT:      -7.6      0.000      0.000
REMARK  6 active torsions:
REMARK  status: ('A' for Active; 'I' for Inactive)
REMARK    1  A    between atoms: N_2  and  C_1 
REMARK    2  A    between atoms: N_3  and  C_1 
REMARK       I    between atoms: C_4  and  N_2 
REMARK    3  A    between atoms: C_5  and  N_3 
REMARK    4  A    between atoms: C_14  and  C_4 
REMARK    5  A    between atoms: C_8  and  O_10 
REMARK    6  A    between atoms: O_10  and  C_14 
ROOT
ATOM      1  N   UNL d   1      51.418  33.377  53.139  0.00  0.00    -0.177 NA
ATOM      2  C   UNL d   1      51.123  34.118  52.912  0.00  0.00     0.306 C 
ATOM      3  O   UNL d   1      51.683  34.737  52.740  0.00  0.00    -0.263 OA
ENDROOT
BRANCH   2   4
ATOM      4  C   UNL d   1      50.323  34.278  52.846  0.00  0.00     0.185 C 
BRANCH   4   5
ATOM      5  O   UNL d   1      49.968  34.444  52.129  0.00  0.00    -0.300 OA
BRANCH   5   6
ATOM      6  C   UNL d   1      49.251  34.808  52.095  0.00  0.00     0.106 A 
ATOM      7  C   UNL d   1      48.786  34.775  51.383  0.00  0.00     0.057 A 
ATOM      8  C   UNL d   1      48.047  35.162  51.376  0.00  0.00     0.009 A 
ATOM      9 BR   UNL d   1      49.077  34.362  50.716  0.00  0.00    -0.047 Br
ATOM     10  C   UNL d   1      47.759  35.554  51.993  0.00  0.00     0.001 A 
ATOM     11  C   UNL d   1      48.231  35.586  52.712  0.00  0.00     0.002 A 
ATOM     12  C   UNL d   1      47.017  35.934  51.968  0.00  0.00     0.000 C 
ATOM     13  C   UNL d   1      48.959  35.207  52.725  0.00  0.00     0.025 A 
ENDBRANCH   5   6
ENDBRANCH   4   5
ENDBRANCH   2   4
BRANCH   1  14
ATOM     14  C   UNL d   1      52.227  33.233  53.201  0.00  0.00     0.225 C 
ATOM     15  S   UNL d   1      52.678  33.610  53.797  0.00  0.00    -0.037 SA
BRANCH  14  16
ATOM     16  N   UNL d   1      52.582  32.715  52.669  0.00  0.00    -0.198 NA
BRANCH  16  17
ATOM     17  C   UNL d   1      52.837  31.963  52.935  0.00  0.00     0.165 A 
ATOM     18  N   UNL d   1      52.423  31.258  52.714  0.00  0.00    -0.225 NA
ATOM     19  C   UNL d   1      52.683  30.524  52.980  0.00  0.00     0.101 A 
ATOM     20  C   UNL d   1      53.349  30.486  53.463  0.00  0.00     0.021 A 
ATOM     21  C   UNL d   1      53.748  31.182  53.674  0.00  0.00     0.005 A 
ATOM     22  C   UNL d   1      53.498  31.904  53.417  0.00  0.00     0.039 A 
ENDBRANCH  16  17
ENDBRANCH  14  16
ENDBRANCH   1  14
TORSDOF 6
ENDMDL
MODEL 2
REMARK VINA RESULT:      -7.4      1.346      1.647
REMARK  6 active torsions:
REMARK  status: ('A' for Active; 'I' for Inactive)
REMARK    1  A    between atoms: N_2  and  C_1 
REMARK    2  A    between atoms: N_3  and  C_1 
REMARK       I    between atoms: C_4  and  N_2 
REMARK    3  A    between atoms: C_5  and  N_3 
REMARK    4  A    between atoms: C_14  and  C_4 
REMARK    5  A    between atoms: C_8  and  O_10 
REMARK    6  A    between atoms: O_10  and  C_14 
ROOT
ATOM      1  N   UNL d   1      51.449  33.866  53.304  0.00  0.00    -0.177 NA
ATOM      2  C   UNL d   1      50.977  34.171  52.695  0.00  0.00     0.306 C 
ATOM      3  O   UNL d   1      51.245  34.069  51.891  0.00  0.00    -0.263 OA
ENDROOT
BRANCH   2   4
ATOM      4  C   UNL d   1      50.271  34.563  52.830  0.00  0.00     0.185 C 
BRANCH   4   5
ATOM      5  O   UNL d   1      49.679  34.603  52.269  0.00  0.00    -0.300 OA
BRANCH   5   6
ATOM      6  C   UNL d   1      49.022  35.054  52.389  0.00  0.00     0.106 A 
ATOM      7  C   UNL d   1      48.435  35.129  51.777  0.00  0.00     0.057 A 
ATOM      8  C   UNL d   1      47.766  35.602  51.929  0.00  0.00     0.009 A 
ATOM      9 BR   UNL d   1      48.542  34.731  51.048  0.00  0.00    -0.047 Br
ATOM     10  C   UNL d   1      47.650  35.982  52.607  0.00  0.00     0.001 A 
ATOM     11  C   UNL d   1      48.246  35.905  53.224  0.00  0.00     0.002 A 
ATOM     12  C   UNL d   1      46.975  36.451  52.741  0.00  0.00     0.000 C 
ATOM     13  C   UNL d   1      48.906  35.441  53.080  0.00  0.00     0.025 A 
ENDBRANCH   5   6
ENDBRANCH   4   5
ENDBRANCH   2   4
BRANCH   1  14
ATOM     14  C   UNL d   1      52.157  33.474  53.150  0.00  0.00     0.225 C 
ATOM     15  S   UNL d   1      52.151  32.670  52.916  0.00  0.00    -0.037 SA
BRANCH  14  16
ATOM     16  N   UNL d   1      52.865  33.884  53.231  0.00  0.00    -0.198 NA
BRANCH  16  17
ATOM     17  C   UNL d   1      53.398  33.670  53.840  0.00  0.00     0.165 A 
ATOM     18  N   UNL d   1      53.362  34.040  54.600  0.00  0.00    -0.225 NA
ATOM     19  C   UNL d   1      53.891  33.823  55.193  0.00  0.00     0.101 A 
ATOM     20  C   UNL d   1      54.453  33.242  55.034  0.00  0.00     0.021 A 
ATOM     21  C   UNL d   1      54.480  32.885  54.286  0.00  0.00     0.005 A 
ATOM     22  C   UNL d   1      53.965  33.094  53.702  0.00  0.00     0.039 A 
ENDBRANCH  16  17
ENDBRANCH  14  16
ENDBRANCH   1  14
TORSDOF 6
ENDMDL
MODEL 3
REMARK VINA RESULT:      -7.0      2.188      5.592
REMARK  6 active torsions:
REMARK  status: ('A' for Active; 'I' for Inactive)
REMARK    1  A    between atoms: N_2  and  C_1 
REMARK    2  A    between atoms: N_3  and  C_1 
REMARK       I    between atoms: C_4  and  N_2 
REMARK    3  A    between atoms: C_5  and  N_3 
REMARK    4  A    between atoms: C_14  and  C_4 
REMARK    5  A    between atoms: C_8  and  O_10 
REMARK    6  A    between atoms: O_10  and  C_14 
ROOT
ATOM      1  N   UNL d   1      49.523  34.763  53.007  0.00  0.00    -0.177 NA
ATOM      2  C   UNL d   1      50.151  34.431  52.580  0.00  0.00     0.306 C 
ATOM      3  O   UNL d   1      50.173  34.556  51.737  0.00  0.00    -0.263 OA
ENDROOT
BRANCH   2   4
ATOM      4  C   UNL d   1      50.747  33.992  52.931  0.00  0.00     0.185 C 
BRANCH   4   5
ATOM      5  O   UNL d   1      51.507  34.278  53.020  0.00  0.00    -0.300 OA
BRANCH   5   6
ATOM      6  C   UNL d   1      52.114  33.790  53.222  0.00  0.00     0.106 A 
ATOM      7  C   UNL d   1      52.796  34.098  53.627  0.00  0.00     0.057 A 
ATOM      8  C   UNL d   1      53.410  33.568  53.823  0.00  0.00     0.009 A 
ATOM      9 BR   UNL d   1      52.835  34.912  53.815  0.00  0.00    -0.047 Br
ATOM     10  C   UNL d   1      53.390  32.801  53.654  0.00  0.00     0.001 A 
ATOM     11  C   UNL d   1      52.699  32.492  53.244  0.00  0.00     0.002 A 
ATOM     12  C   UNL d   1      54.013  32.287  53.859  0.00  0.00     0.000 C 
ATOM     13  C   UNL d   1      52.092  33.008  53.048  0.00  0.00     0.025 A 
ENDBRANCH   5   6
ENDBRANCH   4   5
ENDBRANCH   2   4
BRANCH   1  14
ATOM     14  C   UNL d   1      48.932  35.202  52.638  0.00  0.00     0.225 C 
ATOM     15  S   UNL d   1      48.513  34.882  51.987  0.00  0.00    -0.037 SA
BRANCH  14  16
ATOM     16  N   UNL d   1      48.761  35.957  52.918  0.00  0.00    -0.198 NA
BRANCH  16  17
ATOM     17  C   UNL d   1      48.022  36.103  53.283  0.00  0.00     0.165 A 
ATOM     18  N   UNL d   1      47.906  35.952  54.108  0.00  0.00    -0.225 NA
ATOM     19  C   UNL d   1      47.176  36.099  54.458  0.00  0.00     0.101 A 
ATOM     20  C   UNL d   1      46.562  36.395  53.994  0.00  0.00     0.021 A 
ATOM     21  C   UNL d   1      46.686  36.540  53.187  0.00  0.00     0.005 A 
ATOM     22  C   UNL d   1      47.399  36.398  52.839  0.00  0.00     0.039 A 
ENDBRANCH  16  17
ENDBRANCH  14  16
ENDBRANCH   1  14
TORSDOF 6
ENDMDL
MODEL 4
REMARK VINA RESULT:      -6.8      2.339      5.380
REMARK  6 active torsions:
REMARK  status: ('A' for Active; 'I' for Inactive)
REMARK    1  A    between atoms: N_2  and  C_1 
REMARK    2  A    between atoms: N_3  and  C_1 
REMARK       I    between atoms: C_4  and  N_2 
REMARK    3  A    between atoms: C_5  and  N_3 
REMARK    4  A    between atoms: C_14  and  C_4 
REMARK    5  A    between atoms: C_8  and  O_10 
REMARK    6  A    between atoms: O_10  and  C_14 
ROOT
ATOM      1  N   UNL d   1      52.813  33.448  53.926  0.00  0.00    -0.177 NA
ATOM      2  C   UNL d   1      53.540  33.066  54.036  0.00  0.00     0.306 C 
ATOM      3  O   UNL d   1      54.254  33.520  53.930  0.00  0.00    -0.263 OA
ENDROOT
BRANCH   2   4
ATOM      4  C   UNL d   1      53.602  32.275  54.239  0.00  0.00     0.185 C 
BRANCH   4   5
ATOM      5  O   UNL d   1      53.467  31.673  53.703  0.00  0.00    -0.300 OA
BRANCH   5   6
ATOM      6  C   UNL d   1      53.427  30.905  53.941  0.00  0.00     0.106 A 
ATOM      7  C   UNL d   1      53.224  30.293  53.386  0.00  0.00     0.057 A 
ATOM      8  C   UNL d   1      53.190  29.507  53.661  0.00  0.00     0.009 A 
ATOM      9 BR   UNL d   1      53.065  30.492  52.588  0.00  0.00    -0.047 Br
ATOM     10  C   UNL d   1      53.336  29.302  54.406  0.00  0.00     0.001 A 
ATOM     11  C   UNL d   1      53.541  29.923  54.965  0.00  0.00     0.002 A 
ATOM     12  C   UNL d   1      53.297  28.511  54.662  0.00  0.00     0.000 C 
ATOM     13  C   UNL d   1      53.576  30.699  54.701  0.00  0.00     0.025 A 
ENDBRANCH   5   6
ENDBRANCH   4   5
ENDBRANCH   2   4
BRANCH   1  14
ATOM     14  C   UNL d   1      52.770  34.245  53.721  0.00  0.00     0.225 C 
ATOM     15  S   UNL d   1      52.993  34.835  54.271  0.00  0.00    -0.037 SA
BRANCH  14  16
ATOM     16  N   UNL d   1      52.505  34.450  52.969  0.00  0.00    -0.198 NA
BRANCH  16  17
ATOM     17  C   UNL d   1      51.684  34.435  52.803  0.00  0.00     0.165 A 
ATOM     18  N   UNL d   1      51.121  34.733  53.361  0.00  0.00    -0.225 NA
ATOM     19  C   UNL d   1      50.317  34.714  53.189  0.00  0.00     0.101 A 
ATOM     20  C   UNL d   1      50.069  34.401  52.468  0.00  0.00     0.021 A 
ATOM     21  C   UNL d   1      50.628  34.112  51.929  0.00  0.00     0.005 A 
ATOM     22  C   UNL d   1      51.417  34.128  52.092  0.00  0.00     0.039 A 
ENDBRANCH  16  17
ENDBRANCH  14  16
ENDBRANCH   1  14
TORSDOF 6
ENDMDL
