MODEL 1
REMARK VINA RESULT:      27.3      0.000      0.000
REMARK  3 active torsions:
REMARK  status: ('A' for Active; 'I' for Inactive)
REMARK    1  A    between atoms: S_12  and  C_6 
REMARK    2  A    between atoms: C_10  and  C_14 
REMARK       I    between atoms: N_11  and  C_10 
REMARK    3  A    between atoms: C_14  and  S_12 
ROOT
ATOM      1  C   UNL d   1      46.380 -17.753  43.305  0.00  0.00     0.155 A 
ATOM      2  C   UNL d   1      46.263 -17.887  44.114  0.00  0.00     0.107 A 
ATOM      3  N   UNL d   1      46.169 -16.354  43.508  0.00  0.00    -0.250 N 
ATOM      4  C   UNL d   1      46.333 -16.993  43.003  0.00  0.00     0.285 A 
ATOM      5  N   UNL d   1      46.100 -17.249  44.619  0.00  0.00    -0.220 NA
ATOM      6  C   UNL d   1      46.055 -16.489  44.307  0.00  0.00     0.182 A 
ATOM      7  N   UNL d   1      46.531 -18.479  42.944  0.00  0.00    -0.239 NA
ATOM      8  C   UNL d   1      46.341 -18.692  44.259  0.00  0.00     0.037 A 
ATOM      9  C   UNL d   1      46.508 -19.065  43.531  0.00  0.00     0.083 A 
ATOM     10  O   UNL d   1      46.448 -16.850  42.193  0.00  0.00    -0.265 OA
ATOM     11  C   UNL d   1      46.122 -15.585  43.205  0.00  0.00     0.104 C 
ATOM     12  C   UNL d   1      46.285 -19.141  44.945  0.00  0.00     0.003 A 
ATOM     13  C   UNL d   1      46.617 -19.884  43.500  0.00  0.00     0.019 A 
ATOM     14  C   UNL d   1      46.394 -19.961  44.914  0.00  0.00     0.000 A 
ATOM     15  C   UNL d   1      46.559 -20.328  44.194  0.00  0.00     0.002 A 
ENDROOT
BRANCH   6  16
ATOM     16  S   UNL d   1      45.892 -15.852  44.809  0.00  0.00    -0.044 SA
BRANCH  16  17
ATOM     17  C   UNL d   1      45.897 -15.081  44.517  0.00  0.00     0.099 C 
BRANCH  17  18
ATOM     18  C   UNL d   1      45.270 -14.574  44.680  0.00  0.00     0.271 C 
ATOM     19  N   UNL d   1      45.408 -13.768  44.731  0.00  0.00    -0.272 N 
ATOM     20  C   UNL d   1      44.788 -13.251  44.894  0.00  0.00     0.083 A 
ATOM     21  C   UNL d   1      46.170 -13.471  44.620  0.00  0.00     0.083 A 
ATOM     22  C   UNL d   1      44.927 -12.449  44.944  0.00  0.00     0.019 A 
ATOM     23  C   UNL d   1      45.678 -12.144  44.836  0.00  0.00     0.003 A 
ATOM     24  C   UNL d   1      46.306 -12.655  44.673  0.00  0.00     0.019 A 
ATOM     25  O   UNL d   1      44.512 -14.862  44.791  0.00  0.00    -0.266 OA
ENDBRANCH  17  18
ENDBRANCH  16  17
ENDBRANCH   6  16
TORSDOF 3
ENDMDL
