MODEL 1
REMARK VINA RESULT:      -4.6      0.000      0.000
REMARK  3 active torsions:
REMARK  status: ('A' for Active; 'I' for Inactive)
REMARK    1  A    between atoms: N_2  and  S_1 
REMARK    2  A    between atoms: N_3  and  S_1 
REMARK    3  A    between atoms: C_4  and  N_2 
ROOT
ATOM      1  S   UNL d   1      58.047   0.391  30.703  0.00  0.00     0.351 S 
ATOM      2  O   UNL d   1      57.336   0.623  30.358  0.00  0.00    -0.180 OA
ATOM      3  O   UNL d   1      58.759   0.159  31.055  0.00  0.00    -0.180 OA
ENDROOT
BRANCH   1   4
ATOM      4  N   UNL d   1      57.805   0.545  31.475  0.00  0.00    -0.144 NA
BRANCH   4   5
ATOM      5  C   UNL d   1      57.291   0.017  31.870  0.00  0.00     0.095 A 
ATOM      6  C   UNL d   1      57.112   0.131  32.677  0.00  0.00     0.018 A 
ATOM      7  C   UNL d   1      56.593  -0.386  33.064  0.00  0.00     0.002 A 
ATOM      8  C   UNL d   1      57.553   0.682  33.117  0.00  0.00     0.002 C 
ATOM      9  C   UNL d   1      56.256  -1.023  32.646  0.00  0.00     0.000 A 
ATOM     10  C   UNL d   1      56.426  -1.148  31.836  0.00  0.00     0.002 A 
ATOM     11  C   UNL d   1      55.754  -1.543  33.044  0.00  0.00     0.000 C 
ATOM     12  C   UNL d   1      56.945  -0.620  31.449  0.00  0.00     0.020 A 
ENDBRANCH   4   5
ENDBRANCH   1   4
BRANCH   1  13
ATOM     13  N   UNL d   1      58.351   0.216  29.957  0.00  0.00    -0.215 N 
ATOM     14  C   UNL d   1      59.033  -0.254  29.894  0.00  0.00     0.093 C 
ATOM     15  C   UNL d   1      59.332  -0.425  29.153  0.00  0.00     0.020 C 
ATOM     16  C   UNL d   1      59.035  -0.052  28.479  0.00  0.00     0.003 C 
ATOM     17  C   UNL d   1      58.429   0.501  28.556  0.00  0.00     0.020 C 
ATOM     18  C   UNL d   1      58.120   0.680  29.305  0.00  0.00     0.093 C 
ENDBRANCH   1  13
TORSDOF 3
ENDMDL
MODEL 2
REMARK VINA RESULT:      -4.6      1.154      3.738
REMARK  3 active torsions:
REMARK  status: ('A' for Active; 'I' for Inactive)
REMARK    1  A    between atoms: N_2  and  S_1 
REMARK    2  A    between atoms: N_3  and  S_1 
REMARK    3  A    between atoms: C_4  and  N_2 
ROOT
ATOM      1  S   UNL d   1      57.082  -0.084  31.163  0.00  0.00     0.351 S 
ATOM      2  O   UNL d   1      57.396  -0.842  31.221  0.00  0.00    -0.180 OA
ATOM      3  O   UNL d   1      56.769   0.680  31.100  0.00  0.00    -0.180 OA
ENDROOT
BRANCH   1   4
ATOM      4  N   UNL d   1      57.454   0.093  30.450  0.00  0.00    -0.144 NA
BRANCH   4   5
ATOM      5  C   UNL d   1      58.280   0.223  30.426  0.00  0.00     0.095 A 
ATOM      6  C   UNL d   1      58.713   0.049  29.734  0.00  0.00     0.018 A 
ATOM      7  C   UNL d   1      59.529   0.191  29.707  0.00  0.00     0.002 A 
ATOM      8  C   UNL d   1      58.346  -0.382  29.124  0.00  0.00     0.002 C 
ATOM      9  C   UNL d   1      59.916   0.500  30.376  0.00  0.00     0.000 A 
ATOM     10  C   UNL d   1      59.494   0.681  31.076  0.00  0.00     0.002 A 
ATOM     11  C   UNL d   1      60.732   0.621  30.347  0.00  0.00     0.000 C 
ATOM     12  C   UNL d   1      58.670   0.542  31.096  0.00  0.00     0.020 A 
ENDBRANCH   4   5
ENDBRANCH   1   4
BRANCH   1  13
ATOM     13  N   UNL d   1      56.681  -0.196  31.874  0.00  0.00    -0.215 N 
ATOM     14  C   UNL d   1      56.498  -0.967  32.123  0.00  0.00     0.093 C 
ATOM     15  C   UNL d   1      56.100  -1.074  32.828  0.00  0.00     0.020 C 
ATOM     16  C   UNL d   1      55.782  -0.432  33.238  0.00  0.00     0.003 C 
ATOM     17  C   UNL d   1      55.869   0.327  32.930  0.00  0.00     0.020 C 
ATOM     18  C   UNL d   1      56.272   0.444  32.215  0.00  0.00     0.093 C 
ENDBRANCH   1  13
TORSDOF 3
ENDMDL
MODEL 3
REMARK VINA RESULT:      -4.5      1.275      1.843
REMARK  3 active torsions:
REMARK  status: ('A' for Active; 'I' for Inactive)
REMARK    1  A    between atoms: N_2  and  S_1 
REMARK    2  A    between atoms: N_3  and  S_1 
REMARK    3  A    between atoms: C_4  and  N_2 
ROOT
ATOM      1  S   UNL d   1      57.365  -0.529  31.438  0.00  0.00     0.351 S 
ATOM      2  O   UNL d   1      57.733  -0.196  32.094  0.00  0.00    -0.180 OA
ATOM      3  O   UNL d   1      56.990  -0.865  30.781  0.00  0.00    -0.180 OA
ENDROOT
BRANCH   1   4
ATOM      4  N   UNL d   1      56.809  -0.950  31.874  0.00  0.00    -0.144 NA
BRANCH   4   5
ATOM      5  C   UNL d   1      56.293  -0.551  32.398  0.00  0.00     0.095 A 
ATOM      6  C   UNL d   1      55.897  -0.973  33.000  0.00  0.00     0.018 A 
ATOM      7  C   UNL d   1      55.396  -0.576  33.527  0.00  0.00     0.002 A 
ATOM      8  C   UNL d   1      55.908  -1.805  32.987  0.00  0.00     0.002 C 
ATOM      9  C   UNL d   1      55.284   0.247  33.448  0.00  0.00     0.000 A 
ATOM     10  C   UNL d   1      55.676   0.682  32.850  0.00  0.00     0.002 A 
ATOM     11  C   UNL d   1      54.770   0.632  33.966  0.00  0.00     0.000 C 
ATOM     12  C   UNL d   1      56.185   0.276  32.326  0.00  0.00     0.020 A 
ENDBRANCH   4   5
ENDBRANCH   1   4
BRANCH   1  13
ATOM     13  N   UNL d   1      57.892  -0.134  30.942  0.00  0.00    -0.215 N 
ATOM     14  C   UNL d   1      57.923  -0.333  30.136  0.00  0.00     0.093 C 
ATOM     15  C   UNL d   1      58.447   0.060  29.648  0.00  0.00     0.020 C 
ATOM     16  C   UNL d   1      59.017   0.569  29.960  0.00  0.00     0.003 C 
ATOM     17  C   UNL d   1      59.057   0.681  30.775  0.00  0.00     0.020 C 
ATOM     18  C   UNL d   1      58.528   0.285  31.277  0.00  0.00     0.093 C 
ENDBRANCH   1  13
TORSDOF 3
ENDMDL
MODEL 4
REMARK VINA RESULT:      -3.8      0.916      3.592
REMARK  3 active torsions:
REMARK  status: ('A' for Active; 'I' for Inactive)
REMARK    1  A    between atoms: N_2  and  S_1 
REMARK    2  A    between atoms: N_3  and  S_1 
REMARK    3  A    between atoms: C_4  and  N_2 
ROOT
ATOM      1  S   UNL d   1      57.553   0.458  31.098  0.00  0.00     0.351 S 
ATOM      2  O   UNL d   1      58.306   0.652  31.368  0.00  0.00    -0.180 OA
ATOM      3  O   UNL d   1      56.797   0.263  30.822  0.00  0.00    -0.180 OA
ENDROOT
BRANCH   1   4
ATOM      4  N   UNL d   1      57.748   0.505  30.300  0.00  0.00    -0.144 NA
BRANCH   4   5
ATOM      5  C   UNL d   1      58.107  -0.145  29.915  0.00  0.00     0.095 A 
ATOM      6  C   UNL d   1      58.494  -0.037  29.183  0.00  0.00     0.018 A 
ATOM      7  C   UNL d   1      58.860  -0.679  28.808  0.00  0.00     0.002 A 
ATOM      8  C   UNL d   1      58.399   0.682  28.775  0.00  0.00     0.002 C 
ATOM      9  C   UNL d   1      58.834  -1.433  29.161  0.00  0.00     0.000 A 
ATOM     10  C   UNL d   1      58.451  -1.555  29.895  0.00  0.00     0.002 A 
ATOM     11  C   UNL d   1      59.186  -2.070  28.772  0.00  0.00     0.000 C 
ATOM     12  C   UNL d   1      58.089  -0.903  30.272  0.00  0.00     0.020 A 
ENDBRANCH   4   5
ENDBRANCH   1   4
BRANCH   1  13
ATOM     13  N   UNL d   1      57.291   0.394  31.877  0.00  0.00    -0.215 N 
ATOM     14  C   UNL d   1      56.485   0.265  32.029  0.00  0.00     0.093 C 
ATOM     15  C   UNL d   1      56.229   0.203  32.802  0.00  0.00     0.020 C 
ATOM     16  C   UNL d   1      56.735   0.374  33.431  0.00  0.00     0.003 C 
ATOM     17  C   UNL d   1      57.509   0.611  33.276  0.00  0.00     0.020 C 
ATOM     18  C   UNL d   1      57.776   0.677  32.493  0.00  0.00     0.093 C 
ENDBRANCH   1  13
TORSDOF 3
ENDMDL
MODEL 5
REMARK VINA RESULT:      -3.4      1.784      2.254
REMARK  3 active torsions:
REMARK  status: ('A' for Active; 'I' for Inactive)
REMARK    1  A    between atoms: N_2  and  S_1 
REMARK    2  A    between atoms: N_3  and  S_1 
REMARK    3  A    between atoms: C_4  and  N_2 
ROOT
ATOM      1  S   UNL d   1      57.147  -0.183  32.514  0.00  0.00     0.351 S 
ATOM      2  O   UNL d   1      56.773  -0.888  32.312  0.00  0.00    -0.180 OA
ATOM      3  O   UNL d   1      57.521   0.525  32.723  0.00  0.00    -0.180 OA
ENDROOT
BRANCH   1   4
ATOM      4  N   UNL d   1      56.945  -0.222  33.311  0.00  0.00    -0.144 NA
BRANCH   4   5
ATOM      5  C   UNL d   1      56.177  -0.007  33.563  0.00  0.00     0.095 A 
ATOM      6  C   UNL d   1      56.075   0.459  34.248  0.00  0.00     0.018 A 
ATOM      7  C   UNL d   1      55.315   0.682  34.490  0.00  0.00     0.002 A 
ATOM      8  C   UNL d   1      56.724   0.587  34.752  0.00  0.00     0.002 C 
ATOM      9  C   UNL d   1      54.652   0.433  34.050  0.00  0.00     0.000 A 
ATOM     10  C   UNL d   1      54.740  -0.033  33.361  0.00  0.00     0.002 A 
ATOM     11  C   UNL d   1      53.897   0.644  34.308  0.00  0.00     0.000 C 
ATOM     12  C   UNL d   1      55.510  -0.250  33.118  0.00  0.00     0.020 A 
ENDBRANCH   4   5
ENDBRANCH   1   4
BRANCH   1  13
ATOM     13  N   UNL d   1      57.382  -0.084  31.731  0.00  0.00    -0.215 N 
ATOM     14  C   UNL d   1      57.369  -0.734  31.214  0.00  0.00     0.093 C 
ATOM     15  C   UNL d   1      57.604  -0.632  30.438  0.00  0.00     0.020 C 
ATOM     16  C   UNL d   1      57.953   0.073  30.190  0.00  0.00     0.003 C 
ATOM     17  C   UNL d   1      58.067   0.682  30.734  0.00  0.00     0.020 C 
ATOM     18  C   UNL d   1      57.832   0.586  31.523  0.00  0.00     0.093 C 
ENDBRANCH   1  13
TORSDOF 3
ENDMDL
MODEL 6
REMARK VINA RESULT:      -2.8      9.559     10.302
REMARK  3 active torsions:
REMARK  status: ('A' for Active; 'I' for Inactive)
REMARK    1  A    between atoms: N_2  and  S_1 
REMARK    2  A    between atoms: N_3  and  S_1 
REMARK    3  A    between atoms: C_4  and  N_2 
ROOT
ATOM      1  S   UNL d   1      59.813  -9.397  34.122  0.00  0.00     0.351 S 
ATOM      2  O   UNL d   1      59.122  -9.818  34.275  0.00  0.00    -0.180 OA
ATOM      3  O   UNL d   1      60.507  -8.976  33.963  0.00  0.00    -0.180 OA
ENDROOT
BRANCH   1   4
ATOM      4  N   UNL d   1      59.957  -9.758  33.397  0.00  0.00    -0.144 NA
BRANCH   4   5
ATOM      5  C   UNL d   1      59.366  -9.769  32.805  0.00  0.00     0.095 A 
ATOM      6  C   UNL d   1      59.580  -9.794  31.999  0.00  0.00     0.018 A 
ATOM      7  C   UNL d   1      58.994  -9.817  31.414  0.00  0.00     0.002 A 
ATOM      8  C   UNL d   1      60.374  -9.665  31.785  0.00  0.00     0.002 C 
ATOM      9  C   UNL d   1      58.190  -9.808  31.634  0.00  0.00     0.000 A 
ATOM     10  C   UNL d   1      57.962  -9.786  32.439  0.00  0.00     0.002 A 
ATOM     11  C   UNL d   1      57.613  -9.814  31.045  0.00  0.00     0.000 C 
ATOM     12  C   UNL d   1      58.558  -9.769  33.025  0.00  0.00     0.020 A 
ENDBRANCH   4   5
ENDBRANCH   1   4
BRANCH   1  13
ATOM     13  N   UNL d   1      59.727  -8.997  34.837  0.00  0.00    -0.215 N 
ATOM     14  C   UNL d   1      59.950  -8.198  34.889  0.00  0.00     0.093 C 
ATOM     15  C   UNL d   1      59.865  -7.805  35.600  0.00  0.00     0.020 C 
ATOM     16  C   UNL d   1      59.665  -8.214  36.289  0.00  0.00     0.003 C 
ATOM     17  C   UNL d   1      59.552  -9.029  36.258  0.00  0.00     0.020 C 
ATOM     18  C   UNL d   1      59.637  -9.435  35.540  0.00  0.00     0.093 C 
ENDBRANCH   1  13
TORSDOF 3
ENDMDL
