MODEL 1
REMARK VINA RESULT:      -8.3      0.000      0.000
REMARK  6 active torsions:
REMARK  status: ('A' for Active; 'I' for Inactive)
REMARK    1  A    between atoms: C_8  and  C_1 
REMARK    2  A    between atoms: S_10  and  C_2 
REMARK    3  A    between atoms: C_7  and  C_4 
REMARK    4  A    between atoms: C_23  and  S_10 
REMARK    5  A    between atoms: C_16  and  C_23 
REMARK    6  A    between atoms: O_25  and  C_16 
ROOT
ATOM      1  C   UNL d   1     -47.667  13.732  22.523  0.00  0.00     0.045 A 
ATOM      2  C   UNL d   1     -46.986  13.213  22.605  0.00  0.00     0.112 A 
ATOM      3  C   UNL d   1     -48.498  12.699  23.072  0.00  0.00     0.057 A 
ATOM      4  C   UNL d   1     -48.409  13.461  22.759  0.00  0.00     0.008 A 
ATOM      5  C   UNL d   1     -47.843  12.200  23.151  0.00  0.00     0.085 A 
ATOM      6  N   UNL d   1     -47.091  12.458  22.918  0.00  0.00    -0.239 NA
ATOM      7  C   UNL d   1     -49.248  12.446  23.302  0.00  0.00     0.197 A 
ATOM      8  O   UNL d   1     -49.907  12.947  23.222  0.00  0.00    -0.286 OA
ATOM      9  C   UNL d   1     -47.929  11.443  23.462  0.00  0.00     0.019 A 
ATOM     10  C   UNL d   1     -49.353  11.689  23.615  0.00  0.00     0.042 A 
ATOM     11  C   UNL d   1     -48.672  11.171  23.698  0.00  0.00     0.005 A 
ENDROOT
BRANCH   4  12
ATOM     12  C   UNL d   1     -49.069  13.962  22.679  0.00  0.00     0.002 A 
ATOM     13  C   UNL d   1     -49.267  14.492  23.277  0.00  0.00     0.026 A 
ATOM     14  C   UNL d   1     -49.921  14.990  23.198  0.00  0.00     0.119 A 
ATOM     15  O   UNL d   1     -50.253  15.569  23.697  0.00  0.00    -0.300 OA
ATOM     16  C   UNL d   1     -50.382  14.961  22.520  0.00  0.00     0.119 A 
ATOM     17  C   UNL d   1     -50.899  15.883  23.325  0.00  0.00     0.304 A 
ATOM     18  O   UNL d   1     -50.984  15.518  22.608  0.00  0.00    -0.300 OA
ATOM     19  C   UNL d   1     -50.179  14.405  21.882  0.00  0.00     0.026 A 
ATOM     20  C   UNL d   1     -49.525  13.918  21.981  0.00  0.00     0.002 A 
ENDBRANCH   4  12
BRANCH   1  21
ATOM     21  C   UNL d   1     -47.598  14.522  22.202  0.00  0.00     0.124 C 
ATOM     22  N   UNL d   1     -47.176  15.091  22.608  0.00  0.00    -0.146 N 
ENDBRANCH   1  21
BRANCH   2  23
ATOM     23  S   UNL d   1     -46.200  13.458  22.372  0.00  0.00    -0.062 SA
BRANCH  23  24
ATOM     24  C   UNL d   1     -45.683  12.913  22.050  0.00  0.00     0.105 C 
BRANCH  24  25
ATOM     25  C   UNL d   1     -44.899  13.123  21.911  0.00  0.00     0.303 C 
ATOM     26  O   UNL d   1     -44.639  13.883  22.086  0.00  0.00    -0.259 OA
BRANCH  25  27
ATOM     27  O   UNL d   1     -44.376  12.574  21.596  0.00  0.00    -0.295 OA
ATOM     28  C   UNL d   1     -43.566  12.619  21.749  0.00  0.00     0.185 C 
ENDBRANCH  25  27
ENDBRANCH  24  25
ENDBRANCH  23  24
ENDBRANCH   2  23
TORSDOF 6
ENDMDL
MODEL 2
REMARK VINA RESULT:      -7.9      1.777      2.743
REMARK  6 active torsions:
REMARK  status: ('A' for Active; 'I' for Inactive)
REMARK    1  A    between atoms: C_8  and  C_1 
REMARK    2  A    between atoms: S_10  and  C_2 
REMARK    3  A    between atoms: C_7  and  C_4 
REMARK    4  A    between atoms: C_23  and  S_10 
REMARK    5  A    between atoms: C_16  and  C_23 
REMARK    6  A    between atoms: O_25  and  C_16 
ROOT
ATOM      1  C   UNL d   1     -47.448  12.140  23.173  0.00  0.00     0.045 A 
ATOM      2  C   UNL d   1     -46.595  12.109  23.277  0.00  0.00     0.112 A 
ATOM      3  C   UNL d   1     -47.346  13.544  22.895  0.00  0.00     0.057 A 
ATOM      4  C   UNL d   1     -47.804  12.859  22.984  0.00  0.00     0.008 A 
ATOM      5  C   UNL d   1     -46.526  13.514  22.996  0.00  0.00     0.085 A 
ATOM      6  N   UNL d   1     -46.154  12.799  23.186  0.00  0.00    -0.239 NA
ATOM      7  C   UNL d   1     -47.720  14.253  22.706  0.00  0.00     0.197 A 
ATOM      8  O   UNL d   1     -48.545  14.283  22.605  0.00  0.00    -0.286 OA
ATOM      9  C   UNL d   1     -46.069  14.193  22.908  0.00  0.00     0.019 A 
ATOM     10  C   UNL d   1     -47.278  14.945  22.614  0.00  0.00     0.042 A 
ATOM     11  C   UNL d   1     -46.425  14.914  22.719  0.00  0.00     0.005 A 
ENDROOT
BRANCH   4  12
ATOM     12  C   UNL d   1     -48.630  12.889  22.883  0.00  0.00     0.002 A 
ATOM     13  C   UNL d   1     -48.969  12.721  22.151  0.00  0.00     0.026 A 
ATOM     14  C   UNL d   1     -49.788  12.750  22.051  0.00  0.00     0.119 A 
ATOM     15  O   UNL d   1     -50.281  12.612  21.393  0.00  0.00    -0.300 OA
ATOM     16  C   UNL d   1     -50.274  12.949  22.682  0.00  0.00     0.119 A 
ATOM     17  C   UNL d   1     -51.049  12.725  21.626  0.00  0.00     0.304 A 
ATOM     18  O   UNL d   1     -51.052  12.930  22.408  0.00  0.00    -0.300 OA
ATOM     19  C   UNL d   1     -49.924  13.129  23.458  0.00  0.00     0.026 A 
ATOM     20  C   UNL d   1     -49.108  13.093  23.537  0.00  0.00     0.002 A 
ENDBRANCH   4  12
BRANCH   1  21
ATOM     21  C   UNL d   1     -47.940  11.445  23.259  0.00  0.00     0.124 C 
ATOM     22  N   UNL d   1     -47.674  10.810  23.698  0.00  0.00    -0.146 N 
ENDBRANCH   1  21
BRANCH   2  23
ATOM     23  S   UNL d   1     -46.189  11.382  23.474  0.00  0.00    -0.062 SA
BRANCH  23  24
ATOM     24  C   UNL d   1     -45.461  11.220  23.140  0.00  0.00     0.105 C 
BRANCH  24  25
ATOM     25  C   UNL d   1     -44.965  10.663  23.490  0.00  0.00     0.303 C 
ATOM     26  O   UNL d   1     -45.257   9.924  23.698  0.00  0.00    -0.259 OA
BRANCH  25  27
ATOM     27  O   UNL d   1     -44.176  10.846  23.630  0.00  0.00    -0.295 OA
ATOM     28  C   UNL d   1     -43.606  10.252  23.694  0.00  0.00     0.185 C 
ENDBRANCH  25  27
ENDBRANCH  24  25
ENDBRANCH  23  24
ENDBRANCH   2  23
TORSDOF 6
ENDMDL
MODEL 3
REMARK VINA RESULT:      -6.2      1.056      4.352
REMARK  6 active torsions:
REMARK  status: ('A' for Active; 'I' for Inactive)
REMARK    1  A    between atoms: C_8  and  C_1 
REMARK    2  A    between atoms: S_10  and  C_2 
REMARK    3  A    between atoms: C_7  and  C_4 
REMARK    4  A    between atoms: C_23  and  S_10 
REMARK    5  A    between atoms: C_16  and  C_23 
REMARK    6  A    between atoms: O_25  and  C_16 
ROOT
ATOM      1  C   UNL d   1     -47.873  13.662  22.607  0.00  0.00     0.045 A 
ATOM      2  C   UNL d   1     -48.724  13.639  22.730  0.00  0.00     0.112 A 
ATOM      3  C   UNL d   1     -47.784  12.313  23.090  0.00  0.00     0.057 A 
ATOM      4  C   UNL d   1     -47.422  12.996  22.791  0.00  0.00     0.008 A 
ATOM      5  C   UNL d   1     -48.603  12.291  23.208  0.00  0.00     0.085 A 
ATOM      6  N   UNL d   1     -49.069  12.952  23.029  0.00  0.00    -0.239 NA
ATOM      7  C   UNL d   1     -47.318  11.658  23.267  0.00  0.00     0.197 A 
ATOM      8  O   UNL d   1     -46.494  11.681  23.148  0.00  0.00    -0.286 OA
ATOM      9  C   UNL d   1     -48.964  11.614  23.505  0.00  0.00     0.019 A 
ATOM     10  C   UNL d   1     -47.662  10.970  23.565  0.00  0.00     0.042 A 
ATOM     11  C   UNL d   1     -48.513  10.947  23.688  0.00  0.00     0.005 A 
ENDROOT
BRANCH   4  12
ATOM     12  C   UNL d   1     -46.599  13.019  22.672  0.00  0.00     0.002 A 
ATOM     13  C   UNL d   1     -46.284  12.959  21.913  0.00  0.00     0.026 A 
ATOM     14  C   UNL d   1     -45.467  12.981  21.795  0.00  0.00     0.119 A 
ATOM     15  O   UNL d   1     -44.994  12.935  21.110  0.00  0.00    -0.300 OA
ATOM     16  C   UNL d   1     -44.959  13.063  22.435  0.00  0.00     0.119 A 
ATOM     17  C   UNL d   1     -44.218  12.988  21.335  0.00  0.00     0.304 A 
ATOM     18  O   UNL d   1     -44.189  13.066  22.139  0.00  0.00    -0.300 OA
ATOM     19  C   UNL d   1     -45.284  13.126  23.240  0.00  0.00     0.026 A 
ATOM     20  C   UNL d   1     -46.099  13.102  23.335  0.00  0.00     0.002 A 
ENDBRANCH   4  12
BRANCH   1  21
ATOM     21  C   UNL d   1     -47.479  14.356  22.300  0.00  0.00     0.124 C 
ATOM     22  N   UNL d   1     -47.623  15.088  22.633  0.00  0.00    -0.146 N 
ENDBRANCH   1  21
BRANCH   2  23
ATOM     23  S   UNL d   1     -49.226  14.309  22.552  0.00  0.00    -0.062 SA
BRANCH  23  24
ATOM     24  C   UNL d   1     -49.988  14.336  22.846  0.00  0.00     0.105 C 
BRANCH  24  25
ATOM     25  C   UNL d   1     -50.460  14.995  22.701  0.00  0.00     0.303 C 
ATOM     26  O   UNL d   1     -50.983  14.996  22.067  0.00  0.00    -0.259 OA
BRANCH  25  27
ATOM     27  O   UNL d   1     -50.409  15.653  23.191  0.00  0.00    -0.295 OA
ATOM     28  C   UNL d   1     -51.064  15.922  23.614  0.00  0.00     0.185 C 
ENDBRANCH  25  27
ENDBRANCH  24  25
ENDBRANCH  23  24
ENDBRANCH   2  23
TORSDOF 6
ENDMDL
MODEL 4
REMARK VINA RESULT:      -5.5      8.312      9.940
REMARK  6 active torsions:
REMARK  status: ('A' for Active; 'I' for Inactive)
REMARK    1  A    between atoms: C_8  and  C_1 
REMARK    2  A    between atoms: S_10  and  C_2 
REMARK    3  A    between atoms: C_7  and  C_4 
REMARK    4  A    between atoms: C_23  and  S_10 
REMARK    5  A    between atoms: C_16  and  C_23 
REMARK    6  A    between atoms: O_25  and  C_16 
ROOT
ATOM      1  C   UNL d   1     -38.808  14.290  19.885  0.00  0.00     0.045 A 
ATOM      2  C   UNL d   1     -39.124  14.401  19.093  0.00  0.00     0.112 A 
ATOM      3  C   UNL d   1     -39.903  15.054  20.410  0.00  0.00     0.057 A 
ATOM      4  C   UNL d   1     -39.207  14.620  20.526  0.00  0.00     0.008 A 
ATOM      5  C   UNL d   1     -40.207  15.161  19.649  0.00  0.00     0.085 A 
ATOM      6  N   UNL d   1     -39.819  14.835  18.994  0.00  0.00    -0.239 NA
ATOM      7  C   UNL d   1     -40.287  15.376  21.064  0.00  0.00     0.197 A 
ATOM      8  O   UNL d   1     -39.981  15.268  21.830  0.00  0.00    -0.286 OA
ATOM      9  C   UNL d   1     -40.899  15.591  19.531  0.00  0.00     0.019 A 
ATOM     10  C   UNL d   1     -40.982  15.811  20.966  0.00  0.00     0.042 A 
ATOM     11  C   UNL d   1     -41.298  15.922  20.174  0.00  0.00     0.005 A 
ENDROOT
BRANCH   4  12
ATOM     12  C   UNL d   1     -38.901  14.512  21.293  0.00  0.00     0.002 A 
ATOM     13  C   UNL d   1     -39.076  13.832  21.722  0.00  0.00     0.026 A 
ATOM     14  C   UNL d   1     -38.772  13.725  22.483  0.00  0.00     0.119 A 
ATOM     15  O   UNL d   1     -38.850  13.109  23.040  0.00  0.00    -0.300 OA
ATOM     16  C   UNL d   1     -38.291  14.298  22.820  0.00  0.00     0.119 A 
ATOM     17  C   UNL d   1     -38.423  13.310  23.698  0.00  0.00     0.304 A 
ATOM     18  O   UNL d   1     -38.081  14.032  23.571  0.00  0.00    -0.300 OA
ATOM     19  C   UNL d   1     -38.102  15.021  22.373  0.00  0.00     0.026 A 
ATOM     20  C   UNL d   1     -38.414  15.107  21.618  0.00  0.00     0.002 A 
ENDBRANCH   4  12
BRANCH   1  21
ATOM     21  C   UNL d   1     -38.091  13.846  20.027  0.00  0.00     0.124 C 
ATOM     22  N   UNL d   1     -37.942  13.165  19.602  0.00  0.00    -0.146 N 
ENDBRANCH   1  21
BRANCH   2  23
ATOM     23  S   UNL d   1     -38.740  14.074  18.401  0.00  0.00    -0.062 SA
BRANCH  23  24
ATOM     24  C   UNL d   1     -39.160  13.986  17.706  0.00  0.00     0.105 C 
BRANCH  24  25
ATOM     25  C   UNL d   1     -38.777  13.722  17.026  0.00  0.00     0.303 C 
ATOM     26  O   UNL d   1     -38.636  12.920  16.918  0.00  0.00    -0.259 OA
BRANCH  25  27
ATOM     27  O   UNL d   1     -38.535  14.260  16.455  0.00  0.00    -0.295 OA
ATOM     28  C   UNL d   1     -38.116  14.015  15.787  0.00  0.00     0.185 C 
ENDBRANCH  25  27
ENDBRANCH  24  25
ENDBRANCH  23  24
ENDBRANCH   2  23
TORSDOF 6
ENDMDL
