MODEL 1
REMARK VINA RESULT:      95.7      0.000      0.000
REMARK  7 active torsions:
REMARK  status: ('A' for Active; 'I' for Inactive)
REMARK    1  A    between atoms: C_3  and  S_1 
REMARK    2  A    between atoms: N_4  and  S_1 
REMARK    3  A    between atoms: C_2  and  C_9 
REMARK       I    between atoms: N_5  and  C_2 
REMARK    4  A    between atoms: C_15  and  N_4 
REMARK    5  A    between atoms: C_10  and  N_5 
REMARK    6  A    between atoms: C_18  and  C_15 
REMARK    7  A    between atoms: O_22  and  C_16 
ROOT
ATOM      1  C   UNL d   1      61.812  44.546  50.271  0.00  0.00     0.058 A 
ATOM      2  C   UNL d   1      62.296  44.976  49.755  0.00  0.00     0.005 A 
ATOM      3  C   UNL d   1      61.146  44.899  50.601  0.00  0.00     0.005 A 
ATOM      4  C   UNL d   1      61.450  46.107  49.903  0.00  0.00     0.020 A 
ATOM      5  C   UNL d   1      62.114  45.754  49.573  0.00  0.00     0.002 A 
ATOM      6  C   UNL d   1      60.967  45.682  50.415  0.00  0.00     0.002 A 
ENDROOT
BRANCH   4   7
ATOM      7  C   UNL d   1      61.262  46.893  49.722  0.00  0.00     0.112 C 
BRANCH   7   8
ATOM      8  N   UNL d   1      61.646  47.509  50.119  0.00  0.00    -0.157 NA
BRANCH   8   9
ATOM      9  S   UNL d   1      61.204  48.059  50.559  0.00  0.00     0.285 S 
ATOM     10  O   UNL d   1      60.975  47.459  51.086  0.00  0.00    -0.198 OA
ATOM     11  O   UNL d   1      61.433  48.664  50.030  0.00  0.00    -0.198 OA
BRANCH   9  12
ATOM     12  C   UNL d   1      60.765  48.609  50.994  0.00  0.00     0.107 A 
ATOM     13  C   UNL d   1      60.040  48.875  50.713  0.00  0.00     0.037 A 
ATOM     14  C   UNL d   1      59.598  49.424  51.144  0.00  0.00     0.095 A 
ATOM     15  C   UNL d   1      59.882  49.708  51.857  0.00  0.00     0.024 A 
ATOM     16  C   UNL d   1      60.613  49.443  52.145  0.00  0.00     0.003 A 
ATOM     17  C   UNL d   1      61.054  48.894  51.713  0.00  0.00     0.013 A 
BRANCH  14  18
ATOM     18  O   UNL d   1      58.871  49.689  50.860  0.00  0.00    -0.328 OA
ATOM     19  C   UNL d   1      58.726  49.708  50.058  0.00  0.00     0.181 C 
ENDBRANCH  14  18
ENDBRANCH   9  12
ENDBRANCH   8   9
ENDBRANCH   7   8
ENDBRANCH   4   7
BRANCH   1  20
ATOM     20  C   UNL d   1      61.990  43.759  50.459  0.00  0.00     0.279 C 
ATOM     21  N   UNL d   1      62.608  43.381  50.076  0.00  0.00    -0.208 NA
ATOM     22  O   UNL d   1      61.551  43.357  51.027  0.00  0.00    -0.265 OA
BRANCH  21  23
ATOM     23  C   UNL d   1      62.786  42.599  50.263  0.00  0.00     0.086 A 
ATOM     24  C   UNL d   1      62.766  42.023  49.666  0.00  0.00     0.031 A 
ATOM     25  C   UNL d   1      62.945  41.241  49.856  0.00  0.00     0.059 A 
ATOM     26 CL   UNL d   1      62.926  40.669  49.266  0.00  0.00    -0.082 Cl
ATOM     27  C   UNL d   1      63.140  41.033  50.631  0.00  0.00     0.011 A 
ATOM     28  C   UNL d   1      63.157  41.613  51.219  0.00  0.00     0.002 A 
ATOM     29  C   UNL d   1      62.979  42.395  51.028  0.00  0.00     0.019 A 
ENDBRANCH  21  23
ENDBRANCH   1  20
TORSDOF 7
ENDMDL
MODEL 2
REMARK VINA RESULT:      97.8      0.906      1.161
REMARK  7 active torsions:
REMARK  status: ('A' for Active; 'I' for Inactive)
REMARK    1  A    between atoms: C_3  and  S_1 
REMARK    2  A    between atoms: N_4  and  S_1 
REMARK    3  A    between atoms: C_2  and  C_9 
REMARK       I    between atoms: N_5  and  C_2 
REMARK    4  A    between atoms: C_15  and  N_4 
REMARK    5  A    between atoms: C_10  and  N_5 
REMARK    6  A    between atoms: C_18  and  C_15 
REMARK    7  A    between atoms: O_22  and  C_16 
ROOT
ATOM      1  C   UNL d   1      62.128  44.931  50.038  0.00  0.00     0.058 A 
ATOM      2  C   UNL d   1      61.398  45.153  50.360  0.00  0.00     0.005 A 
ATOM      3  C   UNL d   1      62.551  45.461  49.573  0.00  0.00     0.005 A 
ATOM      4  C   UNL d   1      61.517  46.430  49.750  0.00  0.00     0.020 A 
ATOM      5  C   UNL d   1      61.095  45.900  50.215  0.00  0.00     0.002 A 
ATOM      6  C   UNL d   1      62.242  46.212  49.429  0.00  0.00     0.002 A 
ENDROOT
BRANCH   4   7
ATOM      7  C   UNL d   1      61.215  47.185  49.601  0.00  0.00     0.112 C 
BRANCH   7   8
ATOM      8  N   UNL d   1      61.508  47.835  50.022  0.00  0.00    -0.157 NA
BRANCH   8   9
ATOM      9  S   UNL d   1      60.991  48.302  50.477  0.00  0.00     0.285 S 
ATOM     10  O   UNL d   1      60.693  47.620  50.846  0.00  0.00    -0.198 OA
ATOM     11  O   UNL d   1      61.289  48.990  50.108  0.00  0.00    -0.198 OA
BRANCH   9  12
ATOM     12  C   UNL d   1      60.479  48.769  50.928  0.00  0.00     0.107 A 
ATOM     13  C   UNL d   1      59.740  48.976  50.634  0.00  0.00     0.037 A 
ATOM     14  C   UNL d   1      59.225  49.442  51.081  0.00  0.00     0.095 A 
ATOM     15  C   UNL d   1      59.449  49.703  51.823  0.00  0.00     0.024 A 
ATOM     16  C   UNL d   1      60.193  49.497  52.125  0.00  0.00     0.003 A 
ATOM     17  C   UNL d   1      60.708  49.030  51.677  0.00  0.00     0.013 A 
BRANCH  14  18
ATOM     18  O   UNL d   1      58.485  49.648  50.783  0.00  0.00    -0.328 OA
ATOM     19  C   UNL d   1      57.843  49.706  51.281  0.00  0.00     0.181 C 
ENDBRANCH  14  18
ENDBRANCH   9  12
ENDBRANCH   8   9
ENDBRANCH   7   8
ENDBRANCH   4   7
BRANCH   1  20
ATOM     20  C   UNL d   1      62.440  44.176  50.181  0.00  0.00     0.279 C 
ATOM     21  N   UNL d   1      62.030  43.653  50.660  0.00  0.00    -0.208 NA
ATOM     22  O   UNL d   1      63.157  43.952  49.846  0.00  0.00    -0.265 OA
BRANCH  21  23
ATOM     23  C   UNL d   1      62.339  42.902  50.802  0.00  0.00     0.086 A 
ATOM     24  C   UNL d   1      62.132  42.501  51.498  0.00  0.00     0.031 A 
ATOM     25  C   UNL d   1      62.443  41.751  51.637  0.00  0.00     0.059 A 
ATOM     26 CL   UNL d   1      62.238  41.352  52.326  0.00  0.00    -0.082 Cl
ATOM     27  C   UNL d   1      62.955  41.403  51.091  0.00  0.00     0.011 A 
ATOM     28  C   UNL d   1      63.157  41.810  50.401  0.00  0.00     0.002 A 
ATOM     29  C   UNL d   1      62.845  42.560  50.262  0.00  0.00     0.019 A 
ENDBRANCH  21  23
ENDBRANCH   1  20
TORSDOF 7
ENDMDL
