MODEL 1
REMARK VINA RESULT:      11.2      0.000      0.000
REMARK  5 active torsions:
REMARK  status: ('A' for Active; 'I' for Inactive)
REMARK    1  A    between atoms: C_2  and  S_1 
REMARK    2  A    between atoms: N_3  and  S_1 
REMARK    3  A    between atoms: C_11  and  N_3 
REMARK    4  A    between atoms: O_13  and  C_5 
REMARK    5  A    between atoms: C_14  and  C_11 
ROOT
ATOM      1  S   UNL d   1      46.277 -17.414  43.973  0.00  0.00     0.285 S 
ATOM      2  O   UNL d   1      46.172 -17.035  43.248  0.00  0.00    -0.198 OA
ATOM      3  O   UNL d   1      46.382 -17.790  44.698  0.00  0.00    -0.198 OA
ENDROOT
BRANCH   1   4
ATOM      4  C   UNL d   1      46.303 -18.143  43.588  0.00  0.00     0.107 A 
ATOM      5  C   UNL d   1      46.362 -18.839  44.028  0.00  0.00     0.039 A 
ATOM      6  C   UNL d   1      46.388 -19.568  43.643  0.00  0.00     0.122 A 
ATOM      7  C   UNL d   1      46.356 -19.601  42.817  0.00  0.00     0.162 A 
ATOM      8  C   UNL d   1      46.297 -18.906  42.381  0.00  0.00     0.032 A 
ATOM      9  F   UNL d   1      46.382 -20.330  42.436  0.00  0.00    -0.202 F 
ATOM     10  C   UNL d   1      46.271 -18.177  42.762  0.00  0.00     0.015 A 
BRANCH   6  11
ATOM     11  O   UNL d   1      46.447 -20.263  44.082  0.00  0.00    -0.326 OA
ATOM     12  C   UNL d   1      46.131 -20.298  44.846  0.00  0.00     0.181 C 
ENDBRANCH   6  11
ENDBRANCH   1   4
BRANCH   1  13
ATOM     13  N   UNL d   1      46.251 -16.681  44.359  0.00  0.00    -0.157 NA
BRANCH  13  14
ATOM     14  C   UNL d   1      45.524 -16.323  44.514  0.00  0.00     0.112 C 
BRANCH  14  15
ATOM     15  C   UNL d   1      45.489 -15.512  44.659  0.00  0.00     0.020 A 
ATOM     16  C   UNL d   1      46.181 -15.087  44.809  0.00  0.00     0.002 A 
ATOM     17  C   UNL d   1      46.142 -14.269  44.955  0.00  0.00     0.000 A 
ATOM     18  C   UNL d   1      45.413 -13.883  44.950  0.00  0.00     0.000 A 
ATOM     19  C   UNL d   1      44.720 -14.307  44.800  0.00  0.00     0.000 A 
ATOM     20  C   UNL d   1      44.755 -15.119  44.655  0.00  0.00     0.002 A 
ENDBRANCH  14  15
ENDBRANCH  13  14
ENDBRANCH   1  13
TORSDOF 5
ENDMDL
MODEL 2
REMARK VINA RESULT:      11.8      1.994      4.714
REMARK  5 active torsions:
REMARK  status: ('A' for Active; 'I' for Inactive)
REMARK    1  A    between atoms: C_2  and  S_1 
REMARK    2  A    between atoms: N_3  and  S_1 
REMARK    3  A    between atoms: C_11  and  N_3 
REMARK    4  A    between atoms: O_13  and  C_5 
REMARK    5  A    between atoms: C_14  and  C_11 
ROOT
ATOM      1  S   UNL d   1      45.988 -16.400  44.174  0.00  0.00     0.285 S 
ATOM      2  O   UNL d   1      46.234 -16.502  44.954  0.00  0.00    -0.198 OA
ATOM      3  O   UNL d   1      45.743 -16.300  43.394  0.00  0.00    -0.198 OA
ENDROOT
BRANCH   1   4
ATOM      4  C   UNL d   1      45.677 -15.661  44.369  0.00  0.00     0.107 A 
ATOM      5  C   UNL d   1      46.119 -14.979  44.228  0.00  0.00     0.039 A 
ATOM      6  C   UNL d   1      45.808 -14.240  44.423  0.00  0.00     0.122 A 
ATOM      7  C   UNL d   1      45.054 -14.184  44.759  0.00  0.00     0.162 A 
ATOM      8  C   UNL d   1      44.616 -14.866  44.898  0.00  0.00     0.032 A 
ATOM      9  F   UNL d   1      44.747 -13.445  44.952  0.00  0.00    -0.202 F 
ATOM     10  C   UNL d   1      44.924 -15.605  44.704  0.00  0.00     0.015 A 
BRANCH   6  11
ATOM     11  O   UNL d   1      46.250 -13.558  44.282  0.00  0.00    -0.326 OA
ATOM     12  C   UNL d   1      46.261 -12.949  44.842  0.00  0.00     0.181 C 
ENDBRANCH   6  11
ENDBRANCH   1   4
BRANCH   1  13
ATOM     13  N   UNL d   1      46.301 -17.142  43.979  0.00  0.00    -0.157 NA
BRANCH  13  14
ATOM     14  C   UNL d   1      45.878 -17.650  43.485  0.00  0.00     0.112 C 
BRANCH  14  15
ATOM     15  C   UNL d   1      46.134 -18.428  43.381  0.00  0.00     0.020 A 
ATOM     16  C   UNL d   1      46.334 -18.890  44.037  0.00  0.00     0.002 A 
ATOM     17  C   UNL d   1      46.591 -19.674  43.928  0.00  0.00     0.000 A 
ATOM     18  C   UNL d   1      46.646 -19.989  43.168  0.00  0.00     0.000 A 
ATOM     19  C   UNL d   1      46.447 -19.528  42.512  0.00  0.00     0.000 A 
ATOM     20  C   UNL d   1      46.191 -18.750  42.616  0.00  0.00     0.002 A 
ENDBRANCH  14  15
ENDBRANCH  13  14
ENDBRANCH   1  13
TORSDOF 5
ENDMDL
