MODEL 1
REMARK VINA RESULT:      -7.4      0.000      0.000
REMARK  2 active torsions:
REMARK  status: ('A' for Active; 'I' for Inactive)
REMARK    1  A    between atoms: C_6  and  C_1 
REMARK    2  A    between atoms: C_7  and  C_5 
ROOT
ATOM      1  C   UNL d   1     -46.326  13.416  22.617  0.00  0.00     0.169 A 
ATOM      2  C   UNL d   1     -46.492  14.032  23.020  0.00  0.00     0.048 A 
ATOM      3  N   UNL d   1     -47.584  13.316  22.251  0.00  0.00    -0.148 NA
ATOM      4  N   UNL d   1     -46.869  13.053  22.229  0.00  0.00    -0.142 NA
ATOM      5  C   UNL d   1     -47.750  13.932  22.654  0.00  0.00     0.105 A 
ENDROOT
BRANCH   5   6
ATOM      6  C   UNL d   1     -48.434  14.365  22.804  0.00  0.00     0.019 A 
ATOM      7  C   UNL d   1     -48.533  15.120  22.476  0.00  0.00     0.002 A 
ATOM      8  C   UNL d   1     -49.222  15.556  22.627  0.00  0.00     0.000 A 
ATOM      9  C   UNL d   1     -49.816  15.236  23.108  0.00  0.00     0.000 A 
ATOM     10  C   UNL d   1     -49.715  14.473  23.439  0.00  0.00     0.000 A 
ATOM     11  C   UNL d   1     -50.497  15.662  23.261  0.00  0.00     0.000 C 
ATOM     12  C   UNL d   1     -49.025  14.046  23.283  0.00  0.00     0.002 A 
ENDBRANCH   5   6
BRANCH   1  13
ATOM     13  C   UNL d   1     -45.610  13.152  22.596  0.00  0.00     0.231 C 
ATOM     14  O   UNL d   1     -45.098  13.477  22.144  0.00  0.00    -0.643 OA
ATOM     15  O   UNL d   1     -45.416  12.562  23.033  0.00  0.00    -0.643 OA
ENDBRANCH   1  13
TORSDOF 2
ENDMDL
MODEL 2
REMARK VINA RESULT:      -7.1      2.371      3.841
REMARK  2 active torsions:
REMARK  status: ('A' for Active; 'I' for Inactive)
REMARK    1  A    between atoms: C_6  and  C_1 
REMARK    2  A    between atoms: C_7  and  C_5 
ROOT
ATOM      1  C   UNL d   1     -49.281  15.016  22.947  0.00  0.00     0.169 A 
ATOM      2  C   UNL d   1     -49.324  14.364  23.324  0.00  0.00     0.048 A 
ATOM      3  N   UNL d   1     -48.057  14.720  22.572  0.00  0.00    -0.148 NA
ATOM      4  N   UNL d   1     -48.649  15.200  22.568  0.00  0.00    -0.142 NA
ATOM      5  C   UNL d   1     -48.100  14.067  22.949  0.00  0.00     0.105 A 
ENDROOT
BRANCH   5   6
ATOM      6  C   UNL d   1     -47.593  13.431  23.075  0.00  0.00     0.019 A 
ATOM      7  C   UNL d   1     -47.892  12.698  23.323  0.00  0.00     0.002 A 
ATOM      8  C   UNL d   1     -47.381  12.058  23.450  0.00  0.00     0.000 A 
ATOM      9  C   UNL d   1     -46.566  12.149  23.329  0.00  0.00     0.000 A 
ATOM     10  C   UNL d   1     -46.265  12.889  23.079  0.00  0.00     0.000 A 
ATOM     11  C   UNL d   1     -46.058  11.521  23.453  0.00  0.00     0.000 C 
ATOM     12  C   UNL d   1     -46.782  13.523  22.954  0.00  0.00     0.002 A 
ENDBRANCH   5   6
BRANCH   1  13
ATOM     13  C   UNL d   1     -49.874  15.497  22.943  0.00  0.00     0.231 C 
ATOM     14  O   UNL d   1     -50.023  15.922  23.551  0.00  0.00    -0.643 OA
ATOM     15  O   UNL d   1     -50.312  15.545  22.325  0.00  0.00    -0.643 OA
ENDBRANCH   1  13
TORSDOF 2
ENDMDL
MODEL 3
REMARK VINA RESULT:      -6.8      2.872      3.950
REMARK  2 active torsions:
REMARK  status: ('A' for Active; 'I' for Inactive)
REMARK    1  A    between atoms: C_6  and  C_1 
REMARK    2  A    between atoms: C_7  and  C_5 
ROOT
ATOM      1  C   UNL d   1     -49.783  11.932  23.350  0.00  0.00     0.169 A 
ATOM      2  C   UNL d   1     -49.557  12.604  23.090  0.00  0.00     0.048 A 
ATOM      3  N   UNL d   1     -48.535  11.518  23.366  0.00  0.00    -0.148 NA
ATOM      4  N   UNL d   1     -49.276  11.384  23.490  0.00  0.00    -0.142 NA
ATOM      5  C   UNL d   1     -48.309  12.190  23.106  0.00  0.00     0.105 A 
ENDROOT
BRANCH   5   6
ATOM      6  C   UNL d   1     -47.584  12.527  22.911  0.00  0.00     0.019 A 
ATOM      7  C   UNL d   1     -47.524  13.054  22.274  0.00  0.00     0.002 A 
ATOM      8  C   UNL d   1     -46.793  13.394  22.078  0.00  0.00     0.000 A 
ATOM      9  C   UNL d   1     -46.118  13.206  22.521  0.00  0.00     0.000 A 
ATOM     10  C   UNL d   1     -46.180  12.674  23.165  0.00  0.00     0.000 A 
ATOM     11  C   UNL d   1     -45.396  13.538  22.333  0.00  0.00     0.000 C 
ATOM     12  C   UNL d   1     -46.913  12.340  23.353  0.00  0.00     0.002 A 
ENDBRANCH   5   6
BRANCH   1  13
ATOM     13  C   UNL d   1     -50.524  11.798  23.474  0.00  0.00     0.231 C 
ATOM     14  O   UNL d   1     -51.030  12.353  23.390  0.00  0.00    -0.643 OA
ATOM     15  O   UNL d   1     -50.748  11.103  23.683  0.00  0.00    -0.643 OA
ENDBRANCH   1  13
TORSDOF 2
ENDMDL
MODEL 4
REMARK VINA RESULT:      -6.4      1.347      2.009
REMARK  2 active torsions:
REMARK  status: ('A' for Active; 'I' for Inactive)
REMARK    1  A    between atoms: C_6  and  C_1 
REMARK    2  A    between atoms: C_7  and  C_5 
ROOT
ATOM      1  C   UNL d   1     -45.310  11.876  23.057  0.00  0.00     0.169 A 
ATOM      2  C   UNL d   1     -46.012  11.894  23.336  0.00  0.00     0.048 A 
ATOM      3  N   UNL d   1     -45.546  12.986  22.394  0.00  0.00    -0.148 NA
ATOM      4  N   UNL d   1     -45.071  12.420  22.585  0.00  0.00    -0.142 NA
ATOM      5  C   UNL d   1     -46.248  13.003  22.672  0.00  0.00     0.105 A 
ENDROOT
BRANCH   5   6
ATOM      6  C   UNL d   1     -46.895  13.506  22.595  0.00  0.00     0.019 A 
ATOM      7  C   UNL d   1     -46.865  14.277  22.899  0.00  0.00     0.002 A 
ATOM      8  C   UNL d   1     -47.516  14.784  22.821  0.00  0.00     0.000 A 
ATOM      9  C   UNL d   1     -48.202  14.520  22.437  0.00  0.00     0.000 A 
ATOM     10  C   UNL d   1     -48.230  13.741  22.131  0.00  0.00     0.000 A 
ATOM     11  C   UNL d   1     -48.847  15.016  22.358  0.00  0.00     0.000 C 
ATOM     12  C   UNL d   1     -47.576  13.243  22.213  0.00  0.00     0.002 A 
ENDBRANCH   5   6
BRANCH   1  13
ATOM     13  C   UNL d   1     -44.835  11.310  23.249  0.00  0.00     0.231 C 
ATOM     14  O   UNL d   1     -44.123  11.310  22.995  0.00  0.00    -0.643 OA
ATOM     15  O   UNL d   1     -45.084  10.749  23.696  0.00  0.00    -0.643 OA
ENDBRANCH   1  13
TORSDOF 2
ENDMDL
MODEL 5
REMARK VINA RESULT:      -6.3      8.022      8.862
REMARK  2 active torsions:
REMARK  status: ('A' for Active; 'I' for Inactive)
REMARK    1  A    between atoms: C_6  and  C_1 
REMARK    2  A    between atoms: C_7  and  C_5 
ROOT
ATOM      1  C   UNL d   1     -40.819  15.117  17.512  0.00  0.00     0.169 A 
ATOM      2  C   UNL d   1     -40.534  15.561  18.052  0.00  0.00     0.048 A 
ATOM      3  N   UNL d   1     -40.743  14.084  18.321  0.00  0.00    -0.148 NA
ATOM      4  N   UNL d   1     -40.926  14.376  17.641  0.00  0.00    -0.142 NA
ATOM      5  C   UNL d   1     -40.457  14.528  18.861  0.00  0.00     0.105 A 
ENDROOT
BRANCH   5   6
ATOM      6  C   UNL d   1     -40.202  14.416  19.635  0.00  0.00     0.019 A 
ATOM      7  C   UNL d   1     -40.739  14.469  20.265  0.00  0.00     0.002 A 
ATOM      8  C   UNL d   1     -40.482  14.356  21.045  0.00  0.00     0.000 A 
ATOM      9  C   UNL d   1     -39.685  14.189  21.198  0.00  0.00     0.000 A 
ATOM     10  C   UNL d   1     -39.144  14.135  20.561  0.00  0.00     0.000 A 
ATOM     11  C   UNL d   1     -39.427  14.076  21.965  0.00  0.00     0.000 C 
ATOM     12  C   UNL d   1     -39.408  14.249  19.786  0.00  0.00     0.002 A 
ENDBRANCH   5   6
BRANCH   1  13
ATOM     13  C   UNL d   1     -41.003  15.410  16.831  0.00  0.00     0.231 C 
ATOM     14  O   UNL d   1     -41.684  15.276  16.531  0.00  0.00    -0.643 OA
ATOM     15  O   UNL d   1     -40.497  15.836  16.459  0.00  0.00    -0.643 OA
ENDBRANCH   1  13
TORSDOF 2
ENDMDL
MODEL 6
REMARK VINA RESULT:      -5.5      7.900      9.048
REMARK  2 active torsions:
REMARK  status: ('A' for Active; 'I' for Inactive)
REMARK    1  A    between atoms: C_6  and  C_1 
REMARK    2  A    between atoms: C_7  and  C_5 
ROOT
ATOM      1  C   UNL d   1     -39.050  13.789  17.421  0.00  0.00     0.169 A 
ATOM      2  C   UNL d   1     -38.774  14.213  17.982  0.00  0.00     0.048 A 
ATOM      3  N   UNL d   1     -40.262  13.934  17.910  0.00  0.00    -0.148 NA
ATOM      4  N   UNL d   1     -39.795  13.646  17.380  0.00  0.00    -0.142 NA
ATOM      5  C   UNL d   1     -39.985  14.357  18.470  0.00  0.00     0.105 A 
ENDROOT
BRANCH   5   6
ATOM      6  C   UNL d   1     -40.306  14.749  19.119  0.00  0.00     0.019 A 
ATOM      7  C   UNL d   1     -40.594  15.523  19.041  0.00  0.00     0.002 A 
ATOM      8  C   UNL d   1     -40.917  15.917  19.695  0.00  0.00     0.000 A 
ATOM      9  C   UNL d   1     -40.953  15.538  20.431  0.00  0.00     0.000 A 
ATOM     10  C   UNL d   1     -40.662  14.756  20.508  0.00  0.00     0.000 A 
ATOM     11  C   UNL d   1     -41.271  15.922  21.078  0.00  0.00     0.000 C 
ATOM     12  C   UNL d   1     -40.341  14.370  19.851  0.00  0.00     0.002 A 
ENDBRANCH   5   6
BRANCH   1  13
ATOM     13  C   UNL d   1     -38.582  13.501  16.891  0.00  0.00     0.231 C 
ATOM     14  O   UNL d   1     -38.267  12.821  16.991  0.00  0.00    -0.643 OA
ATOM     15  O   UNL d   1     -38.437  13.903  16.264  0.00  0.00    -0.643 OA
ENDBRANCH   1  13
TORSDOF 2
ENDMDL
MODEL 7
REMARK VINA RESULT:      -5.5      2.451      3.833
REMARK  2 active torsions:
REMARK  status: ('A' for Active; 'I' for Inactive)
REMARK    1  A    between atoms: C_6  and  C_1 
REMARK    2  A    between atoms: C_7  and  C_5 
ROOT
ATOM      1  C   UNL d   1     -49.475  13.288  23.455  0.00  0.00     0.169 A 
ATOM      2  C   UNL d   1     -49.066  12.775  23.082  0.00  0.00     0.048 A 
ATOM      3  N   UNL d   1     -48.420  14.066  23.541  0.00  0.00    -0.148 NA
ATOM      4  N   UNL d   1     -49.157  13.937  23.688  0.00  0.00    -0.142 NA
ATOM      5  C   UNL d   1     -48.011  13.553  23.168  0.00  0.00     0.105 A 
ENDROOT
BRANCH   5   6
ATOM      6  C   UNL d   1     -47.229  13.500  22.917  0.00  0.00     0.019 A 
ATOM      7  C   UNL d   1     -46.857  12.761  22.856  0.00  0.00     0.002 A 
ATOM      8  C   UNL d   1     -46.070  12.707  22.604  0.00  0.00     0.000 A 
ATOM      9  C   UNL d   1     -45.649  13.395  22.411  0.00  0.00     0.000 A 
ATOM     10  C   UNL d   1     -46.025  14.141  22.474  0.00  0.00     0.000 A 
ATOM     11  C   UNL d   1     -44.872  13.347  22.162  0.00  0.00     0.000 C 
ATOM     12  C   UNL d   1     -46.811  14.185  22.726  0.00  0.00     0.002 A 
ENDBRANCH   5   6
BRANCH   1  13
ATOM     13  C   UNL d   1     -50.213  13.158  23.601  0.00  0.00     0.231 C 
ATOM     14  O   UNL d   1     -50.690  13.737  23.693  0.00  0.00    -0.643 OA
ATOM     15  O   UNL d   1     -50.463  12.443  23.653  0.00  0.00    -0.643 OA
ENDBRANCH   1  13
TORSDOF 2
ENDMDL
MODEL 8
REMARK VINA RESULT:      -5.0      8.175      8.743
REMARK  2 active torsions:
REMARK  status: ('A' for Active; 'I' for Inactive)
REMARK    1  A    between atoms: C_6  and  C_1 
REMARK    2  A    between atoms: C_7  and  C_5 
ROOT
ATOM      1  C   UNL d   1     -39.570  14.469  21.074  0.00  0.00     0.169 A 
ATOM      2  C   UNL d   1     -40.277  14.576  20.832  0.00  0.00     0.048 A 
ATOM      3  N   UNL d   1     -39.120  14.698  19.861  0.00  0.00    -0.148 NA
ATOM      4  N   UNL d   1     -38.986  14.528  20.592  0.00  0.00    -0.142 NA
ATOM      5  C   UNL d   1     -39.827  14.806  19.619  0.00  0.00     0.105 A 
ENDROOT
BRANCH   5   6
ATOM      6  C   UNL d   1     -40.175  14.990  18.896  0.00  0.00     0.019 A 
ATOM      7  C   UNL d   1     -40.174  14.438  18.277  0.00  0.00     0.002 A 
ATOM      8  C   UNL d   1     -40.524  14.624  17.549  0.00  0.00     0.000 A 
ATOM      9  C   UNL d   1     -40.878  15.365  17.438  0.00  0.00     0.000 A 
ATOM     10  C   UNL d   1     -40.879  15.922  18.064  0.00  0.00     0.000 A 
ATOM     11  C   UNL d   1     -41.225  15.554  16.722  0.00  0.00     0.000 C 
ATOM     12  C   UNL d   1     -40.527  15.728  18.786  0.00  0.00     0.002 A 
ENDBRANCH   5   6
BRANCH   1  13
ATOM     13  C   UNL d   1     -39.437  14.299  21.806  0.00  0.00     0.231 C 
ATOM     14  O   UNL d   1     -39.577  13.603  22.066  0.00  0.00    -0.643 OA
ATOM     15  O   UNL d   1     -39.163  14.834  22.269  0.00  0.00    -0.643 OA
ENDBRANCH   1  13
TORSDOF 2
ENDMDL
