MODEL 1
REMARK VINA RESULT:       0.9      0.000      0.000
REMARK  5 active torsions:
REMARK  status: ('A' for Active; 'I' for Inactive)
REMARK    1  A    between atoms: N_10  and  C_3 
REMARK    2  A    between atoms: C_11  and  C_5 
REMARK    3  A    between atoms: C_15  and  C_9 
REMARK    4  A    between atoms: C_16  and  N_10 
REMARK       I    between atoms: C_12  and  N_13 
REMARK    5  A    between atoms: N_13  and  C_17 
ROOT
ATOM      1  C   UNL d   1      32.742  21.836 -20.478  0.00  0.00     0.168 A 
ATOM      2  N   UNL d   1      32.881  21.190 -20.958  0.00  0.00    -0.184 N 
ATOM      3  C   UNL d   1      32.767  21.260 -21.750  0.00  0.00     0.218 A 
ATOM      4  N   UNL d   1      33.241  20.433 -19.835  0.00  0.00    -0.162 NA
ATOM      5  C   UNL d   1      32.852  21.776 -19.692  0.00  0.00     0.055 A 
ATOM      6  N   UNL d   1      32.495  22.529 -20.807  0.00  0.00    -0.227 NA
ATOM      7  C   UNL d   1      32.511  21.978 -22.081  0.00  0.00     0.071 A 
ATOM      8  C   UNL d   1      33.102  21.079 -19.355  0.00  0.00     0.104 A 
ATOM      9  C   UNL d   1      32.383  22.590 -21.596  0.00  0.00     0.087 A 
ATOM     10  C   UNL d   1      33.211  21.022 -18.574  0.00  0.00     0.023 C 
ENDROOT
BRANCH   3  11
ATOM     11  N   UNL d   1      32.908  20.598 -22.247  0.00  0.00    -0.383 NA
BRANCH  11  12
ATOM     12  C   UNL d   1      32.951  19.912 -22.708  0.00  0.00     0.134 A 
ATOM     13  C   UNL d   1      33.081  19.955 -23.519  0.00  0.00     0.034 A 
ATOM     14  C   UNL d   1      33.124  19.247 -23.983  0.00  0.00     0.022 A 
ATOM     15  C   UNL d   1      33.034  18.506 -23.619  0.00  0.00     0.085 A 
ATOM     16  C   UNL d   1      32.902  18.455 -22.795  0.00  0.00     0.022 A 
ATOM     17  C   UNL d   1      32.859  19.156 -22.327  0.00  0.00     0.034 A 
BRANCH  15  18
ATOM     18  N   UNL d   1      33.076  17.806 -24.073  0.00  0.00    -0.208 NA
ATOM     19  C   UNL d   1      32.387  17.456 -24.363  0.00  0.00     0.279 C 
ATOM     20  O   UNL d   1      32.428  16.760 -24.814  0.00  0.00    -0.265 OA
ATOM     21  C   UNL d   1      31.643  17.801 -24.204  0.00  0.00     0.068 C 
ENDBRANCH  15  18
ENDBRANCH  11  12
ENDBRANCH   3  11
BRANCH   9  22
ATOM     22  C   UNL d   1      32.123  23.322 -21.938  0.00  0.00     0.018 C 
ATOM     23  C   UNL d   1      32.578  23.674 -22.565  0.00  0.00     0.002 C 
ATOM     24  C   UNL d   1      31.419  23.695 -21.657  0.00  0.00     0.002 C 
ENDBRANCH   9  22
BRANCH   5  25
ATOM     25  C   UNL d   1      32.712  22.430 -19.207  0.00  0.00     0.004 A 
ATOM     26  C   UNL d   1      32.044  22.460 -18.759  0.00  0.00     0.000 A 
ATOM     27  C   UNL d   1      31.906  23.103 -18.281  0.00  0.00     0.000 A 
ATOM     28  C   UNL d   1      32.439  23.702 -18.261  0.00  0.00     0.000 A 
ATOM     29  C   UNL d   1      33.112  23.668 -18.714  0.00  0.00     0.000 A 
ATOM     30  C   UNL d   1      33.241  23.031 -19.183  0.00  0.00     0.000 A 
ENDBRANCH   5  25
TORSDOF 5
ENDMDL
