MODEL 1
REMARK VINA RESULT:      36.6      0.000      0.000
REMARK  3 active torsions:
REMARK  status: ('A' for Active; 'I' for Inactive)
REMARK    1  A    between atoms: C_7  and  C_1 
REMARK    2  A    between atoms: C_9  and  C_6 
REMARK    3  A    between atoms: O_13  and  C_7 
ROOT
ATOM      1  C   UNL d   1     -51.487  25.979  33.439  0.00  0.00     0.097 A 
ATOM      2  C   UNL d   1     -51.624  26.790  33.426  0.00  0.00     0.073 A 
ATOM      3  C   UNL d   1     -50.219  27.026  33.350  0.00  0.00     0.206 A 
ATOM      4  N   UNL d   1     -50.996  27.317  33.381  0.00  0.00    -0.280 N 
ATOM      5  N   UNL d   1     -50.082  26.216  33.364  0.00  0.00    -0.218 NA
ATOM      6  C   UNL d   1     -50.718  25.679  33.408  0.00  0.00     0.090 A 
ATOM      7  S   UNL d   1     -49.586  27.554  33.306  0.00  0.00    -0.038 SA
ATOM      8  C   UNL d   1     -52.413  27.079  33.458  0.00  0.00     0.019 C 
ATOM      9  C   UNL d   1     -51.133  28.132  33.368  0.00  0.00     0.101 C 
ENDROOT
BRANCH   6  10
ATOM     10  C   UNL d   1     -50.580  24.859  33.422  0.00  0.00     0.018 A 
ATOM     11  C   UNL d   1     -51.210  24.342  33.552  0.00  0.00     0.002 A 
ATOM     12  C   UNL d   1     -51.073  23.532  33.566  0.00  0.00     0.000 A 
ATOM     13  C   UNL d   1     -50.306  23.238  33.449  0.00  0.00     0.000 A 
ATOM     14  C   UNL d   1     -49.686  23.762  33.320  0.00  0.00     0.000 A 
ATOM     15  C   UNL d   1     -49.823  24.573  33.306  0.00  0.00     0.002 A 
ENDBRANCH   6  10
BRANCH   1  16
ATOM     16  C   UNL d   1     -52.135  25.440  33.485  0.00  0.00     0.299 C 
ATOM     17  O   UNL d   1     -52.023  24.636  33.307  0.00  0.00    -0.259 OA
BRANCH  16  18
ATOM     18  O   UNL d   1     -52.882  25.725  33.709  0.00  0.00    -0.296 OA
ATOM     19  C   UNL d   1     -53.559  25.488  33.308  0.00  0.00     0.185 C 
ENDBRANCH  16  18
ENDBRANCH   1  16
TORSDOF 3
ENDMDL
