MODEL 1
REMARK VINA RESULT:      -5.4      0.000      0.000
REMARK  1 active torsions:
REMARK  status: ('A' for Active; 'I' for Inactive)
REMARK    1  A    between atoms: C_2  and  C_3 
ROOT
ATOM      1  C   UNL d   1      55.890  -0.090  33.109  0.00  0.00     0.002 A 
ATOM      2  C   UNL d   1      56.316   0.414  32.613  0.00  0.00     0.000 A 
ATOM      3  C   UNL d   1      55.894  -0.904  32.968  0.00  0.00     0.000 A 
ATOM      4  C   UNL d   1      56.746   0.106  31.979  0.00  0.00     0.000 A 
ATOM      5  C   UNL d   1      56.324  -1.212  32.334  0.00  0.00     0.000 A 
ATOM      6  C   UNL d   1      56.750  -0.707  31.839  0.00  0.00     0.000 A 
ENDROOT
BRANCH   1   7
ATOM      7  C   UNL d   1      55.458   0.215  33.745  0.00  0.00     0.021 A 
ATOM      8  C   UNL d   1      55.756   0.393  34.491  0.00  0.00     0.099 A 
ATOM      9  N   UNL d   1      55.138   0.682  34.951  0.00  0.00    -0.242 NA
ATOM     10  C   UNL d   1      54.453   0.682  34.487  0.00  0.00     0.099 A 
ATOM     11  C   UNL d   1      54.651   0.393  33.741  0.00  0.00     0.022 A 
ENDBRANCH   1   7
TORSDOF 1
ENDMDL
MODEL 2
REMARK VINA RESULT:      -5.1      1.326      2.702
REMARK  1 active torsions:
REMARK  status: ('A' for Active; 'I' for Inactive)
REMARK    1  A    between atoms: C_2  and  C_3 
ROOT
ATOM      1  C   UNL d   1      55.942  -0.019  33.260  0.00  0.00     0.002 A 
ATOM      2  C   UNL d   1      56.403   0.323  33.853  0.00  0.00     0.000 A 
ATOM      3  C   UNL d   1      55.119  -0.010  33.324  0.00  0.00     0.000 A 
ATOM      4  C   UNL d   1      56.042   0.673  34.508  0.00  0.00     0.000 A 
ATOM      5  C   UNL d   1      54.758   0.340  33.979  0.00  0.00     0.000 A 
ATOM      6  C   UNL d   1      55.220   0.682  34.571  0.00  0.00     0.000 A 
ENDROOT
BRANCH   1   7
ATOM      7  C   UNL d   1      56.300  -0.371  32.602  0.00  0.00     0.021 A 
ATOM      8  C   UNL d   1      56.262  -1.167  32.398  0.00  0.00     0.099 A 
ATOM      9  N   UNL d   1      56.695  -1.274  31.707  0.00  0.00    -0.242 NA
ATOM     10  C   UNL d   1      57.002  -0.540  31.481  0.00  0.00     0.099 A 
ATOM     11  C   UNL d   1      56.758   0.019  32.035  0.00  0.00     0.022 A 
ENDBRANCH   1   7
TORSDOF 1
ENDMDL
MODEL 3
REMARK VINA RESULT:      -5.1      1.693      3.029
REMARK  1 active torsions:
REMARK  status: ('A' for Active; 'I' for Inactive)
REMARK    1  A    between atoms: C_2  and  C_3 
ROOT
ATOM      1  C   UNL d   1      56.621  -0.182  32.265  0.00  0.00     0.002 A 
ATOM      2  C   UNL d   1      56.475  -0.980  32.421  0.00  0.00     0.000 A 
ATOM      3  C   UNL d   1      56.171   0.398  32.641  0.00  0.00     0.000 A 
ATOM      4  C   UNL d   1      55.881  -1.196  32.952  0.00  0.00     0.000 A 
ATOM      5  C   UNL d   1      55.576   0.182  33.172  0.00  0.00     0.000 A 
ATOM      6  C   UNL d   1      55.432  -0.616  33.327  0.00  0.00     0.000 A 
ENDROOT
BRANCH   1   7
ATOM      7  C   UNL d   1      57.215   0.038  31.733  0.00  0.00     0.021 A 
ATOM      8  C   UNL d   1      57.744   0.662  31.829  0.00  0.00     0.099 A 
ATOM      9  N   UNL d   1      58.237   0.682  31.171  0.00  0.00    -0.242 NA
ATOM     10  C   UNL d   1      58.013   0.067  30.665  0.00  0.00     0.099 A 
ATOM     11  C   UNL d   1      57.381  -0.331  31.013  0.00  0.00     0.022 A 
ENDBRANCH   1   7
TORSDOF 1
ENDMDL
MODEL 4
REMARK VINA RESULT:      -4.5      1.119      1.776
REMARK  1 active torsions:
REMARK  status: ('A' for Active; 'I' for Inactive)
REMARK    1  A    between atoms: C_2  and  C_3 
ROOT
ATOM      1  C   UNL d   1      56.747  -0.233  31.850  0.00  0.00     0.002 A 
ATOM      2  C   UNL d   1      56.904   0.540  31.607  0.00  0.00     0.000 A 
ATOM      3  C   UNL d   1      57.108  -0.866  31.462  0.00  0.00     0.000 A 
ATOM      4  C   UNL d   1      57.421   0.679  30.978  0.00  0.00     0.000 A 
ATOM      5  C   UNL d   1      57.625  -0.727  30.833  0.00  0.00     0.000 A 
ATOM      6  C   UNL d   1      57.781   0.046  30.591  0.00  0.00     0.000 A 
ENDROOT
BRANCH   1   7
ATOM      7  C   UNL d   1      56.230  -0.377  32.480  0.00  0.00     0.021 A 
ATOM      8  C   UNL d   1      55.990  -1.117  32.750  0.00  0.00     0.099 A 
ATOM      9  N   UNL d   1      55.478  -1.003  33.383  0.00  0.00    -0.242 NA
ATOM     10  C   UNL d   1      55.400  -0.188  33.505  0.00  0.00     0.099 A 
ATOM     11  C   UNL d   1      55.865   0.199  32.946  0.00  0.00     0.022 A 
ENDBRANCH   1   7
TORSDOF 1
ENDMDL
MODEL 5
REMARK VINA RESULT:      -4.5      1.176      2.006
REMARK  1 active torsions:
REMARK  status: ('A' for Active; 'I' for Inactive)
REMARK    1  A    between atoms: C_2  and  C_3 
ROOT
ATOM      1  C   UNL d   1      56.773  -0.281  31.816  0.00  0.00     0.002 A 
ATOM      2  C   UNL d   1      57.146  -0.891  31.404  0.00  0.00     0.000 A 
ATOM      3  C   UNL d   1      56.924   0.504  31.612  0.00  0.00     0.000 A 
ATOM      4  C   UNL d   1      57.668  -0.716  30.788  0.00  0.00     0.000 A 
ATOM      5  C   UNL d   1      57.446   0.679  30.996  0.00  0.00     0.000 A 
ATOM      6  C   UNL d   1      57.818   0.069  30.584  0.00  0.00     0.000 A 
ENDROOT
BRANCH   1   7
ATOM      7  C   UNL d   1      56.250  -0.453  32.434  0.00  0.00     0.021 A 
ATOM      8  C   UNL d   1      55.836   0.097  32.886  0.00  0.00     0.099 A 
ATOM      9  N   UNL d   1      55.382  -0.313  33.435  0.00  0.00    -0.242 NA
ATOM     10  C   UNL d   1      55.514  -1.122  33.322  0.00  0.00     0.099 A 
ATOM     11  C   UNL d   1      56.051  -1.208  32.703  0.00  0.00     0.022 A 
ENDBRANCH   1   7
TORSDOF 1
ENDMDL
MODEL 6
REMARK VINA RESULT:      -4.0      8.600      9.416
REMARK  1 active torsions:
REMARK  status: ('A' for Active; 'I' for Inactive)
REMARK    1  A    between atoms: C_2  and  C_3 
ROOT
ATOM      1  C   UNL d   1      60.127  -7.820  36.225  0.00  0.00     0.002 A 
ATOM      2  C   UNL d   1      59.365  -8.135  36.268  0.00  0.00     0.000 A 
ATOM      3  C   UNL d   1      60.780  -8.324  36.234  0.00  0.00     0.000 A 
ATOM      4  C   UNL d   1      59.257  -8.952  36.321  0.00  0.00     0.000 A 
ATOM      5  C   UNL d   1      60.672  -9.141  36.287  0.00  0.00     0.000 A 
ATOM      6  C   UNL d   1      59.911  -9.455  36.330  0.00  0.00     0.000 A 
ENDROOT
BRANCH   1   7
ATOM      7  C   UNL d   1      60.239  -7.002  36.172  0.00  0.00     0.021 A 
ATOM      8  C   UNL d   1      59.665  -6.446  35.973  0.00  0.00     0.099 A 
ATOM      9  N   UNL d   1      60.015  -5.702  35.987  0.00  0.00    -0.242 NA
ATOM     10  C   UNL d   1      60.810  -5.797  36.196  0.00  0.00     0.099 A 
ATOM     11  C   UNL d   1      60.948  -6.602  36.310  0.00  0.00     0.022 A 
ENDBRANCH   1   7
TORSDOF 1
ENDMDL
MODEL 7
REMARK VINA RESULT:      -3.9      8.727      9.603
REMARK  1 active torsions:
REMARK  status: ('A' for Active; 'I' for Inactive)
REMARK    1  A    between atoms: C_2  and  C_3 
ROOT
ATOM      1  C   UNL d   1      59.901  -7.777  35.935  0.00  0.00     0.002 A 
ATOM      2  C   UNL d   1      60.705  -7.651  36.076  0.00  0.00     0.000 A 
ATOM      3  C   UNL d   1      59.376  -7.141  35.962  0.00  0.00     0.000 A 
ATOM      4  C   UNL d   1      60.982  -6.891  36.243  0.00  0.00     0.000 A 
ATOM      5  C   UNL d   1      59.653  -6.382  36.130  0.00  0.00     0.000 A 
ATOM      6  C   UNL d   1      60.456  -6.257  36.270  0.00  0.00     0.000 A 
ENDROOT
BRANCH   1   7
ATOM      7  C   UNL d   1      59.620  -8.537  35.767  0.00  0.00     0.021 A 
ATOM      8  C   UNL d   1      59.593  -8.890  35.024  0.00  0.00     0.099 A 
ATOM      9  N   UNL d   1      59.274  -9.644  35.112  0.00  0.00    -0.242 NA
ATOM     10  C   UNL d   1      59.103  -9.757  35.913  0.00  0.00     0.099 A 
ATOM     11  C   UNL d   1      59.316  -9.072  36.319  0.00  0.00     0.022 A 
ENDBRANCH   1   7
TORSDOF 1
ENDMDL
MODEL 8
REMARK VINA RESULT:      -3.2      9.477     10.068
REMARK  1 active torsions:
REMARK  status: ('A' for Active; 'I' for Inactive)
REMARK    1  A    between atoms: C_2  and  C_3 
ROOT
ATOM      1  C   UNL d   1      59.956  -9.126  34.404  0.00  0.00     0.002 A 
ATOM      2  C   UNL d   1      60.772  -9.112  34.285  0.00  0.00     0.000 A 
ATOM      3  C   UNL d   1      59.454  -9.330  33.781  0.00  0.00     0.000 A 
ATOM      4  C   UNL d   1      61.087  -9.301  33.545  0.00  0.00     0.000 A 
ATOM      5  C   UNL d   1      59.768  -9.519  33.041  0.00  0.00     0.000 A 
ATOM      6  C   UNL d   1      60.585  -9.504  32.923  0.00  0.00     0.000 A 
ENDROOT
BRANCH   1   7
ATOM      7  C   UNL d   1      59.637  -8.937  35.144  0.00  0.00     0.021 A 
ATOM      8  C   UNL d   1      59.273  -9.462  35.663  0.00  0.00     0.099 A 
ATOM      9  N   UNL d   1      59.040  -9.041  36.330  0.00  0.00    -0.242 NA
ATOM     10  C   UNL d   1      59.261  -8.251  36.224  0.00  0.00     0.099 A 
ATOM     11  C   UNL d   1      59.631  -8.187  35.490  0.00  0.00     0.022 A 
ENDBRANCH   1   7
TORSDOF 1
ENDMDL
MODEL 9
REMARK VINA RESULT:      -2.5      4.802      5.910
REMARK  1 active torsions:
REMARK  status: ('A' for Active; 'I' for Inactive)
REMARK    1  A    between atoms: C_2  and  C_3 
ROOT
ATOM      1  C   UNL d   1      59.234  -1.992  29.008  0.00  0.00     0.002 A 
ATOM      2  C   UNL d   1      58.764  -2.663  28.908  0.00  0.00     0.000 A 
ATOM      3  C   UNL d   1      60.054  -2.071  29.069  0.00  0.00     0.000 A 
ATOM      4  C   UNL d   1      59.113  -3.411  28.868  0.00  0.00     0.000 A 
ATOM      5  C   UNL d   1      60.402  -2.818  29.029  0.00  0.00     0.000 A 
ATOM      6  C   UNL d   1      59.932  -3.489  28.928  0.00  0.00     0.000 A 
ENDROOT
BRANCH   1   7
ATOM      7  C   UNL d   1      58.889  -1.242  29.049  0.00  0.00     0.021 A 
ATOM      8  C   UNL d   1      58.462  -0.938  29.684  0.00  0.00     0.099 A 
ATOM      9  N   UNL d   1      58.221  -0.176  29.489  0.00  0.00    -0.242 NA
ATOM     10  C   UNL d   1      58.500  -0.007  28.729  0.00  0.00     0.099 A 
ATOM     11  C   UNL d   1      58.913  -0.666  28.456  0.00  0.00     0.022 A 
ENDBRANCH   1   7
TORSDOF 1
ENDMDL
