MODEL 1
REMARK VINA RESULT:     -10.0      0.000      0.000
REMARK  2 active torsions:
REMARK  status: ('A' for Active; 'I' for Inactive)
REMARK    1  A    between atoms: C_18  and  N_5 
REMARK    2  A    between atoms: C_21  and  C_18 
ROOT
ATOM      1  C   UNL d   1      52.859  32.625  53.524  0.00  0.00     0.155 A 
ATOM      2  C   UNL d   1      52.208  32.188  53.270  0.00  0.00     0.092 A 
ATOM      3  N   UNL d   1      52.804  33.451  53.569  0.00  0.00    -0.210 NA
ATOM      4  N   UNL d   1      51.460  33.385  53.110  0.00  0.00    -0.258 N 
ATOM      5  N   UNL d   1      53.559  32.243  53.731  0.00  0.00    -0.275 N 
ATOM      6  C   UNL d   1      52.109  33.826  53.364  0.00  0.00     0.152 A 
ATOM      7  C   UNL d   1      51.506  32.567  53.062  0.00  0.00     0.269 A 
ATOM      8  C   UNL d   1      52.957  30.981  53.430  0.00  0.00     0.105 A 
ATOM      9  C   UNL d   1      53.618  31.426  53.688  0.00  0.00     0.180 A 
ATOM     10  C   UNL d   1      52.259  31.363  53.223  0.00  0.00     0.021 A 
ATOM     11  C   UNL d   1      52.057  34.639  53.409  0.00  0.00     0.035 A 
ATOM     12  C   UNL d   1      53.012  30.165  53.385  0.00  0.00     0.104 C 
ATOM     13  N   UNL d   1      53.063  29.347  53.339  0.00  0.00    -0.191 NA
ATOM     14  C   UNL d   1      50.755  33.763  52.900  0.00  0.00     0.084 A 
ATOM     15  N   UNL d   1      54.229  30.893  53.853  0.00  0.00    -0.128 N 
ATOM     16  O   UNL d   1      50.857  32.126  52.808  0.00  0.00    -0.266 OA
ATOM     17  C   UNL d   1      50.713  34.588  52.950  0.00  0.00     0.019 A 
ATOM     18  C   UNL d   1      51.365  35.026  53.205  0.00  0.00     0.005 A 
ATOM     19  C   UNL d   1      52.709  35.077  53.663  0.00  0.00     0.003 C 
ENDROOT
BRANCH   5  20
ATOM     20  C   UNL d   1      54.206  32.688  53.985  0.00  0.00     0.067 C 
ATOM     21  C   UNL d   1      54.764  32.908  53.416  0.00  0.00     0.019 C 
BRANCH  20  22
ATOM     22  C   UNL d   1      54.350  32.938  54.767  0.00  0.00     0.018 C 
ATOM     23  C   UNL d   1      55.022  33.347  55.033  0.00  0.00     0.002 C 
ENDBRANCH  20  22
ENDBRANCH   5  20
TORSDOF 2
ENDMDL
MODEL 2
REMARK VINA RESULT:      -9.9      1.378      3.960
REMARK  2 active torsions:
REMARK  status: ('A' for Active; 'I' for Inactive)
REMARK    1  A    between atoms: C_18  and  N_5 
REMARK    2  A    between atoms: C_21  and  C_18 
ROOT
ATOM      1  C   UNL d   1      52.625  33.266  53.540  0.00  0.00     0.155 A 
ATOM      2  C   UNL d   1      53.303  33.380  53.995  0.00  0.00     0.092 A 
ATOM      3  N   UNL d   1      52.460  32.515  53.234  0.00  0.00    -0.210 NA
ATOM      4  N   UNL d   1      53.643  32.009  53.837  0.00  0.00    -0.258 N 
ATOM      5  N   UNL d   1      52.116  33.897  53.392  0.00  0.00    -0.275 N 
ATOM      6  C   UNL d   1      52.966  31.892  53.382  0.00  0.00     0.152 A 
ATOM      7  C   UNL d   1      53.815  32.750  54.144  0.00  0.00     0.269 A 
ATOM      8  C   UNL d   1      52.965  34.759  54.155  0.00  0.00     0.105 A 
ATOM      9  C   UNL d   1      52.275  34.644  53.693  0.00  0.00     0.180 A 
ATOM     10  C   UNL d   1      53.472  34.129  54.303  0.00  0.00     0.021 A 
ATOM     11  C   UNL d   1      52.801  31.153  53.079  0.00  0.00     0.035 A 
ATOM     12  C   UNL d   1      53.128  35.503  54.458  0.00  0.00     0.104 C 
ATOM     13  N   UNL d   1      53.295  36.246  54.764  0.00  0.00    -0.191 NA
ATOM     14  C   UNL d   1      54.158  31.380  53.989  0.00  0.00     0.084 A 
ATOM     15  N   UNL d   1      51.883  35.370  53.644  0.00  0.00    -0.128 N 
ATOM     16  O   UNL d   1      54.493  32.868  54.600  0.00  0.00    -0.266 OA
ATOM     17  C   UNL d   1      53.981  30.634  53.677  0.00  0.00     0.019 A 
ATOM     18  C   UNL d   1      53.302  30.521  53.222  0.00  0.00     0.005 A 
ATOM     19  C   UNL d   1      52.122  31.039  52.624  0.00  0.00     0.003 C 
ENDROOT
BRANCH   5  20
ATOM     20  C   UNL d   1      51.439  33.775  52.936  0.00  0.00     0.067 C 
ATOM     21  C   UNL d   1      50.768  33.481  53.319  0.00  0.00     0.019 C 
BRANCH  20  22
ATOM     22  C   UNL d   1      51.368  33.923  52.119  0.00  0.00     0.018 C 
ATOM     23  C   UNL d   1      50.659  34.053  51.705  0.00  0.00     0.002 C 
ENDBRANCH  20  22
ENDBRANCH   5  20
TORSDOF 2
ENDMDL
MODEL 3
REMARK VINA RESULT:      -8.7      0.859      3.191
REMARK  2 active torsions:
REMARK  status: ('A' for Active; 'I' for Inactive)
REMARK    1  A    between atoms: C_18  and  N_5 
REMARK    2  A    between atoms: C_21  and  C_18 
ROOT
ATOM      1  C   UNL d   1      53.144  32.523  53.629  0.00  0.00     0.155 A 
ATOM      2  C   UNL d   1      52.374  32.497  53.334  0.00  0.00     0.092 A 
ATOM      3  N   UNL d   1      53.573  31.819  53.712  0.00  0.00    -0.210 NA
ATOM      4  N   UNL d   1      52.466  31.084  53.209  0.00  0.00    -0.258 N 
ATOM      5  N   UNL d   1      53.482  33.243  53.838  0.00  0.00    -0.275 N 
ATOM      6  C   UNL d   1      53.236  31.106  53.504  0.00  0.00     0.152 A 
ATOM      7  C   UNL d   1      52.033  31.776  53.123  0.00  0.00     0.269 A 
ATOM      8  C   UNL d   1      52.279  33.917  53.458  0.00  0.00     0.105 A 
ATOM      9  C   UNL d   1      53.061  33.943  53.758  0.00  0.00     0.180 A 
ATOM     10  C   UNL d   1      51.942  33.196  53.249  0.00  0.00     0.021 A 
ATOM     11  C   UNL d   1      53.660  30.415  53.586  0.00  0.00     0.035 A 
ATOM     12  C   UNL d   1      51.854  34.613  53.376  0.00  0.00     0.104 C 
ATOM     13  N   UNL d   1      51.425  35.308  53.292  0.00  0.00    -0.191 NA
ATOM     14  C   UNL d   1      52.120  30.363  52.997  0.00  0.00     0.084 A 
ATOM     15  N   UNL d   1      53.241  34.735  53.916  0.00  0.00    -0.128 N 
ATOM     16  O   UNL d   1      51.262  31.754  52.829  0.00  0.00    -0.266 OA
ATOM     17  C   UNL d   1      52.561  29.668  53.085  0.00  0.00     0.019 A 
ATOM     18  C   UNL d   1      53.331  29.694  53.380  0.00  0.00     0.005 A 
ATOM     19  C   UNL d   1      54.431  30.441  53.881  0.00  0.00     0.003 C 
ENDROOT
BRANCH   5  20
ATOM     20  C   UNL d   1      54.253  33.262  54.133  0.00  0.00     0.067 C 
ATOM     21  C   UNL d   1      54.871  33.270  53.584  0.00  0.00     0.019 C 
BRANCH  20  22
ATOM     22  C   UNL d   1      54.468  33.272  54.938  0.00  0.00     0.018 C 
ATOM     23  C   UNL d   1      55.175  33.575  55.251  0.00  0.00     0.002 C 
ENDBRANCH  20  22
ENDBRANCH   5  20
TORSDOF 2
ENDMDL
MODEL 4
REMARK VINA RESULT:      -8.7      1.362      2.795
REMARK  2 active torsions:
REMARK  status: ('A' for Active; 'I' for Inactive)
REMARK    1  A    between atoms: C_18  and  N_5 
REMARK    2  A    between atoms: C_21  and  C_18 
ROOT
ATOM      1  C   UNL d   1      52.937  32.993  53.715  0.00  0.00     0.155 A 
ATOM      2  C   UNL d   1      53.534  32.475  53.952  0.00  0.00     0.092 A 
ATOM      3  N   UNL d   1      52.959  33.783  53.964  0.00  0.00    -0.210 NA
ATOM      4  N   UNL d   1      54.162  33.524  54.676  0.00  0.00    -0.258 N 
ATOM      5  N   UNL d   1      52.325  32.725  53.234  0.00  0.00    -0.275 N 
ATOM      6  C   UNL d   1      53.567  34.045  54.441  0.00  0.00     0.152 A 
ATOM      7  C   UNL d   1      54.148  32.740  54.434  0.00  0.00     0.269 A 
ATOM      8  C   UNL d   1      52.904  31.417  53.225  0.00  0.00     0.105 A 
ATOM      9  C   UNL d   1      52.299  31.944  52.984  0.00  0.00     0.180 A 
ATOM     10  C   UNL d   1      53.516  31.686  53.706  0.00  0.00     0.021 A 
ATOM     11  C   UNL d   1      53.587  34.822  54.685  0.00  0.00     0.035 A 
ATOM     12  C   UNL d   1      52.883  30.636  52.979  0.00  0.00     0.104 C 
ATOM     13  N   UNL d   1      52.864  29.853  52.734  0.00  0.00    -0.191 NA
ATOM     14  C   UNL d   1      54.780  33.786  55.159  0.00  0.00     0.084 A 
ATOM     15  N   UNL d   1      51.771  31.518  52.511  0.00  0.00    -0.128 N 
ATOM     16  O   UNL d   1      54.743  32.219  54.670  0.00  0.00    -0.266 OA
ATOM     17  C   UNL d   1      54.789  34.578  55.401  0.00  0.00     0.019 A 
ATOM     18  C   UNL d   1      54.193  35.096  55.164  0.00  0.00     0.005 A 
ATOM     19  C   UNL d   1      52.990  35.340  54.448  0.00  0.00     0.003 C 
ENDROOT
BRANCH   5  20
ATOM     20  C   UNL d   1      51.732  33.249  53.000  0.00  0.00     0.067 C 
ATOM     21  C   UNL d   1      51.051  33.288  53.467  0.00  0.00     0.019 C 
BRANCH  20  22
ATOM     22  C   UNL d   1      51.756  33.748  52.332  0.00  0.00     0.018 C 
ATOM     23  C   UNL d   1      51.110  34.151  52.000  0.00  0.00     0.002 C 
ENDBRANCH  20  22
ENDBRANCH   5  20
TORSDOF 2
ENDMDL
MODEL 5
REMARK VINA RESULT:      -8.5      1.355      2.580
REMARK  2 active torsions:
REMARK  status: ('A' for Active; 'I' for Inactive)
REMARK    1  A    between atoms: C_18  and  N_5 
REMARK    2  A    between atoms: C_21  and  C_18 
ROOT
ATOM      1  C   UNL d   1      52.962  33.280  53.830  0.00  0.00     0.155 A 
ATOM      2  C   UNL d   1      53.030  34.053  54.112  0.00  0.00     0.092 A 
ATOM      3  N   UNL d   1      52.280  33.055  53.418  0.00  0.00    -0.210 NA
ATOM      4  N   UNL d   1      51.751  34.365  53.576  0.00  0.00    -0.258 N 
ATOM      5  N   UNL d   1      53.569  32.739  53.959  0.00  0.00    -0.275 N 
ATOM      6  C   UNL d   1      51.680  33.593  53.293  0.00  0.00     0.152 A 
ATOM      7  C   UNL d   1      52.423  34.598  53.985  0.00  0.00     0.269 A 
ATOM      8  C   UNL d   1      54.316  33.743  54.653  0.00  0.00     0.105 A 
ATOM      9  C   UNL d   1      54.247  32.958  54.367  0.00  0.00     0.180 A 
ATOM     10  C   UNL d   1      53.709  34.283  54.524  0.00  0.00     0.021 A 
ATOM     11  C   UNL d   1      51.010  33.368  52.887  0.00  0.00     0.035 A 
ATOM     12  C   UNL d   1      54.990  33.967  55.060  0.00  0.00     0.104 C 
ATOM     13  N   UNL d   1      55.665  34.194  55.469  0.00  0.00    -0.191 NA
ATOM     14  C   UNL d   1      51.145  34.913  53.450  0.00  0.00     0.084 A 
ATOM     15  N   UNL d   1      54.935  32.553  54.580  0.00  0.00    -0.128 N 
ATOM     16  O   UNL d   1      52.495  35.369  54.268  0.00  0.00    -0.266 OA
ATOM     17  C   UNL d   1      50.469  34.674  53.036  0.00  0.00     0.019 A 
ATOM     18  C   UNL d   1      50.401  33.901  52.755  0.00  0.00     0.005 A 
ATOM     19  C   UNL d   1      50.942  32.596  52.605  0.00  0.00     0.003 C 
ENDROOT
BRANCH   5  20
ATOM     20  C   UNL d   1      53.494  31.968  53.674  0.00  0.00     0.067 C 
ATOM     21  C   UNL d   1      53.712  31.828  52.889  0.00  0.00     0.019 C 
BRANCH  20  22
ATOM     22  C   UNL d   1      53.216  31.313  54.108  0.00  0.00     0.018 C 
ATOM     23  C   UNL d   1      53.283  30.515  53.885  0.00  0.00     0.002 C 
ENDBRANCH  20  22
ENDBRANCH   5  20
TORSDOF 2
ENDMDL
MODEL 6
REMARK VINA RESULT:      -8.2      1.444      3.458
REMARK  2 active torsions:
REMARK  status: ('A' for Active; 'I' for Inactive)
REMARK    1  A    between atoms: C_18  and  N_5 
REMARK    2  A    between atoms: C_21  and  C_18 
ROOT
ATOM      1  C   UNL d   1      52.636  33.372  53.661  0.00  0.00     0.155 A 
ATOM      2  C   UNL d   1      52.440  34.156  53.829  0.00  0.00     0.092 A 
ATOM      3  N   UNL d   1      53.342  33.056  53.955  0.00  0.00    -0.210 NA
ATOM      4  N   UNL d   1      53.642  34.300  54.573  0.00  0.00    -0.258 N 
ATOM      5  N   UNL d   1      52.131  32.910  53.204  0.00  0.00    -0.275 N 
ATOM      6  C   UNL d   1      53.841  33.516  54.407  0.00  0.00     0.152 A 
ATOM      7  C   UNL d   1      52.945  34.622  54.287  0.00  0.00     0.269 A 
ATOM      8  C   UNL d   1      51.231  34.015  53.082  0.00  0.00     0.105 A 
ATOM      9  C   UNL d   1      51.429  33.219  52.911  0.00  0.00     0.180 A 
ATOM     10  C   UNL d   1      51.736  34.477  53.538  0.00  0.00     0.021 A 
ATOM     11  C   UNL d   1      54.536  33.202  54.696  0.00  0.00     0.035 A 
ATOM     12  C   UNL d   1      50.532  34.329  52.791  0.00  0.00     0.104 C 
ATOM     13  N   UNL d   1      49.833  34.646  52.501  0.00  0.00    -0.191 NA
ATOM     14  C   UNL d   1      54.146  34.770  55.032  0.00  0.00     0.084 A 
ATOM     15  N   UNL d   1      50.821  32.904  52.448  0.00  0.00    -0.128 N 
ATOM     16  O   UNL d   1      52.746  35.406  54.453  0.00  0.00    -0.266 OA
ATOM     17  C   UNL d   1      54.849  34.440  55.319  0.00  0.00     0.019 A 
ATOM     18  C   UNL d   1      55.044  33.656  55.151  0.00  0.00     0.005 A 
ATOM     19  C   UNL d   1      54.731  32.418  54.527  0.00  0.00     0.003 C 
ENDROOT
BRANCH   5  20
ATOM     20  C   UNL d   1      52.332  32.127  53.041  0.00  0.00     0.067 C 
ATOM     21  C   UNL d   1      52.838  31.988  52.401  0.00  0.00     0.019 C 
BRANCH  20  22
ATOM     22  C   UNL d   1      52.072  31.456  53.463  0.00  0.00     0.018 C 
ATOM     23  C   UNL d   1      52.211  30.664  53.256  0.00  0.00     0.002 C 
ENDBRANCH  20  22
ENDBRANCH   5  20
TORSDOF 2
ENDMDL
