MODEL 1
REMARK VINA RESULT:      40.0      0.000      0.000
REMARK  3 active torsions:
REMARK  status: ('A' for Active; 'I' for Inactive)
REMARK    1  A    between atoms: C_5  and  C_1 
REMARK    2  A    between atoms: N_8  and  C_5 
REMARK    3  A    between atoms: C_10  and  C_5 
ROOT
ATOM      1  C   UNL d   1      14.506  13.448  -1.342  0.00  0.00     0.067 C 
ENDROOT
BRANCH   1   2
ATOM      2  C   UNL d   1      14.158  13.385  -2.091  0.00  0.00     0.057 A 
ATOM      3  C   UNL d   1      13.950  12.642  -2.377  0.00  0.00     0.214 A 
ATOM      4  C   UNL d   1      13.604  12.581  -3.123  0.00  0.00     0.121 A 
ATOM      5  O   UNL d   1      14.080  11.963  -1.934  0.00  0.00    -0.285 OA
ATOM      6  N   UNL d   1      13.394  11.836  -3.412  0.00  0.00    -0.241 NA
ATOM      7  C   UNL d   1      13.467  13.263  -3.582  0.00  0.00     0.032 A 
ATOM      8  C   UNL d   1      13.051  11.779  -4.153  0.00  0.00     0.099 A 
ATOM      9  C   UNL d   1      12.914  12.461  -4.611  0.00  0.00     0.021 A 
ATOM     10  C   UNL d   1      13.123  13.187  -4.319  0.00  0.00     0.004 A 
ATOM     11  C   UNL d   1      13.677  14.004  -3.291  0.00  0.00     0.059 A 
ATOM     12  C   UNL d   1      14.022  14.067  -2.549  0.00  0.00     0.016 A 
ATOM     13 CL   UNL d   1      13.538  14.667  -3.749  0.00  0.00    -0.082 Cl
ENDBRANCH   1   2
BRANCH   1  14
ATOM     14  N   UNL d   1      14.565  12.789  -0.856  0.00  0.00    -0.304 N 
ATOM     15  C   UNL d   1      15.303  12.464  -0.690  0.00  0.00     0.080 A 
ATOM     16  C   UNL d   1      15.373  11.808  -0.207  0.00  0.00     0.021 A 
ATOM     17  C   UNL d   1      13.941  11.786  -0.045  0.00  0.00     0.021 A 
ATOM     18  C   UNL d   1      13.883  12.449  -0.533  0.00  0.00     0.080 A 
ENDBRANCH   1  14
BRANCH   1  19
ATOM     19  C   UNL d   1      14.799  14.187  -1.080  0.00  0.00     0.016 A 
ATOM     20  C   UNL d   1      15.156  14.699  -1.604  0.00  0.00     0.002 A 
ATOM     21  C   UNL d   1      15.444  15.423  -1.352  0.00  0.00     0.011 A 
ATOM     22  C   UNL d   1      15.371  15.638  -0.551  0.00  0.00     0.058 A 
ATOM     23  C   UNL d   1      15.007  15.117  -0.015  0.00  0.00     0.011 A 
ATOM     24 CL   UNL d   1      15.654  16.357  -0.289  0.00  0.00    -0.082 Cl
ATOM     25  C   UNL d   1      14.721  14.388  -0.288  0.00  0.00     0.002 A 
ENDBRANCH   1  19
TORSDOF 3
ENDMDL
MODEL 2
REMARK VINA RESULT:      42.7      1.138      3.465
REMARK  3 active torsions:
REMARK  status: ('A' for Active; 'I' for Inactive)
REMARK    1  A    between atoms: C_5  and  C_1 
REMARK    2  A    between atoms: N_8  and  C_5 
REMARK    3  A    between atoms: C_10  and  C_5 
ROOT
ATOM      1  C   UNL d   1      14.196  13.006  -1.771  0.00  0.00     0.067 C 
ENDROOT
BRANCH   1   2
ATOM      2  C   UNL d   1      14.402  13.807  -1.725  0.00  0.00     0.057 A 
ATOM      3  C   UNL d   1      14.715  14.103  -1.025  0.00  0.00     0.214 A 
ATOM      4  C   UNL d   1      14.921  14.900  -0.981  0.00  0.00     0.121 A 
ATOM      5  O   UNL d   1      14.826  13.620  -0.370  0.00  0.00    -0.285 OA
ATOM      6  N   UNL d   1      15.235  15.199  -0.278  0.00  0.00    -0.241 NA
ATOM      7  C   UNL d   1      14.813  15.400  -1.639  0.00  0.00     0.032 A 
ATOM      8  C   UNL d   1      15.437  15.991  -0.239  0.00  0.00     0.099 A 
ATOM      9  C   UNL d   1      15.329  16.490  -0.897  0.00  0.00     0.021 A 
ATOM     10  C   UNL d   1      15.021  16.188  -1.581  0.00  0.00     0.004 A 
ATOM     11  C   UNL d   1      14.499  15.099  -2.338  0.00  0.00     0.059 A 
ATOM     12  C   UNL d   1      14.294  14.306  -2.384  0.00  0.00     0.016 A 
ATOM     13 CL   UNL d   1      14.398  15.598  -2.978  0.00  0.00    -0.082 Cl
ENDBRANCH   1   2
BRANCH   1  14
ATOM     14  N   UNL d   1      14.287  12.517  -1.118  0.00  0.00    -0.304 N 
ATOM     15  C   UNL d   1      15.038  12.265  -0.894  0.00  0.00     0.080 A 
ATOM     16  C   UNL d   1      15.141  11.779  -0.245  0.00  0.00     0.021 A 
ATOM     17  C   UNL d   1      13.717  11.786  -0.025  0.00  0.00     0.021 A 
ATOM     18  C   UNL d   1      13.625  12.277  -0.682  0.00  0.00     0.080 A 
ENDBRANCH   1  14
BRANCH   1  19
ATOM     19  C   UNL d   1      13.892  12.694  -2.486  0.00  0.00     0.016 A 
ATOM     20  C   UNL d   1      14.282  12.090  -2.870  0.00  0.00     0.002 A 
ATOM     21  C   UNL d   1      13.989  11.781  -3.570  0.00  0.00     0.011 A 
ATOM     22  C   UNL d   1      13.285  12.088  -3.892  0.00  0.00     0.058 A 
ATOM     23  C   UNL d   1      12.887  12.704  -3.501  0.00  0.00     0.011 A 
ATOM     24 CL   UNL d   1      12.984  11.788  -4.589  0.00  0.00    -0.082 Cl
ATOM     25  C   UNL d   1      13.198  13.005  -2.793  0.00  0.00     0.002 A 
ENDBRANCH   1  19
TORSDOF 3
ENDMDL
