MODEL 1
REMARK VINA RESULT:      -9.1      0.000      0.000
REMARK  4 active torsions:
REMARK  status: ('A' for Active; 'I' for Inactive)
REMARK    1  A    between atoms: N_9  and  C_3 
REMARK    2  A    between atoms: C_12  and  C_5 
REMARK    3  A    between atoms: C_15  and  N_11 
REMARK    4  A    between atoms: C_19  and  C_15 
ROOT
ATOM      1  N   UNL d   1      52.225  33.717  53.401  0.00  0.00    -0.196 N 
ATOM      2  C   UNL d   1      52.896  33.338  53.696  0.00  0.00     0.167 A 
ATOM      3  C   UNL d   1      51.691  33.305  52.931  0.00  0.00     0.152 A 
ATOM      4  N   UNL d   1      52.240  34.491  53.666  0.00  0.00    -0.163 NA
ATOM      5  C   UNL d   1      53.324  33.878  54.141  0.00  0.00     0.055 A 
ATOM      6  C   UNL d   1      52.921  34.591  54.124  0.00  0.00     0.104 A 
ATOM      7  N   UNL d   1      53.032  32.546  53.519  0.00  0.00    -0.227 NA
ATOM      8  C   UNL d   1      51.825  32.506  52.751  0.00  0.00     0.057 A 
ATOM      9  C   UNL d   1      52.495  32.126  53.045  0.00  0.00     0.086 A 
ATOM     10  C   UNL d   1      53.155  35.287  54.500  0.00  0.00     0.023 C 
ATOM     11  C   UNL d   1      52.640  31.326  52.871  0.00  0.00     0.021 C 
ENDROOT
BRANCH   3  12
ATOM     12  N   UNL d   1      51.020  33.685  52.637  0.00  0.00    -0.286 N 
ATOM     13  C   UNL d   1      51.066  34.133  51.957  0.00  0.00     0.101 A 
ATOM     14  C   UNL d   1      50.390  34.514  51.665  0.00  0.00     0.100 A 
ATOM     15  N   UNL d   1      49.689  34.442  52.048  0.00  0.00    -0.300 N 
ATOM     16  C   UNL d   1      49.641  33.986  52.739  0.00  0.00     0.100 A 
ATOM     17  C   UNL d   1      50.301  33.612  53.029  0.00  0.00     0.101 A 
BRANCH  15  18
ATOM     18  C   UNL d   1      49.023  34.832  51.736  0.00  0.00     0.080 C 
BRANCH  18  19
ATOM     19  C   UNL d   1      48.564  35.311  52.228  0.00  0.00     0.018 A 
ATOM     20  C   UNL d   1      48.886  35.619  52.925  0.00  0.00     0.002 A 
ATOM     21  C   UNL d   1      48.415  36.099  53.410  0.00  0.00     0.000 A 
ATOM     22  C   UNL d   1      47.648  36.261  53.196  0.00  0.00     0.000 A 
ATOM     23  C   UNL d   1      47.337  35.956  52.512  0.00  0.00     0.000 A 
ATOM     24  C   UNL d   1      47.796  35.477  52.021  0.00  0.00     0.002 A 
ENDBRANCH  18  19
ENDBRANCH  15  18
ENDBRANCH   3  12
BRANCH   5  25
ATOM     25  C   UNL d   1      54.031  33.817  54.563  0.00  0.00     0.004 A 
ATOM     26  C   UNL d   1      54.024  33.584  55.355  0.00  0.00     0.000 A 
ATOM     27  C   UNL d   1      54.727  33.523  55.775  0.00  0.00     0.000 A 
ATOM     28  C   UNL d   1      55.450  33.696  55.403  0.00  0.00     0.000 A 
ATOM     29  C   UNL d   1      55.458  33.929  54.612  0.00  0.00     0.000 A 
ATOM     30  C   UNL d   1      54.751  33.990  54.189  0.00  0.00     0.000 A 
ENDBRANCH   5  25
TORSDOF 4
ENDMDL
MODEL 2
REMARK VINA RESULT:      -8.2      1.195      5.692
REMARK  4 active torsions:
REMARK  status: ('A' for Active; 'I' for Inactive)
REMARK    1  A    between atoms: N_9  and  C_3 
REMARK    2  A    between atoms: C_12  and  C_5 
REMARK    3  A    between atoms: C_15  and  N_11 
REMARK    4  A    between atoms: C_19  and  C_15 
ROOT
ATOM      1  N   UNL d   1      49.496  34.981  52.930  0.00  0.00    -0.196 N 
ATOM      2  C   UNL d   1      48.798  35.116  52.510  0.00  0.00     0.167 A 
ATOM      3  C   UNL d   1      50.091  34.518  52.601  0.00  0.00     0.152 A 
ATOM      4  N   UNL d   1      49.437  35.373  53.645  0.00  0.00    -0.163 NA
ATOM      5  C   UNL d   1      48.310  35.591  52.968  0.00  0.00     0.055 A 
ATOM      6  C   UNL d   1      48.702  35.751  53.669  0.00  0.00     0.104 A 
ATOM      7  N   UNL d   1      48.697  34.787  51.763  0.00  0.00    -0.227 NA
ATOM      8  C   UNL d   1      49.992  34.185  51.848  0.00  0.00     0.057 A 
ATOM      9  C   UNL d   1      49.295  34.320  51.428  0.00  0.00     0.086 A 
ATOM     10  C   UNL d   1      48.412  36.210  54.291  0.00  0.00     0.023 C 
ATOM     11  C   UNL d   1      49.185  33.992  50.672  0.00  0.00     0.021 C 
ENDROOT
BRANCH   3  12
ATOM     12  N   UNL d   1      50.788  34.383  53.021  0.00  0.00    -0.286 N 
ATOM     13  C   UNL d   1      51.438  34.863  52.904  0.00  0.00     0.101 A 
ATOM     14  C   UNL d   1      52.137  34.724  53.328  0.00  0.00     0.100 A 
ATOM     15  N   UNL d   1      52.178  34.119  53.852  0.00  0.00    -0.300 N 
ATOM     16  C   UNL d   1      51.519  33.630  53.972  0.00  0.00     0.100 A 
ATOM     17  C   UNL d   1      50.832  33.763  53.559  0.00  0.00     0.101 A 
BRANCH  15  18
ATOM     18  C   UNL d   1      52.890  33.999  54.266  0.00  0.00     0.080 C 
BRANCH  18  19
ATOM     19  C   UNL d   1      53.383  33.370  54.056  0.00  0.00     0.018 A 
ATOM     20  C   UNL d   1      53.959  33.472  53.471  0.00  0.00     0.002 A 
ATOM     21  C   UNL d   1      54.447  32.833  53.269  0.00  0.00     0.000 A 
ATOM     22  C   UNL d   1      54.355  32.119  53.645  0.00  0.00     0.000 A 
ATOM     23  C   UNL d   1      53.789  32.024  54.218  0.00  0.00     0.000 A 
ATOM     24  C   UNL d   1      53.296  32.653  54.428  0.00  0.00     0.002 A 
ENDBRANCH  18  19
ENDBRANCH  15  18
ENDBRANCH   3  12
BRANCH   5  25
ATOM     25  C   UNL d   1      47.555  35.901  52.840  0.00  0.00     0.004 A 
ATOM     26  C   UNL d   1      47.415  36.399  52.197  0.00  0.00     0.000 A 
ATOM     27  C   UNL d   1      46.664  36.709  52.070  0.00  0.00     0.000 A 
ATOM     28  C   UNL d   1      46.043  36.520  52.589  0.00  0.00     0.000 A 
ATOM     29  C   UNL d   1      46.183  36.023  53.232  0.00  0.00     0.000 A 
ATOM     30  C   UNL d   1      46.938  35.712  53.360  0.00  0.00     0.000 A 
ENDBRANCH   5  25
TORSDOF 4
ENDMDL
MODEL 3
REMARK VINA RESULT:      -7.4      1.492      3.117
REMARK  4 active torsions:
REMARK  status: ('A' for Active; 'I' for Inactive)
REMARK    1  A    between atoms: N_9  and  C_3 
REMARK    2  A    between atoms: C_12  and  C_5 
REMARK    3  A    between atoms: C_15  and  N_11 
REMARK    4  A    between atoms: C_19  and  C_15 
ROOT
ATOM      1  N   UNL d   1      52.750  32.062  53.612  0.00  0.00    -0.196 N 
ATOM      2  C   UNL d   1      53.245  31.539  54.015  0.00  0.00     0.167 A 
ATOM      3  C   UNL d   1      52.831  32.873  53.721  0.00  0.00     0.152 A 
ATOM      4  N   UNL d   1      52.241  31.618  53.150  0.00  0.00    -0.163 NA
ATOM      5  C   UNL d   1      53.041  30.774  53.802  0.00  0.00     0.055 A 
ATOM      6  C   UNL d   1      52.421  30.819  53.268  0.00  0.00     0.104 A 
ATOM      7  N   UNL d   1      53.820  31.829  54.527  0.00  0.00    -0.227 NA
ATOM      8  C   UNL d   1      53.410  33.169  54.236  0.00  0.00     0.057 A 
ATOM      9  C   UNL d   1      53.905  32.646  54.639  0.00  0.00     0.086 A 
ATOM     10  C   UNL d   1      52.043  30.179  52.910  0.00  0.00     0.023 C 
ATOM     11  C   UNL d   1      54.490  32.931  55.159  0.00  0.00     0.021 C 
ENDROOT
BRANCH   3  12
ATOM     12  N   UNL d   1      52.336  33.395  53.317  0.00  0.00    -0.286 N 
ATOM     13  C   UNL d   1      52.520  33.635  52.560  0.00  0.00     0.101 A 
ATOM     14  C   UNL d   1      52.020  34.160  52.157  0.00  0.00     0.100 A 
ATOM     15  N   UNL d   1      51.355  34.435  52.511  0.00  0.00    -0.300 N 
ATOM     16  C   UNL d   1      51.166  34.193  53.282  0.00  0.00     0.100 A 
ATOM     17  C   UNL d   1      51.654  33.678  53.679  0.00  0.00     0.101 A 
BRANCH  15  18
ATOM     18  C   UNL d   1      50.868  34.961  52.089  0.00  0.00     0.080 C 
BRANCH  18  19
ATOM     19  C   UNL d   1      50.124  34.712  51.832  0.00  0.00     0.018 A 
ATOM     20  C   UNL d   1      50.039  34.350  51.093  0.00  0.00     0.002 A 
ATOM     21  C   UNL d   1      49.286  34.104  50.847  0.00  0.00     0.000 A 
ATOM     22  C   UNL d   1      48.645  34.220  51.332  0.00  0.00     0.000 A 
ATOM     23  C   UNL d   1      48.733  34.575  52.055  0.00  0.00     0.000 A 
ATOM     24  C   UNL d   1      49.477  34.824  52.311  0.00  0.00     0.002 A 
ENDBRANCH  18  19
ENDBRANCH  15  18
ENDBRANCH   3  12
BRANCH   5  25
ATOM     25  C   UNL d   1      53.337  30.035  54.023  0.00  0.00     0.004 A 
ATOM     26  C   UNL d   1      53.948  29.687  53.593  0.00  0.00     0.000 A 
ATOM     27  C   UNL d   1      54.244  28.952  53.812  0.00  0.00     0.000 A 
ATOM     28  C   UNL d   1      53.926  28.557  54.471  0.00  0.00     0.000 A 
ATOM     29  C   UNL d   1      53.315  28.904  54.902  0.00  0.00     0.000 A 
ATOM     30  C   UNL d   1      53.018  29.643  54.681  0.00  0.00     0.000 A 
ENDBRANCH   5  25
TORSDOF 4
ENDMDL
MODEL 4
REMARK VINA RESULT:      -7.1      1.368      5.434
REMARK  4 active torsions:
REMARK  status: ('A' for Active; 'I' for Inactive)
REMARK    1  A    between atoms: N_9  and  C_3 
REMARK    2  A    between atoms: C_12  and  C_5 
REMARK    3  A    between atoms: C_15  and  N_11 
REMARK    4  A    between atoms: C_19  and  C_15 
ROOT
ATOM      1  N   UNL d   1      51.718  33.663  53.338  0.00  0.00    -0.196 N 
ATOM      2  C   UNL d   1      51.321  34.385  53.302  0.00  0.00     0.167 A 
ATOM      3  C   UNL d   1      52.513  33.639  53.549  0.00  0.00     0.152 A 
ATOM      4  N   UNL d   1      51.186  33.075  53.136  0.00  0.00    -0.163 NA
ATOM      5  C   UNL d   1      50.545  34.242  53.079  0.00  0.00     0.055 A 
ATOM      6  C   UNL d   1      50.459  33.433  52.976  0.00  0.00     0.104 A 
ATOM      7  N   UNL d   1      51.719  35.083  53.479  0.00  0.00    -0.227 NA
ATOM      8  C   UNL d   1      52.918  34.341  53.728  0.00  0.00     0.057 A 
ATOM      9  C   UNL d   1      52.521  35.063  53.692  0.00  0.00     0.086 A 
ATOM     10  C   UNL d   1      49.766  33.046  52.751  0.00  0.00     0.023 C 
ATOM     11  C   UNL d   1      52.916  35.774  53.869  0.00  0.00     0.021 C 
ENDROOT
BRANCH   3  12
ATOM     12  N   UNL d   1      52.910  32.917  53.585  0.00  0.00    -0.286 N 
ATOM     13  C   UNL d   1      53.070  32.501  52.902  0.00  0.00     0.101 A 
ATOM     14  C   UNL d   1      53.469  31.775  52.941  0.00  0.00     0.100 A 
ATOM     15  N   UNL d   1      53.699  31.480  53.650  0.00  0.00    -0.300 N 
ATOM     16  C   UNL d   1      53.538  31.901  54.346  0.00  0.00     0.100 A 
ATOM     17  C   UNL d   1      53.147  32.612  54.311  0.00  0.00     0.101 A 
BRANCH  15  18
ATOM     18  C   UNL d   1      54.099  30.750  53.666  0.00  0.00     0.080 C 
BRANCH  18  19
ATOM     19  C   UNL d   1      53.681  30.060  53.846  0.00  0.00     0.018 A 
ATOM     20  C   UNL d   1      53.150  29.742  53.297  0.00  0.00     0.002 A 
ATOM     21  C   UNL d   1      52.737  29.049  53.490  0.00  0.00     0.000 A 
ATOM     22  C   UNL d   1      52.858  28.693  54.210  0.00  0.00     0.000 A 
ATOM     23  C   UNL d   1      53.379  29.009  54.744  0.00  0.00     0.000 A 
ATOM     24  C   UNL d   1      53.797  29.699  54.564  0.00  0.00     0.002 A 
ENDBRANCH  18  19
ENDBRANCH  15  18
ENDBRANCH   3  12
BRANCH   5  25
ATOM     25  C   UNL d   1      49.899  34.742  52.955  0.00  0.00     0.004 A 
ATOM     26  C   UNL d   1      49.533  35.113  53.594  0.00  0.00     0.000 A 
ATOM     27  C   UNL d   1      48.890  35.611  53.470  0.00  0.00     0.000 A 
ATOM     28  C   UNL d   1      48.607  35.741  52.699  0.00  0.00     0.000 A 
ATOM     29  C   UNL d   1      48.973  35.369  52.061  0.00  0.00     0.000 A 
ATOM     30  C   UNL d   1      49.619  34.869  52.185  0.00  0.00     0.000 A 
ENDBRANCH   5  25
TORSDOF 4
ENDMDL
MODEL 5
REMARK VINA RESULT:      -6.5      1.196      6.105
REMARK  4 active torsions:
REMARK  status: ('A' for Active; 'I' for Inactive)
REMARK    1  A    between atoms: N_9  and  C_3 
REMARK    2  A    between atoms: C_12  and  C_5 
REMARK    3  A    between atoms: C_15  and  N_11 
REMARK    4  A    between atoms: C_19  and  C_15 
ROOT
ATOM      1  N   UNL d   1      48.707  35.048  52.455  0.00  0.00    -0.196 N 
ATOM      2  C   UNL d   1      48.007  35.475  52.545  0.00  0.00     0.167 A 
ATOM      3  C   UNL d   1      49.291  35.087  53.034  0.00  0.00     0.152 A 
ATOM      4  N   UNL d   1      48.663  34.642  51.747  0.00  0.00    -0.163 NA
ATOM      5  C   UNL d   1      47.532  35.333  51.891  0.00  0.00     0.055 A 
ATOM      6  C   UNL d   1      47.935  34.818  51.397  0.00  0.00     0.104 A 
ATOM      7  N   UNL d   1      47.892  35.942  53.213  0.00  0.00    -0.227 NA
ATOM      8  C   UNL d   1      49.178  35.556  53.709  0.00  0.00     0.057 A 
ATOM      9  C   UNL d   1      48.478  35.984  53.798  0.00  0.00     0.086 A 
ATOM     10  C   UNL d   1      47.660  34.528  50.675  0.00  0.00     0.023 C 
ATOM     11  C   UNL d   1      48.354  36.457  54.471  0.00  0.00     0.021 C 
ENDROOT
BRANCH   3  12
ATOM     12  N   UNL d   1      49.991  34.659  52.944  0.00  0.00    -0.286 N 
ATOM     13  C   UNL d   1      50.595  34.950  52.479  0.00  0.00     0.101 A 
ATOM     14  C   UNL d   1      51.296  34.518  52.392  0.00  0.00     0.100 A 
ATOM     15  N   UNL d   1      51.384  33.812  52.763  0.00  0.00    -0.300 N 
ATOM     16  C   UNL d   1      50.772  33.515  53.236  0.00  0.00     0.100 A 
ATOM     17  C   UNL d   1      50.083  33.936  53.324  0.00  0.00     0.101 A 
BRANCH  15  18
ATOM     18  C   UNL d   1      52.097  33.395  52.661  0.00  0.00     0.080 C 
BRANCH  18  19
ATOM     19  C   UNL d   1      52.656  33.387  53.269  0.00  0.00     0.018 A 
ATOM     20  C   UNL d   1      52.770  32.702  53.719  0.00  0.00     0.002 A 
ATOM     21  C   UNL d   1      53.333  32.707  54.327  0.00  0.00     0.000 A 
ATOM     22  C   UNL d   1      53.765  33.379  54.473  0.00  0.00     0.000 A 
ATOM     23  C   UNL d   1      53.650  34.048  54.029  0.00  0.00     0.000 A 
ATOM     24  C   UNL d   1      53.092  34.056  53.421  0.00  0.00     0.002 A 
ENDBRANCH  18  19
ENDBRANCH  15  18
ENDBRANCH   3  12
BRANCH   5  25
ATOM     25  C   UNL d   1      46.782  35.604  51.677  0.00  0.00     0.004 A 
ATOM     26  C   UNL d   1      46.110  35.173  51.886  0.00  0.00     0.000 A 
ATOM     27  C   UNL d   1      45.363  35.442  51.673  0.00  0.00     0.000 A 
ATOM     28  C   UNL d   1      45.283  36.151  51.246  0.00  0.00     0.000 A 
ATOM     29  C   UNL d   1      45.954  36.582  51.038  0.00  0.00     0.000 A 
ATOM     30  C   UNL d   1      46.705  36.311  51.252  0.00  0.00     0.000 A 
ENDBRANCH   5  25
TORSDOF 4
ENDMDL
MODEL 6
REMARK VINA RESULT:      -6.4      1.309      2.029
REMARK  4 active torsions:
REMARK  status: ('A' for Active; 'I' for Inactive)
REMARK    1  A    between atoms: N_9  and  C_3 
REMARK    2  A    between atoms: C_12  and  C_5 
REMARK    3  A    between atoms: C_15  and  N_11 
REMARK    4  A    between atoms: C_19  and  C_15 
ROOT
ATOM      1  N   UNL d   1      51.644  33.584  53.003  0.00  0.00    -0.196 N 
ATOM      2  C   UNL d   1      52.379  33.467  53.360  0.00  0.00     0.167 A 
ATOM      3  C   UNL d   1      51.332  34.343  52.940  0.00  0.00     0.152 A 
ATOM      4  N   UNL d   1      51.360  32.853  52.770  0.00  0.00    -0.163 NA
ATOM      5  C   UNL d   1      52.548  32.665  53.346  0.00  0.00     0.055 A 
ATOM      6  C   UNL d   1      51.920  32.283  52.982  0.00  0.00     0.104 A 
ATOM      7  N   UNL d   1      52.801  34.110  53.652  0.00  0.00    -0.227 NA
ATOM      8  C   UNL d   1      51.756  34.993  53.234  0.00  0.00     0.057 A 
ATOM      9  C   UNL d   1      52.491  34.876  53.590  0.00  0.00     0.086 A 
ATOM     10  C   UNL d   1      51.859  31.471  52.851  0.00  0.00     0.023 C 
ATOM     11  C   UNL d   1      52.924  35.521  53.888  0.00  0.00     0.021 C 
ENDROOT
BRANCH   3  12
ATOM     12  N   UNL d   1      50.598  34.460  52.584  0.00  0.00    -0.286 N 
ATOM     13  C   UNL d   1      50.528  34.451  51.771  0.00  0.00     0.101 A 
ATOM     14  C   UNL d   1      49.787  34.568  51.417  0.00  0.00     0.100 A 
ATOM     15  N   UNL d   1      49.138  34.691  51.871  0.00  0.00    -0.300 N 
ATOM     16  C   UNL d   1      49.207  34.701  52.697  0.00  0.00     0.100 A 
ATOM     17  C   UNL d   1      49.930  34.586  53.048  0.00  0.00     0.101 A 
BRANCH  15  18
ATOM     18  C   UNL d   1      48.405  34.807  51.493  0.00  0.00     0.080 C 
BRANCH  18  19
ATOM     19  C   UNL d   1      47.875  35.364  51.794  0.00  0.00     0.018 A 
ATOM     20  C   UNL d   1      47.147  35.120  52.102  0.00  0.00     0.002 A 
ATOM     21  C   UNL d   1      46.624  35.689  52.401  0.00  0.00     0.000 A 
ATOM     22  C   UNL d   1      46.830  36.475  52.388  0.00  0.00     0.000 A 
ATOM     23  C   UNL d   1      47.544  36.709  52.085  0.00  0.00     0.000 A 
ATOM     24  C   UNL d   1      48.074  36.152  51.784  0.00  0.00     0.002 A 
ENDBRANCH  18  19
ENDBRANCH  15  18
ENDBRANCH   3  12
BRANCH   5  25
ATOM     25  C   UNL d   1      53.193  32.225  53.617  0.00  0.00     0.004 A 
ATOM     26  C   UNL d   1      53.282  32.073  54.423  0.00  0.00     0.000 A 
ATOM     27  C   UNL d   1      53.923  31.636  54.693  0.00  0.00     0.000 A 
ATOM     28  C   UNL d   1      54.486  31.346  54.153  0.00  0.00     0.000 A 
ATOM     29  C   UNL d   1      54.397  31.498  53.348  0.00  0.00     0.000 A 
ATOM     30  C   UNL d   1      53.751  31.938  53.077  0.00  0.00     0.000 A 
ENDBRANCH   5  25
TORSDOF 4
ENDMDL
