MODEL 1
REMARK VINA RESULT:      97.6      0.000      0.000
REMARK  3 active torsions:
REMARK  status: ('A' for Active; 'I' for Inactive)
REMARK    1  A    between atoms: C_3  and  S_1 
REMARK    2  A    between atoms: N_4  and  S_1 
REMARK       I    between atoms: C_2  and  N_5 
REMARK       I    between atoms: N_6  and  C_2 
REMARK    3  A    between atoms: C_13  and  N_6 
ROOT
ATOM      1  C   UNL d   1     -55.351-102.084 -41.858  0.00  0.00     0.339 C 
ATOM      2  N   UNL d   1     -55.318-101.714 -39.403  0.00  0.00    -0.226 N 
ATOM      3  N   UNL d   1     -55.338-101.956 -41.043  0.00  0.00    -0.254 N 
ATOM      4  N   UNL d   1     -55.145-101.474 -42.381  0.00  0.00    -0.257 N 
ATOM      5  C   UNL d   1     -55.110-101.096 -39.910  0.00  0.00     0.111 A 
ATOM      6  C   UNL d   1     -55.537-102.456 -39.717  0.00  0.00     0.111 A 
ATOM      7  O   UNL d   1     -55.571-102.829 -42.163  0.00  0.00    -0.245 OA
ATOM      8  C   UNL d   1     -55.120-101.219 -40.739  0.00  0.00     0.104 A 
ATOM      9  C   UNL d   1     -55.547-102.576 -40.533  0.00  0.00     0.104 A 
ATOM     10  C   UNL d   1     -54.928-100.740 -42.075  0.00  0.00     0.104 C 
ENDROOT
BRANCH   2  11
ATOM     11  S   UNL d   1     -55.307-101.594 -38.595  0.00  0.00     0.271 S 
ATOM     12  O   UNL d   1     -55.899-102.162 -38.504  0.00  0.00    -0.200 OA
ATOM     13  O   UNL d   1     -54.716-101.027 -38.686  0.00  0.00    -0.200 OA
BRANCH  11  14
ATOM     14  C   UNL d   1     -55.297-101.474 -37.779  0.00  0.00     0.104 A 
ATOM     15  C   UNL d   1     -55.265-102.114 -37.269  0.00  0.00     0.012 A 
ATOM     16  C   UNL d   1     -55.255-101.995 -36.464  0.00  0.00     0.001 A 
ATOM     17  C   UNL d   1     -55.243-102.879 -37.576  0.00  0.00     0.001 C 
ATOM     18  C   UNL d   1     -55.277-101.231 -36.160  0.00  0.00     0.000 A 
ATOM     19  C   UNL d   1     -55.309-100.590 -36.671  0.00  0.00     0.001 A 
ATOM     20  C   UNL d   1     -55.267-101.110 -35.344  0.00  0.00     0.000 C 
ATOM     21  C   UNL d   1     -55.319-100.709 -37.479  0.00  0.00     0.012 A 
ATOM     22  C   UNL d   1     -55.351-100.067 -37.999  0.00  0.00     0.001 C 
ENDBRANCH  11  14
ENDBRANCH   2  11
BRANCH   4  23
ATOM     23  C   UNL d   1     -55.159-101.606 -43.200  0.00  0.00     0.068 A 
ATOM     24  C   UNL d   1     -54.932-102.334 -43.522  0.00  0.00     0.018 A 
ATOM     25  C   UNL d   1     -54.949-102.453 -44.330  0.00  0.00     0.002 A 
ATOM     26  C   UNL d   1     -55.197-101.840 -44.833  0.00  0.00     0.000 A 
ATOM     27  C   UNL d   1     -55.426-101.109 -44.514  0.00  0.00     0.002 A 
ATOM     28  C   UNL d   1     -55.212-101.968 -45.647  0.00  0.00     0.000 C 
ATOM     29  C   UNL d   1     -55.403-101.000 -43.697  0.00  0.00     0.018 A 
ENDBRANCH   4  23
TORSDOF 3
ENDMDL
MODEL 2
REMARK VINA RESULT:      99.5      1.330      5.931
REMARK  3 active torsions:
REMARK  status: ('A' for Active; 'I' for Inactive)
REMARK    1  A    between atoms: C_3  and  S_1 
REMARK    2  A    between atoms: N_4  and  S_1 
REMARK       I    between atoms: C_2  and  N_5 
REMARK       I    between atoms: N_6  and  C_2 
REMARK    3  A    between atoms: C_13  and  N_6 
ROOT
ATOM      1  C   UNL d   1     -55.494-101.896 -40.029  0.00  0.00     0.339 C 
ATOM      2  N   UNL d   1     -55.239-101.284 -42.422  0.00  0.00    -0.226 N 
ATOM      3  N   UNL d   1     -55.406-101.688 -40.823  0.00  0.00    -0.254 N 
ATOM      4  N   UNL d   1     -55.145-101.434 -39.435  0.00  0.00    -0.257 N 
ATOM      5  C   UNL d   1     -54.886-100.814 -41.843  0.00  0.00     0.111 A 
ATOM      6  C   UNL d   1     -55.678-101.959 -42.202  0.00  0.00     0.111 A 
ATOM      7  O   UNL d   1     -55.934-102.573 -39.818  0.00  0.00    -0.245 OA
ATOM      8  C   UNL d   1     -54.971-101.018 -41.035  0.00  0.00     0.104 A 
ATOM      9  C   UNL d   1     -55.761-102.161 -41.406  0.00  0.00     0.104 A 
ATOM     10  C   UNL d   1     -54.712-100.767 -39.648  0.00  0.00     0.104 C 
ENDROOT
BRANCH   2  11
ATOM     11  S   UNL d   1     -55.157-101.085 -43.210  0.00  0.00     0.271 S 
ATOM     12  O   UNL d   1     -55.577-100.387 -43.077  0.00  0.00    -0.200 OA
ATOM     13  O   UNL d   1     -54.737-101.782 -43.343  0.00  0.00    -0.200 OA
BRANCH  11  14
ATOM     14  C   UNL d   1     -55.074-100.883 -44.006  0.00  0.00     0.104 A 
ATOM     15  C   UNL d   1     -55.188-101.448 -44.588  0.00  0.00     0.012 A 
ATOM     16  C   UNL d   1     -55.107-101.250 -45.372  0.00  0.00     0.001 A 
ATOM     17  C   UNL d   1     -55.388-102.220 -44.372  0.00  0.00     0.001 C 
ATOM     18  C   UNL d   1     -54.908-100.480 -45.584  0.00  0.00     0.000 A 
ATOM     19  C   UNL d   1     -54.793 -99.914 -45.001  0.00  0.00     0.001 A 
ATOM     20  C   UNL d   1     -54.825-100.279 -46.379  0.00  0.00     0.000 C 
ATOM     21  C   UNL d   1     -54.876-100.114 -44.213  0.00  0.00     0.012 A 
ATOM     22  C   UNL d   1     -54.761 -99.547 -43.621  0.00  0.00     0.001 C 
ENDBRANCH  11  14
ENDBRANCH   2  11
BRANCH   4  23
ATOM     23  C   UNL d   1     -55.235-101.646 -38.638  0.00  0.00     0.068 A 
ATOM     24  C   UNL d   1     -55.706-102.289 -38.414  0.00  0.00     0.018 A 
ATOM     25  C   UNL d   1     -55.788-102.489 -37.626  0.00  0.00     0.002 A 
ATOM     26  C   UNL d   1     -55.395-102.044 -37.044  0.00  0.00     0.000 A 
ATOM     27  C   UNL d   1     -54.923-101.398 -37.264  0.00  0.00     0.002 A 
ATOM     28  C   UNL d   1     -55.483-102.251 -36.252  0.00  0.00     0.000 C 
ATOM     29  C   UNL d   1     -54.848-101.207 -38.063  0.00  0.00     0.018 A 
ENDBRANCH   4  23
TORSDOF 3
ENDMDL
