MODEL 1
REMARK VINA RESULT:      50.8      0.000      0.000
REMARK  5 active torsions:
REMARK  status: ('A' for Active; 'I' for Inactive)
REMARK    1  A    between atoms: N_2  and  S_1 
REMARK    2  A    between atoms: C_3  and  S_1 
REMARK    3  A    between atoms: C_15  and  C_11 
REMARK    4  A    between atoms: O_17  and  C_12 
REMARK    5  A    between atoms: C_21  and  O_17 
ROOT
ATOM      1  C   UNL d   1     -51.496  24.663  33.781  0.00  0.00     0.128 A 
ATOM      2  C   UNL d   1     -52.316  24.639  33.717  0.00  0.00     0.015 A 
ATOM      3  C   UNL d   1     -52.692  23.944  33.480  0.00  0.00     0.001 A 
ATOM      4  C   UNL d   1     -51.051  23.993  33.608  0.00  0.00     0.112 A 
ATOM      5  C   UNL d   1     -52.247  23.273  33.306  0.00  0.00     0.002 A 
ATOM      6  C   UNL d   1     -51.427  23.298  33.370  0.00  0.00     0.025 A 
ENDROOT
BRANCH   1   7
ATOM      7  S   UNL d   1     -51.120  25.358  34.019  0.00  0.00     0.288 S 
ATOM      8  O   UNL d   1     -51.331  25.716  33.306  0.00  0.00    -0.198 OA
ATOM      9  O   UNL d   1     -50.909  25.001  34.732  0.00  0.00    -0.198 OA
BRANCH   7  10
ATOM     10  N   UNL d   1     -50.744  26.053  34.256  0.00  0.00    -0.152 N 
ATOM     11  N   UNL d   1     -50.167  26.463  33.837  0.00  0.00    -0.155 NA
ATOM     12  C   UNL d   1     -49.944  27.124  34.274  0.00  0.00     0.104 A 
ATOM     13  C   UNL d   1     -49.380  27.685  34.055  0.00  0.00     0.022 C 
ATOM     14  C   UNL d   1     -50.387  27.125  34.970  0.00  0.00     0.041 A 
ATOM     15  C   UNL d   1     -50.880  26.464  34.959  0.00  0.00     0.096 A 
ATOM     16  C   UNL d   1     -51.415  26.251  35.548  0.00  0.00     0.022 C 
ENDBRANCH   7  10
ENDBRANCH   1   7
BRANCH   4  17
ATOM     17  O   UNL d   1     -50.227  24.015  33.672  0.00  0.00    -0.304 OA
BRANCH  17  18
ATOM     18  C   UNL d   1     -49.791  23.318  33.629  0.00  0.00     0.123 C 
ATOM     19  C   UNL d   1     -49.001  23.303  33.883  0.00  0.00     0.029 C 
ENDBRANCH  17  18
ENDBRANCH   4  17
BRANCH   3  20
ATOM     20  C   UNL d   1     -53.512  23.919  33.416  0.00  0.00     0.000 C 
ATOM     21  C   UNL d   1     -53.946  24.624  33.346  0.00  0.00     0.000 C 
ATOM     22  C   UNL d   1     -53.906  23.194  33.421  0.00  0.00     0.000 C 
ENDBRANCH   3  20
TORSDOF 5
ENDMDL
