MODEL 1
REMARK VINA RESULT:      -2.2      0.000      0.000
REMARK  8 active torsions:
REMARK  status: ('A' for Active; 'I' for Inactive)
REMARK    1  A    between atoms: C_6  and  N_1 
REMARK    2  A    between atoms: C_7  and  C_6 
REMARK    3  A    between atoms: C_12  and  C_7 
REMARK    4  A    between atoms: C_8  and  C_19 
REMARK    5  A    between atoms: C_9  and  C_20 
REMARK    6  A    between atoms: N_13  and  C_12 
REMARK    7  A    between atoms: C_19  and  N_13 
REMARK    8  A    between atoms: C_20  and  N_13 
ROOT
ATOM      1  N   UNL d   1      30.679  17.131 -24.467  0.00  0.00    -0.303 N 
ATOM      2  C   UNL d   1      30.569  16.536 -23.897  0.00  0.00     0.064 A 
ATOM      3  C   UNL d   1      29.945  17.501 -24.591  0.00  0.00     0.064 A 
ATOM      4  C   UNL d   1      29.384  17.139 -24.102  0.00  0.00     0.018 A 
ATOM      5  C   UNL d   1      29.766  16.539 -23.668  0.00  0.00     0.018 A 
ATOM      6  C   UNL d   1      29.720  18.120 -25.088  0.00  0.00     0.018 A 
ATOM      7  C   UNL d   1      31.091  15.995 -23.556  0.00  0.00     0.018 A 
ATOM      8  C   UNL d   1      28.598  17.396 -24.110  0.00  0.00     0.002 A 
ATOM      9  C   UNL d   1      29.498  16.005 -23.108  0.00  0.00     0.002 A 
ATOM     10  C   UNL d   1      30.014  15.466 -22.768  0.00  0.00     0.000 A 
ATOM     11  C   UNL d   1      30.812  15.460 -22.991  0.00  0.00     0.002 A 
ATOM     12  C   UNL d   1      28.927  18.381 -25.097  0.00  0.00     0.002 A 
ATOM     13  C   UNL d   1      28.371  18.014 -24.605  0.00  0.00     0.000 A 
ENDROOT
BRANCH   1  14
ATOM     14  C   UNL d   1      31.385  17.321 -24.842  0.00  0.00     0.124 C 
BRANCH  14  15
ATOM     15  C   UNL d   1      31.884  17.660 -24.282  0.00  0.00     0.231 C 
ATOM     16  O   UNL d   1      32.478  17.136 -24.041  0.00  0.00    -0.283 OA
BRANCH  15  17
ATOM     17  C   UNL d   1      31.936  18.391 -23.904  0.00  0.00     0.124 C 
BRANCH  17  18
ATOM     18  N   UNL d   1      32.660  18.774 -23.849  0.00  0.00    -0.300 N 
BRANCH  18  19
ATOM     19  C   UNL d   1      32.980  19.146 -24.514  0.00  0.00     0.080 C 
BRANCH  19  20
ATOM     20  C   UNL d   1      32.851  19.953 -24.640  0.00  0.00     0.019 C 
ATOM     21  C   UNL d   1      33.217  20.534 -25.095  0.00  0.00     0.002 C 
ENDBRANCH  19  20
ENDBRANCH  18  19
BRANCH  18  22
ATOM     22  C   UNL d   1      33.067  18.789 -23.137  0.00  0.00     0.080 C 
BRANCH  22  23
ATOM     23  C   UNL d   1      32.728  19.139 -22.473  0.00  0.00     0.019 C 
ATOM     24  C   UNL d   1      32.981  19.695 -21.919  0.00  0.00     0.002 C 
ENDBRANCH  22  23
ENDBRANCH  18  22
ENDBRANCH  17  18
ENDBRANCH  15  17
ENDBRANCH  14  15
ENDBRANCH   1  14
TORSDOF 8
ENDMDL
MODEL 2
REMARK VINA RESULT:      -1.5      1.277      4.704
REMARK  8 active torsions:
REMARK  status: ('A' for Active; 'I' for Inactive)
REMARK    1  A    between atoms: C_6  and  N_1 
REMARK    2  A    between atoms: C_7  and  C_6 
REMARK    3  A    between atoms: C_12  and  C_7 
REMARK    4  A    between atoms: C_8  and  C_19 
REMARK    5  A    between atoms: C_9  and  C_20 
REMARK    6  A    between atoms: N_13  and  C_12 
REMARK    7  A    between atoms: C_19  and  N_13 
REMARK    8  A    between atoms: C_20  and  N_13 
ROOT
ATOM      1  N   UNL d   1      33.192  19.692 -23.027  0.00  0.00    -0.303 N 
ATOM      2  C   UNL d   1      33.197  20.224 -23.666  0.00  0.00     0.064 A 
ATOM      3  C   UNL d   1      33.139  20.137 -22.327  0.00  0.00     0.064 A 
ATOM      4  C   UNL d   1      33.111  20.939 -22.528  0.00  0.00     0.018 A 
ATOM      5  C   UNL d   1      33.146  20.999 -23.358  0.00  0.00     0.018 A 
ATOM      6  C   UNL d   1      33.113  19.910 -21.534  0.00  0.00     0.018 A 
ATOM      7  C   UNL d   1      33.240  20.107 -24.481  0.00  0.00     0.018 A 
ATOM      8  C   UNL d   1      33.057  21.514 -21.937  0.00  0.00     0.002 A 
ATOM      9  C   UNL d   1      33.140  21.641 -23.867  0.00  0.00     0.002 A 
ATOM     10  C   UNL d   1      33.183  21.529 -24.678  0.00  0.00     0.000 A 
ATOM     11  C   UNL d   1      33.233  20.761 -24.987  0.00  0.00     0.002 A 
ATOM     12  C   UNL d   1      33.059  20.490 -20.936  0.00  0.00     0.002 A 
ATOM     13  C   UNL d   1      33.031  21.291 -21.145  0.00  0.00     0.000 A 
ENDROOT
BRANCH   1  14
ATOM     14  C   UNL d   1      33.233  18.872 -23.076  0.00  0.00     0.124 C 
BRANCH  14  15
ATOM     15  C   UNL d   1      32.481  18.594 -23.259  0.00  0.00     0.231 C 
ATOM     16  O   UNL d   1      31.967  18.640 -22.610  0.00  0.00    -0.283 OA
BRANCH  15  17
ATOM     17  C   UNL d   1      32.114  18.282 -23.929  0.00  0.00     0.124 C 
BRANCH  17  18
ATOM     18  N   UNL d   1      31.901  17.489 -23.948  0.00  0.00    -0.300 N 
BRANCH  18  19
ATOM     19  C   UNL d   1      31.104  17.277 -23.895  0.00  0.00     0.080 C 
BRANCH  19  20
ATOM     20  C   UNL d   1      30.652  17.185 -24.581  0.00  0.00     0.019 C 
ATOM     21  C   UNL d   1      29.845  17.161 -24.745  0.00  0.00     0.002 C 
ENDBRANCH  19  20
ENDBRANCH  18  19
BRANCH  18  22
ATOM     22  C   UNL d   1      32.475  16.908 -24.021  0.00  0.00     0.080 C 
BRANCH  22  23
ATOM     23  C   UNL d   1      32.419  16.344 -24.619  0.00  0.00     0.019 C 
ATOM     24  C   UNL d   1      32.934  15.782 -24.934  0.00  0.00     0.002 C 
ENDBRANCH  22  23
ENDBRANCH  18  22
ENDBRANCH  17  18
ENDBRANCH  15  17
ENDBRANCH  14  15
ENDBRANCH   1  14
TORSDOF 8
ENDMDL
MODEL 3
REMARK VINA RESULT:      -0.2      1.795      5.079
REMARK  8 active torsions:
REMARK  status: ('A' for Active; 'I' for Inactive)
REMARK    1  A    between atoms: C_6  and  N_1 
REMARK    2  A    between atoms: C_7  and  C_6 
REMARK    3  A    between atoms: C_12  and  C_7 
REMARK    4  A    between atoms: C_8  and  C_19 
REMARK    5  A    between atoms: C_9  and  C_20 
REMARK    6  A    between atoms: N_13  and  C_12 
REMARK    7  A    between atoms: C_19  and  N_13 
REMARK    8  A    between atoms: C_20  and  N_13 
ROOT
ATOM      1  N   UNL d   1      33.091  20.625 -22.625  0.00  0.00    -0.303 N 
ATOM      2  C   UNL d   1      33.096  21.216 -23.209  0.00  0.00     0.064 A 
ATOM      3  C   UNL d   1      32.919  20.989 -21.898  0.00  0.00     0.064 A 
ATOM      4  C   UNL d   1      32.818  21.800 -22.029  0.00  0.00     0.018 A 
ATOM      5  C   UNL d   1      32.926  21.947 -22.842  0.00  0.00     0.018 A 
ATOM      6  C   UNL d   1      32.843  20.683 -21.136  0.00  0.00     0.018 A 
ATOM      7  C   UNL d   1      33.231  21.187 -24.023  0.00  0.00     0.018 A 
ATOM      8  C   UNL d   1      32.640  22.304 -21.398  0.00  0.00     0.002 A 
ATOM      9  C   UNL d   1      32.894  22.632 -23.289  0.00  0.00     0.002 A 
ATOM     10  C   UNL d   1      33.028  22.607 -24.098  0.00  0.00     0.000 A 
ATOM     11  C   UNL d   1      33.197  21.884 -24.466  0.00  0.00     0.002 A 
ATOM     12  C   UNL d   1      32.664  21.190 -20.498  0.00  0.00     0.002 A 
ATOM     13  C   UNL d   1      32.563  22.000 -20.636  0.00  0.00     0.000 A 
ENDROOT
BRANCH   1  14
ATOM     14  C   UNL d   1      33.231  19.824 -22.742  0.00  0.00     0.124 C 
BRANCH  14  15
ATOM     15  C   UNL d   1      32.580  19.510 -23.134  0.00  0.00     0.231 C 
ATOM     16  O   UNL d   1      31.895  19.540 -22.670  0.00  0.00    -0.283 OA
BRANCH  15  17
ATOM     17  C   UNL d   1      32.444  19.173 -23.875  0.00  0.00     0.124 C 
BRANCH  17  18
ATOM     18  N   UNL d   1      32.346  18.361 -23.945  0.00  0.00    -0.300 N 
BRANCH  18  19
ATOM     19  C   UNL d   1      32.691  17.856 -23.389  0.00  0.00     0.080 C 
BRANCH  19  20
ATOM     20  C   UNL d   1      32.945  17.102 -23.614  0.00  0.00     0.019 C 
ATOM     21  C   UNL d   1      33.125  16.407 -23.211  0.00  0.00     0.002 C 
ENDBRANCH  19  20
ENDBRANCH  18  19
BRANCH  18  22
ATOM     22  C   UNL d   1      31.907  18.049 -24.564  0.00  0.00     0.080 C 
BRANCH  22  23
ATOM     23  C   UNL d   1      31.095  18.178 -24.602  0.00  0.00     0.019 C 
ATOM     24  C   UNL d   1      30.487  17.904 -25.088  0.00  0.00     0.002 C 
ENDBRANCH  22  23
ENDBRANCH  18  22
ENDBRANCH  17  18
ENDBRANCH  15  17
ENDBRANCH  14  15
ENDBRANCH   1  14
TORSDOF 8
ENDMDL
