MODEL 1
REMARK VINA RESULT:      45.3      0.000      0.000
REMARK  6 active torsions:
REMARK  status: ('A' for Active; 'I' for Inactive)
REMARK    1  A    between atoms: N_5  and  C_1 
REMARK       I    between atoms: C_9  and  N_5 
REMARK    2  A    between atoms: C_20  and  C_6 
REMARK    3  A    between atoms: C_17  and  C_9 
REMARK    4  A    between atoms: C_12  and  C_10 
REMARK    5  A    between atoms: C_11  and  S_13 
REMARK    6  A    between atoms: S_13  and  C_17 
ROOT
ATOM      1  N   UNL d   1      14.349  17.613  -5.325  0.00  0.00    -0.148 NA
ATOM      2  N   UNL d   1      14.285  16.804  -5.181  0.00  0.00    -0.141 NA
ATOM      3  C   UNL d   1      13.895  17.967  -5.922  0.00  0.00     0.104 A 
ATOM      4  C   UNL d   1      13.773  16.341  -5.623  0.00  0.00     0.133 A 
ATOM      5  C   UNL d   1      13.378  17.502  -6.370  0.00  0.00     0.023 A 
ATOM      6  C   UNL d   1      13.316  16.695  -6.223  0.00  0.00     0.029 A 
ENDROOT
BRANCH   4   7
ATOM      7  S   UNL d   1      13.708  15.532  -5.478  0.00  0.00    -0.061 SA
BRANCH   7   8
ATOM      8  C   UNL d   1      13.032  15.225  -5.129  0.00  0.00     0.099 C 
BRANCH   8   9
ATOM      9  C   UNL d   1      13.068  14.496  -4.740  0.00  0.00     0.288 C 
ATOM     10  N   UNL d   1      13.208  13.809  -5.171  0.00  0.00    -0.181 NA
ATOM     11  O   UNL d   1      12.964  14.457  -3.926  0.00  0.00    -0.265 OA
BRANCH  10  12
ATOM     12  C   UNL d   1      13.245  13.086  -4.789  0.00  0.00     0.219 A 
ATOM     13  S   UNL d   1      13.115  12.953  -3.982  0.00  0.00    -0.026 SA
ATOM     14  C   UNL d   1      13.207  12.155  -3.841  0.00  0.00     0.135 A 
ATOM     15  N   UNL d   1      13.393  11.789  -4.553  0.00  0.00    -0.139 NA
ATOM     16  N   UNL d   1      13.415  12.364  -5.132  0.00  0.00    -0.121 NA
BRANCH  14  17
ATOM     17  C   UNL d   1      13.127  11.779  -3.108  0.00  0.00     0.028 C 
ATOM     18  C   UNL d   1      13.742  11.788  -2.567  0.00  0.00     0.002 C 
ENDBRANCH  14  17
ENDBRANCH  10  12
ENDBRANCH   8   9
ENDBRANCH   7   8
ENDBRANCH   4   7
BRANCH   3  19
ATOM     19  C   UNL d   1      13.960  18.776  -6.066  0.00  0.00     0.039 A 
ATOM     20  C   UNL d   1      14.690  19.135  -6.032  0.00  0.00     0.101 A 
ATOM     21  N   UNL d   1      14.759  19.938  -6.175  0.00  0.00    -0.242 NA
ATOM     22  C   UNL d   1      14.081  20.385  -6.355  0.00  0.00     0.099 A 
ATOM     23  C   UNL d   1      13.350  20.021  -6.388  0.00  0.00     0.021 A 
ATOM     24  C   UNL d   1      13.275  19.211  -6.245  0.00  0.00     0.005 A 
ENDBRANCH   3  19
TORSDOF 6
ENDMDL
MODEL 2
REMARK VINA RESULT:      45.8      1.600      6.104
REMARK  6 active torsions:
REMARK  status: ('A' for Active; 'I' for Inactive)
REMARK    1  A    between atoms: N_5  and  C_1 
REMARK       I    between atoms: C_9  and  N_5 
REMARK    2  A    between atoms: C_20  and  C_6 
REMARK    3  A    between atoms: C_17  and  C_9 
REMARK    4  A    between atoms: C_12  and  C_10 
REMARK    5  A    between atoms: C_11  and  S_13 
REMARK    6  A    between atoms: S_13  and  C_17 
ROOT
ATOM      1  N   UNL d   1      13.906  13.174  -2.577  0.00  0.00    -0.148 NA
ATOM      2  N   UNL d   1      13.638  13.339  -3.340  0.00  0.00    -0.141 NA
ATOM      3  C   UNL d   1      13.910  12.393  -2.298  0.00  0.00     0.104 A 
ATOM      4  C   UNL d   1      13.373  12.737  -3.828  0.00  0.00     0.133 A 
ATOM      5  C   UNL d   1      13.643  11.784  -2.789  0.00  0.00     0.023 A 
ATOM      6  C   UNL d   1      13.376  11.951  -3.549  0.00  0.00     0.029 A 
ENDROOT
BRANCH   4   7
ATOM      7  S   UNL d   1      13.104  12.902  -4.590  0.00  0.00    -0.061 SA
BRANCH   7   8
ATOM      8  C   UNL d   1      12.769  13.631  -4.764  0.00  0.00     0.099 C 
BRANCH   8   9
ATOM      9  C   UNL d   1      13.225  14.212  -5.134  0.00  0.00     0.288 C 
ATOM     10  N   UNL d   1      12.985  14.999  -5.109  0.00  0.00    -0.181 NA
ATOM     11  O   UNL d   1      13.917  14.006  -5.527  0.00  0.00    -0.265 OA
BRANCH  10  12
ATOM     12  C   UNL d   1      13.434  15.577  -5.474  0.00  0.00     0.219 A 
ATOM     13  S   UNL d   1      13.164  16.319  -5.726  0.00  0.00    -0.026 SA
ATOM     14  C   UNL d   1      13.793  16.715  -6.060  0.00  0.00     0.135 A 
ATOM     15  N   UNL d   1      14.455  16.228  -6.018  0.00  0.00    -0.139 NA
ATOM     16  N   UNL d   1      14.229  15.530  -5.658  0.00  0.00    -0.121 NA
BRANCH  14  17
ATOM     17  C   UNL d   1      13.771  17.476  -6.384  0.00  0.00     0.028 C 
ATOM     18  C   UNL d   1      14.031  18.121  -5.949  0.00  0.00     0.002 C 
ENDBRANCH  14  17
ENDBRANCH  10  12
ENDBRANCH   8   9
ENDBRANCH   7   8
ENDBRANCH   4   7
BRANCH   3  19
ATOM     19  C   UNL d   1      14.178  12.229  -1.535  0.00  0.00     0.039 A 
ATOM     20  C   UNL d   1      14.971  12.293  -1.365  0.00  0.00     0.101 A 
ATOM     21  N   UNL d   1      15.242  12.130  -0.610  0.00  0.00    -0.242 NA
ATOM     22  C   UNL d   1      14.704  11.899  -0.018  0.00  0.00     0.099 A 
ATOM     23  C   UNL d   1      13.908  11.836  -0.195  0.00  0.00     0.021 A 
ATOM     24  C   UNL d   1      13.630  11.999  -0.955  0.00  0.00     0.005 A 
ENDBRANCH   3  19
TORSDOF 6
ENDMDL
MODEL 3
REMARK VINA RESULT:      47.8      1.655      2.844
REMARK  6 active torsions:
REMARK  status: ('A' for Active; 'I' for Inactive)
REMARK    1  A    between atoms: N_5  and  C_1 
REMARK       I    between atoms: C_9  and  N_5 
REMARK    2  A    between atoms: C_20  and  C_6 
REMARK    3  A    between atoms: C_17  and  C_9 
REMARK    4  A    between atoms: C_12  and  C_10 
REMARK    5  A    between atoms: C_11  and  S_13 
REMARK    6  A    between atoms: S_13  and  C_17 
ROOT
ATOM      1  N   UNL d   1      14.000  14.862  -5.352  0.00  0.00    -0.148 NA
ATOM      2  N   UNL d   1      13.661  14.141  -5.136  0.00  0.00    -0.141 NA
ATOM      3  C   UNL d   1      13.809  15.552  -4.935  0.00  0.00     0.104 A 
ATOM      4  C   UNL d   1      13.134  14.099  -4.511  0.00  0.00     0.133 A 
ATOM      5  C   UNL d   1      13.277  15.513  -4.303  0.00  0.00     0.023 A 
ATOM      6  C   UNL d   1      12.941  14.793  -4.090  0.00  0.00     0.029 A 
ENDROOT
BRANCH   4   7
ATOM      7  S   UNL d   1      12.795  13.379  -4.295  0.00  0.00    -0.061 SA
BRANCH   7   8
ATOM      8  C   UNL d   1      13.257  12.702  -4.241  0.00  0.00     0.099 C 
BRANCH   8   9
ATOM      9  C   UNL d   1      13.445  12.395  -3.496  0.00  0.00     0.288 C 
ATOM     10  N   UNL d   1      14.077  12.707  -3.072  0.00  0.00    -0.181 NA
ATOM     11  O   UNL d   1      13.002  11.779  -3.180  0.00  0.00    -0.265 OA
BRANCH  10  12
ATOM     12  C   UNL d   1      14.266  12.405  -2.336  0.00  0.00     0.219 A 
ATOM     13  S   UNL d   1      13.815  12.487  -1.645  0.00  0.00    -0.026 SA
ATOM     14  C   UNL d   1      14.207  12.102  -1.042  0.00  0.00     0.135 A 
ATOM     15  N   UNL d   1      14.899  11.780  -1.351  0.00  0.00    -0.139 NA
ATOM     16  N   UNL d   1      14.930  11.969  -2.145  0.00  0.00    -0.121 NA
BRANCH  14  17
ATOM     17  C   UNL d   1      13.955  12.044  -0.257  0.00  0.00     0.028 C 
ATOM     18  C   UNL d   1      13.198  11.784  -0.082  0.00  0.00     0.002 C 
ENDBRANCH  14  17
ENDBRANCH  10  12
ENDBRANCH   8   9
ENDBRANCH   7   8
ENDBRANCH   4   7
BRANCH   3  19
ATOM     19  C   UNL d   1      14.148  16.273  -5.151  0.00  0.00     0.039 A 
ATOM     20  C   UNL d   1      13.948  16.615  -5.862  0.00  0.00     0.101 A 
ATOM     21  N   UNL d   1      14.282  17.330  -6.080  0.00  0.00    -0.242 NA
ATOM     22  C   UNL d   1      14.825  17.705  -5.573  0.00  0.00     0.099 A 
ATOM     23  C   UNL d   1      15.023  17.356  -4.860  0.00  0.00     0.021 A 
ATOM     24  C   UNL d   1      14.689  16.635  -4.636  0.00  0.00     0.005 A 
ENDBRANCH   3  19
TORSDOF 6
ENDMDL
