MODEL 1
REMARK VINA RESULT:      12.8      0.000      0.000
REMARK  0 active torsions:
REMARK  status: ('A' for Active; 'I' for Inactive)
ROOT
ATOM      1  C   UNL d   1     -51.669  25.886  33.314  0.00  0.00     0.134 A 
ATOM      2  N   UNL d   1     -52.291  25.346  33.316  0.00  0.00    -0.234 NA
ATOM      3  C   UNL d   1     -50.890  25.606  33.311  0.00  0.00     0.045 A 
ATOM      4  C   UNL d   1     -52.136  24.535  33.315  0.00  0.00     0.207 A 
ATOM      5  N   UNL d   1     -51.355  24.252  33.313  0.00  0.00    -0.244 NA
ATOM      6  C   UNL d   1     -50.734  24.792  33.311  0.00  0.00     0.081 A 
ATOM      7  S   UNL d   1     -51.820  26.697  33.314  0.00  0.00    -0.058 SA
ATOM      8  C   UNL d   1     -50.264  26.146  33.309  0.00  0.00     0.004 A 
ATOM      9  C   UNL d   1     -52.913  24.807  33.317  0.00  0.00     0.023 A 
ATOM     10  C   UNL d   1     -51.975  23.726  33.315  0.00  0.00     0.023 A 
ATOM     11  C   UNL d   1     -49.952  24.522  33.308  0.00  0.00     0.019 A 
ATOM     12  C   UNL d   1     -49.487  25.876  33.307  0.00  0.00     0.000 A 
ATOM     13  C   UNL d   1     -52.590  23.189  33.317  0.00  0.00    -0.001 A 
ATOM     14  C   UNL d   1     -53.535  24.267  33.319  0.00  0.00    -0.001 A 
ATOM     15  C   UNL d   1     -49.331  25.061  33.306  0.00  0.00     0.002 A 
ATOM     16  C   UNL d   1     -53.376  23.457  33.319  0.00  0.00    -0.000 A 
ENDROOT
TORSDOF 0
ENDMDL
MODEL 2
REMARK VINA RESULT:      15.0      0.530      2.792
REMARK  0 active torsions:
REMARK  status: ('A' for Active; 'I' for Inactive)
ROOT
ATOM      1  C   UNL d   1     -52.303  25.634  33.320  0.00  0.00     0.134 A 
ATOM      2  N   UNL d   1     -51.527  25.911  33.317  0.00  0.00    -0.234 NA
ATOM      3  C   UNL d   1     -52.442  24.819  33.318  0.00  0.00     0.045 A 
ATOM      4  C   UNL d   1     -50.897  25.378  33.313  0.00  0.00     0.207 A 
ATOM      5  N   UNL d   1     -51.034  24.559  33.311  0.00  0.00    -0.244 NA
ATOM      6  C   UNL d   1     -51.809  24.283  33.313  0.00  0.00     0.081 A 
ATOM      7  S   UNL d   1     -52.935  26.164  33.324  0.00  0.00    -0.058 SA
ATOM      8  C   UNL d   1     -53.219  24.538  33.320  0.00  0.00     0.004 A 
ATOM      9  C   UNL d   1     -50.752  26.188  33.315  0.00  0.00     0.023 A 
ATOM     10  C   UNL d   1     -50.271  24.841  33.309  0.00  0.00     0.023 A 
ATOM     11  C   UNL d   1     -51.957  23.469  33.311  0.00  0.00     0.019 A 
ATOM     12  C   UNL d   1     -53.365  23.728  33.318  0.00  0.00     0.000 A 
ATOM     13  C   UNL d   1     -49.501  25.112  33.307  0.00  0.00    -0.001 A 
ATOM     14  C   UNL d   1     -49.976  26.465  33.313  0.00  0.00    -0.001 A 
ATOM     15  C   UNL d   1     -52.733  23.192  33.314  0.00  0.00     0.002 A 
ATOM     16  C   UNL d   1     -49.349  25.929  33.309  0.00  0.00    -0.000 A 
ENDROOT
TORSDOF 0
ENDMDL
