MODEL 1
REMARK VINA RESULT:      80.7      0.000      0.000
REMARK  2 active torsions:
REMARK  status: ('A' for Active; 'I' for Inactive)
REMARK    1  A    between atoms: N_9  and  C_3 
REMARK    2  A    between atoms: C_11  and  C_4 
ROOT
ATOM      1  N   UNL d   1     -50.867  26.011  33.947  0.00  0.00    -0.196 N 
ATOM      2  C   UNL d   1     -51.610  25.598  33.917  0.00  0.00     0.167 A 
ATOM      3  C   UNL d   1     -50.856  26.802  33.782  0.00  0.00     0.152 A 
ATOM      4  C   UNL d   1     -51.641  24.804  34.080  0.00  0.00     0.057 A 
ATOM      5  N   UNL d   1     -50.220  24.796  34.305  0.00  0.00    -0.161 NA
ATOM      6  N   UNL d   1     -52.293  26.002  33.725  0.00  0.00    -0.227 NA
ATOM      7  C   UNL d   1     -51.539  27.219  33.586  0.00  0.00     0.057 A 
ATOM      8  C   UNL d   1     -50.941  24.395  34.277  0.00  0.00     0.124 A 
ATOM      9  C   UNL d   1     -52.271  26.812  33.557  0.00  0.00     0.086 A 
ATOM     10  C   UNL d   1     -52.990  27.238  33.354  0.00  0.00     0.021 C 
ENDROOT
BRANCH   4  11
ATOM     11  C   UNL d   1     -52.362  24.403  34.051  0.00  0.00     0.005 A 
ATOM     12  C   UNL d   1     -52.803  24.314  34.730  0.00  0.00     0.001 A 
ATOM     13  C   UNL d   1     -53.512  23.920  34.702  0.00  0.00     0.011 A 
ATOM     14  C   UNL d   1     -53.791  23.608  33.994  0.00  0.00     0.058 A 
ATOM     15  C   UNL d   1     -53.348  23.698  33.315  0.00  0.00     0.011 A 
ATOM     16 CL   UNL d   1     -54.546  23.188  33.964  0.00  0.00    -0.082 Cl
ATOM     17  C   UNL d   1     -52.628  24.098  33.344  0.00  0.00     0.001 A 
ENDBRANCH   4  11
BRANCH   3  18
ATOM     18  N   UNL d   1     -50.106  27.223  33.811  0.00  0.00    -0.289 N 
ATOM     19  C   UNL d   1     -50.092  28.079  33.852  0.00  0.00     0.082 A 
ATOM     20  C   UNL d   1     -49.352  28.499  33.881  0.00  0.00     0.019 A 
ATOM     21  C   UNL d   1     -48.607  28.064  33.869  0.00  0.00     0.003 A 
ATOM     22  C   UNL d   1     -48.629  27.204  33.828  0.00  0.00     0.019 A 
ATOM     23  C   UNL d   1     -49.369  26.784  33.799  0.00  0.00     0.082 A 
ENDBRANCH   3  18
TORSDOF 2
ENDMDL
