MODEL 1
REMARK VINA RESULT:      -6.4      0.000      0.000
REMARK  6 active torsions:
REMARK  status: ('A' for Active; 'I' for Inactive)
REMARK    1  A    between atoms: C_2  and  N_1 
REMARK       I    between atoms: C_3  and  N_9 
REMARK    2  A    between atoms: C_5  and  C_3 
REMARK    3  A    between atoms: C_6  and  C_5 
REMARK    4  A    between atoms: C_7  and  C_6 
REMARK    5  A    between atoms: O_14  and  C_7 
REMARK    6  A    between atoms: N_9  and  C_11 
ROOT
ATOM      1  C   UNL d   1     -47.926  11.717  23.410  0.00  0.00     0.258 C 
ATOM      2  N   UNL d   1     -48.403  12.353  23.630  0.00  0.00    -0.321 N 
ATOM      3  O   UNL d   1     -48.219  11.147  22.905  0.00  0.00    -0.267 OA
ATOM      4  H   UNL d   1     -48.110  12.922  24.135  0.00  0.00     0.169 HD
ENDROOT
BRANCH   2   5
ATOM      5  C   UNL d   1     -49.168  12.400  23.336  0.00  0.00     0.061 A 
ATOM      6  C   UNL d   1     -49.338  12.945  22.725  0.00  0.00     0.041 A 
ATOM      7  C   UNL d   1     -50.105  13.001  22.421  0.00  0.00     0.128 A 
ATOM      8  C   UNL d   1     -50.699  12.514  22.727  0.00  0.00     0.024 A 
ATOM      9  C   UNL d   1     -50.533  11.976  23.329  0.00  0.00     0.003 A 
ATOM     10  C   UNL d   1     -49.777  11.922  23.627  0.00  0.00     0.017 A 
BRANCH   7  11
ATOM     11  N   UNL d   1     -50.276  13.536  21.821  0.00  0.00    -0.114 N 
ATOM     12  O   UNL d   1     -50.679  14.236  21.986  0.00  0.00    -0.532 OA
ATOM     13  O   UNL d   1     -50.041  13.366  21.047  0.00  0.00    -0.532 OA
ENDBRANCH   7  11
ENDBRANCH   2   5
BRANCH   1  14
ATOM     14  C   UNL d   1     -47.160  11.659  23.697  0.00  0.00     0.066 C 
BRANCH  14  15
ATOM     15  C   UNL d   1     -46.658  11.095  23.385  0.00  0.00     0.073 C 
BRANCH  15  16
ATOM     16  C   UNL d   1     -45.855  11.089  23.582  0.00  0.00     0.296 C 
ATOM     17  O   UNL d   1     -45.446  11.801  23.661  0.00  0.00    -0.259 OA
BRANCH  16  18
ATOM     18  O   UNL d   1     -45.471  10.371  23.697  0.00  0.00    -0.296 OA
ATOM     19  C   UNL d   1     -44.649  10.322  23.628  0.00  0.00     0.185 C 
ENDBRANCH  16  18
ENDBRANCH  15  16
ENDBRANCH  14  15
ENDBRANCH   1  14
TORSDOF 6
ENDMDL
MODEL 2
REMARK VINA RESULT:      -6.2      1.819      4.668
REMARK  6 active torsions:
REMARK  status: ('A' for Active; 'I' for Inactive)
REMARK    1  A    between atoms: C_2  and  N_1 
REMARK       I    between atoms: C_3  and  N_9 
REMARK    2  A    between atoms: C_5  and  C_3 
REMARK    3  A    between atoms: C_6  and  C_5 
REMARK    4  A    between atoms: C_7  and  C_6 
REMARK    5  A    between atoms: O_14  and  C_7 
REMARK    6  A    between atoms: N_9  and  C_11 
ROOT
ATOM      1  C   UNL d   1     -48.136  13.801  22.755  0.00  0.00     0.258 C 
ATOM      2  N   UNL d   1     -47.622  13.636  23.379  0.00  0.00    -0.321 N 
ATOM      3  O   UNL d   1     -48.284  13.230  22.191  0.00  0.00    -0.267 OA
ATOM      4  H   UNL d   1     -47.474  14.206  23.942  0.00  0.00     0.169 HD
ENDROOT
BRANCH   2   5
ATOM      5  C   UNL d   1     -47.267  12.897  23.420  0.00  0.00     0.061 A 
ATOM      6  C   UNL d   1     -46.460  12.818  23.213  0.00  0.00     0.041 A 
ATOM      7  C   UNL d   1     -46.092  12.079  23.251  0.00  0.00     0.128 A 
ATOM      8  C   UNL d   1     -46.529  11.420  23.494  0.00  0.00     0.024 A 
ATOM      9  C   UNL d   1     -47.324  11.495  23.698  0.00  0.00     0.003 A 
ATOM     10  C   UNL d   1     -47.685  12.225  23.660  0.00  0.00     0.017 A 
BRANCH   7  11
ATOM     11  N   UNL d   1     -45.300  11.998  23.048  0.00  0.00    -0.114 N 
ATOM     12  O   UNL d   1     -44.872  11.333  23.284  0.00  0.00    -0.532 OA
ATOM     13  O   UNL d   1     -44.932  12.591  22.604  0.00  0.00    -0.532 OA
ENDBRANCH   7  11
ENDBRANCH   2   5
BRANCH   1  14
ATOM     14  C   UNL d   1     -48.497  14.535  22.703  0.00  0.00     0.066 C 
BRANCH  14  15
ATOM     15  C   UNL d   1     -49.307  14.589  22.793  0.00  0.00     0.073 C 
BRANCH  15  16
ATOM     16  C   UNL d   1     -49.671  15.324  22.900  0.00  0.00     0.296 C 
ATOM     17  O   UNL d   1     -49.715  15.857  22.273  0.00  0.00    -0.259 OA
BRANCH  16  18
ATOM     18  O   UNL d   1     -49.986  15.516  23.635  0.00  0.00    -0.296 OA
ATOM     19  C   UNL d   1     -50.766  15.783  23.697  0.00  0.00     0.185 C 
ENDBRANCH  16  18
ENDBRANCH  15  16
ENDBRANCH  14  15
ENDBRANCH   1  14
TORSDOF 6
ENDMDL
MODEL 3
REMARK VINA RESULT:      -6.0      1.962      2.373
REMARK  6 active torsions:
REMARK  status: ('A' for Active; 'I' for Inactive)
REMARK    1  A    between atoms: C_2  and  N_1 
REMARK       I    between atoms: C_3  and  N_9 
REMARK    2  A    between atoms: C_5  and  C_3 
REMARK    3  A    between atoms: C_6  and  C_5 
REMARK    4  A    between atoms: C_7  and  C_6 
REMARK    5  A    between atoms: O_14  and  C_7 
REMARK    6  A    between atoms: N_9  and  C_11 
ROOT
ATOM      1  C   UNL d   1     -47.498  13.874  22.727  0.00  0.00     0.258 C 
ATOM      2  N   UNL d   1     -48.020  14.130  23.312  0.00  0.00    -0.321 N 
ATOM      3  O   UNL d   1     -47.750  13.828  21.952  0.00  0.00    -0.267 OA
ATOM      4  H   UNL d   1     -47.768  14.176  24.086  0.00  0.00     0.169 HD
ENDROOT
BRANCH   2   5
ATOM      5  C   UNL d   1     -48.787  14.333  23.104  0.00  0.00     0.061 A 
ATOM      6  C   UNL d   1     -49.388  13.752  23.138  0.00  0.00     0.041 A 
ATOM      7  C   UNL d   1     -50.164  13.946  22.930  0.00  0.00     0.128 A 
ATOM      8  C   UNL d   1     -50.340  14.717  22.689  0.00  0.00     0.024 A 
ATOM      9  C   UNL d   1     -49.749  15.291  22.654  0.00  0.00     0.003 A 
ATOM     10  C   UNL d   1     -48.984  15.099  22.859  0.00  0.00     0.017 A 
BRANCH   7  11
ATOM     11  N   UNL d   1     -50.757  13.378  22.962  0.00  0.00    -0.114 N 
ATOM     12  O   UNL d   1     -51.064  13.051  22.270  0.00  0.00    -0.532 OA
ATOM     13  O   UNL d   1     -51.046  13.134  23.698  0.00  0.00    -0.532 OA
ENDBRANCH   7  11
ENDBRANCH   2   5
BRANCH   1  14
ATOM     14  C   UNL d   1     -46.729  13.668  22.922  0.00  0.00     0.066 C 
BRANCH  14  15
ATOM     15  C   UNL d   1     -46.229  13.389  22.339  0.00  0.00     0.073 C 
BRANCH  15  16
ATOM     16  C   UNL d   1     -45.486  13.082  22.532  0.00  0.00     0.296 C 
ATOM     17  O   UNL d   1     -45.416  12.524  23.135  0.00  0.00    -0.259 OA
BRANCH  16  18
ATOM     18  O   UNL d   1     -44.823  13.338  22.119  0.00  0.00    -0.296 OA
ATOM     19  C   UNL d   1     -44.324  12.791  21.751  0.00  0.00     0.185 C 
ENDBRANCH  16  18
ENDBRANCH  15  16
ENDBRANCH  14  15
ENDBRANCH   1  14
TORSDOF 6
ENDMDL
MODEL 4
REMARK VINA RESULT:      -6.0      1.314      4.289
REMARK  6 active torsions:
REMARK  status: ('A' for Active; 'I' for Inactive)
REMARK    1  A    between atoms: C_2  and  N_1 
REMARK       I    between atoms: C_3  and  N_9 
REMARK    2  A    between atoms: C_5  and  C_3 
REMARK    3  A    between atoms: C_6  and  C_5 
REMARK    4  A    between atoms: C_7  and  C_6 
REMARK    5  A    between atoms: O_14  and  C_7 
REMARK    6  A    between atoms: N_9  and  C_11 
ROOT
ATOM      1  C   UNL d   1     -48.776  11.771  22.802  0.00  0.00     0.258 C 
ATOM      2  N   UNL d   1     -48.316  12.095  23.406  0.00  0.00    -0.321 N 
ATOM      3  O   UNL d   1     -48.419  11.338  22.210  0.00  0.00    -0.267 OA
ATOM      4  H   UNL d   1     -48.673  12.527  23.998  0.00  0.00     0.169 HD
ENDROOT
BRANCH   2   5
ATOM      5  C   UNL d   1     -47.505  11.975  23.399  0.00  0.00     0.061 A 
ATOM      6  C   UNL d   1     -47.006  12.568  23.081  0.00  0.00     0.041 A 
ATOM      7  C   UNL d   1     -46.187  12.458  23.069  0.00  0.00     0.128 A 
ATOM      8  C   UNL d   1     -45.867  11.759  23.373  0.00  0.00     0.024 A 
ATOM      9  C   UNL d   1     -46.355  11.174  23.686  0.00  0.00     0.003 A 
ATOM     10  C   UNL d   1     -47.163  11.284  23.698  0.00  0.00     0.017 A 
BRANCH   7  11
ATOM     11  N   UNL d   1     -45.695  13.037  22.757  0.00  0.00    -0.114 N 
ATOM     12  O   UNL d   1     -45.024  12.830  22.324  0.00  0.00    -0.532 OA
ATOM     13  O   UNL d   1     -45.877  13.835  22.881  0.00  0.00    -0.532 OA
ENDBRANCH   7  11
ENDBRANCH   2   5
BRANCH   1  14
ATOM     14  C   UNL d   1     -49.588  11.883  22.798  0.00  0.00     0.066 C 
BRANCH  14  15
ATOM     15  C   UNL d   1     -49.934  12.276  22.171  0.00  0.00     0.073 C 
BRANCH  15  16
ATOM     16  C   UNL d   1     -50.607  12.743  22.285  0.00  0.00     0.296 C 
ATOM     17  O   UNL d   1     -51.064  12.645  22.964  0.00  0.00    -0.259 OA
BRANCH  16  18
ATOM     18  O   UNL d   1     -50.814  13.300  21.718  0.00  0.00    -0.296 OA
ATOM     19  C   UNL d   1     -50.932  14.090  21.934  0.00  0.00     0.185 C 
ENDBRANCH  16  18
ENDBRANCH  15  16
ENDBRANCH  14  15
ENDBRANCH   1  14
TORSDOF 6
ENDMDL
MODEL 5
REMARK VINA RESULT:      -6.0      1.539      1.820
REMARK  6 active torsions:
REMARK  status: ('A' for Active; 'I' for Inactive)
REMARK    1  A    between atoms: C_2  and  N_1 
REMARK       I    between atoms: C_3  and  N_9 
REMARK    2  A    between atoms: C_5  and  C_3 
REMARK    3  A    between atoms: C_6  and  C_5 
REMARK    4  A    between atoms: C_7  and  C_6 
REMARK    5  A    between atoms: O_14  and  C_7 
REMARK    6  A    between atoms: N_9  and  C_11 
ROOT
ATOM      1  C   UNL d   1     -47.030  13.203  23.032  0.00  0.00     0.258 C 
ATOM      2  N   UNL d   1     -47.288  13.536  22.323  0.00  0.00    -0.321 N 
ATOM      3  O   UNL d   1     -47.502  13.247  23.696  0.00  0.00    -0.267 OA
ATOM      4  H   UNL d   1     -46.817  13.491  21.660  0.00  0.00     0.169 HD
ENDROOT
BRANCH   2   5
ATOM      5  C   UNL d   1     -48.019  13.909  22.299  0.00  0.00     0.061 A 
ATOM      6  C   UNL d   1     -48.662  13.525  21.926  0.00  0.00     0.041 A 
ATOM      7  C   UNL d   1     -49.403  13.892  21.896  0.00  0.00     0.128 A 
ATOM      8  C   UNL d   1     -49.500  14.639  22.238  0.00  0.00     0.024 A 
ATOM      9  C   UNL d   1     -48.868  15.018  22.606  0.00  0.00     0.003 A 
ATOM     10  C   UNL d   1     -48.139  14.656  22.635  0.00  0.00     0.017 A 
BRANCH   7  11
ATOM     11  N   UNL d   1     -50.036  13.518  21.531  0.00  0.00    -0.114 N 
ATOM     12  O   UNL d   1     -50.095  12.695  21.530  0.00  0.00    -0.532 OA
ATOM     13  O   UNL d   1     -50.619  13.974  21.161  0.00  0.00    -0.532 OA
ENDBRANCH   7  11
ENDBRANCH   2   5
BRANCH   1  14
ATOM     14  C   UNL d   1     -46.302  12.827  23.069  0.00  0.00     0.066 C 
BRANCH  14  15
ATOM     15  C   UNL d   1     -46.264  12.054  23.329  0.00  0.00     0.073 C 
BRANCH  15  16
ATOM     16  C   UNL d   1     -45.546  11.643  23.328  0.00  0.00     0.296 C 
ATOM     17  O   UNL d   1     -44.886  11.970  22.957  0.00  0.00    -0.259 OA
BRANCH  16  18
ATOM     18  O   UNL d   1     -45.498  10.911  23.697  0.00  0.00    -0.296 OA
ATOM     19  C   UNL d   1     -44.818  10.447  23.618  0.00  0.00     0.185 C 
ENDBRANCH  16  18
ENDBRANCH  15  16
ENDBRANCH  14  15
ENDBRANCH   1  14
TORSDOF 6
ENDMDL
MODEL 6
REMARK VINA RESULT:      -4.7      9.425      9.953
REMARK  6 active torsions:
REMARK  status: ('A' for Active; 'I' for Inactive)
REMARK    1  A    between atoms: C_2  and  N_1 
REMARK       I    between atoms: C_3  and  N_9 
REMARK    2  A    between atoms: C_5  and  C_3 
REMARK    3  A    between atoms: C_6  and  C_5 
REMARK    4  A    between atoms: C_7  and  C_6 
REMARK    5  A    between atoms: O_14  and  C_7 
REMARK    6  A    between atoms: N_9  and  C_11 
ROOT
ATOM      1  C   UNL d   1     -39.585  14.499  19.895  0.00  0.00     0.258 C 
ATOM      2  N   UNL d   1     -40.103  14.107  19.386  0.00  0.00    -0.321 N 
ATOM      3  O   UNL d   1     -38.962  14.926  19.587  0.00  0.00    -0.267 OA
ATOM      4  H   UNL d   1     -40.726  13.680  19.694  0.00  0.00     0.169 HD
ENDROOT
BRANCH   2   5
ATOM      5  C   UNL d   1     -39.982  14.155  18.576  0.00  0.00     0.061 A 
ATOM      6  C   UNL d   1     -40.436  14.695  18.126  0.00  0.00     0.041 A 
ATOM      7  C   UNL d   1     -40.322  14.752  17.309  0.00  0.00     0.128 A 
ATOM      8  C   UNL d   1     -39.756  14.271  16.943  0.00  0.00     0.024 A 
ATOM      9  C   UNL d   1     -39.308  13.739  17.385  0.00  0.00     0.003 A 
ATOM     10  C   UNL d   1     -39.422  13.684  18.190  0.00  0.00     0.017 A 
BRANCH   7  11
ATOM     11  N   UNL d   1     -40.766  15.281  16.863  0.00  0.00    -0.114 N 
ATOM     12  O   UNL d   1     -40.404  15.922  16.490  0.00  0.00    -0.532 OA
ATOM     13  O   UNL d   1     -41.581  15.166  16.791  0.00  0.00    -0.532 OA
ENDBRANCH   7  11
ENDBRANCH   2   5
BRANCH   1  14
ATOM     14  C   UNL d   1     -39.696  14.458  20.706  0.00  0.00     0.066 C 
BRANCH  14  15
ATOM     15  C   UNL d   1     -39.095  14.168  21.177  0.00  0.00     0.073 C 
BRANCH  15  16
ATOM     16  C   UNL d   1     -39.214  14.049  21.987  0.00  0.00     0.296 C 
ATOM     17  O   UNL d   1     -39.569  14.638  22.441  0.00  0.00    -0.259 OA
BRANCH  16  18
ATOM     18  O   UNL d   1     -38.977  13.341  22.331  0.00  0.00    -0.296 OA
ATOM     19  C   UNL d   1     -38.499  13.345  23.006  0.00  0.00     0.185 C 
ENDBRANCH  16  18
ENDBRANCH  15  16
ENDBRANCH  14  15
ENDBRANCH   1  14
TORSDOF 6
ENDMDL
MODEL 7
REMARK VINA RESULT:      -4.4      8.943     10.402
REMARK  6 active torsions:
REMARK  status: ('A' for Active; 'I' for Inactive)
REMARK    1  A    between atoms: C_2  and  N_1 
REMARK       I    between atoms: C_3  and  N_9 
REMARK    2  A    between atoms: C_5  and  C_3 
REMARK    3  A    between atoms: C_6  and  C_5 
REMARK    4  A    between atoms: C_7  and  C_6 
REMARK    5  A    between atoms: O_14  and  C_7 
REMARK    6  A    between atoms: N_9  and  C_11 
ROOT
ATOM      1  C   UNL d   1     -40.119  15.082  18.242  0.00  0.00     0.258 C 
ATOM      2  N   UNL d   1     -39.819  15.576  18.830  0.00  0.00    -0.321 N 
ATOM      3  O   UNL d   1     -40.739  14.578  18.413  0.00  0.00    -0.267 OA
ATOM      4  H   UNL d   1     -39.200  16.078  18.660  0.00  0.00     0.169 HD
ENDROOT
BRANCH   2   5
ATOM      5  C   UNL d   1     -40.150  15.552  19.581  0.00  0.00     0.061 A 
ATOM      6  C   UNL d   1     -39.750  15.143  20.192  0.00  0.00     0.041 A 
ATOM      7  C   UNL d   1     -40.075  15.113  20.951  0.00  0.00     0.128 A 
ATOM      8  C   UNL d   1     -40.797  15.488  21.100  0.00  0.00     0.024 A 
ATOM      9  C   UNL d   1     -41.192  15.891  20.500  0.00  0.00     0.003 A 
ATOM     10  C   UNL d   1     -40.871  15.921  19.751  0.00  0.00     0.017 A 
BRANCH   7  11
ATOM     11  N   UNL d   1     -39.685  14.712  21.554  0.00  0.00    -0.114 N 
ATOM     12  O   UNL d   1     -39.750  13.893  21.624  0.00  0.00    -0.532 OA
ATOM     13  O   UNL d   1     -39.225  15.139  22.093  0.00  0.00    -0.532 OA
ENDBRANCH   7  11
ENDBRANCH   2   5
BRANCH   1  14
ATOM     14  C   UNL d   1     -39.797  15.096  17.488  0.00  0.00     0.066 C 
BRANCH  14  15
ATOM     15  C   UNL d   1     -39.541  14.398  17.150  0.00  0.00     0.073 C 
BRANCH  15  16
ATOM     16  C   UNL d   1     -38.989  14.406  16.534  0.00  0.00     0.296 C 
ATOM     17  O   UNL d   1     -39.014  15.004  15.967  0.00  0.00    -0.259 OA
BRANCH  16  18
ATOM     18  O   UNL d   1     -38.419  13.814  16.494  0.00  0.00    -0.296 OA
ATOM     19  C   UNL d   1     -38.087  13.604  15.766  0.00  0.00     0.185 C 
ENDBRANCH  16  18
ENDBRANCH  15  16
ENDBRANCH  14  15
ENDBRANCH   1  14
TORSDOF 6
ENDMDL
