MODEL 1
REMARK VINA RESULT:      20.9      0.000      0.000
REMARK  4 active torsions:
REMARK  status: ('A' for Active; 'I' for Inactive)
REMARK    1  A    between atoms: C_8  and  C_1 
REMARK    2  A    between atoms: C_3  and  C_2 
REMARK    3  A    between atoms: O_14  and  C_8 
REMARK    4  A    between atoms: C_16  and  O_14 
ROOT
ATOM      1  C   UNL d   1     -58.293 -98.779 -44.347  0.00  0.00     0.091 A 
ATOM      2  C   UNL d   1     -57.592 -98.787 -44.783  0.00  0.00     0.036 A 
ATOM      3  C   UNL d   1     -58.934 -98.771 -44.870  0.00  0.00     0.138 A 
ATOM      4  C   UNL d   1     -57.822 -98.784 -45.576  0.00  0.00     0.039 A 
ATOM      5  S   UNL d   1     -58.625 -98.774 -45.621  0.00  0.00    -0.065 SA
ATOM      6  N   UNL d   1     -59.744 -98.761 -44.656  0.00  0.00    -0.141 N 
ENDROOT
BRANCH   2   7
ATOM      7  C   UNL d   1     -56.873 -98.796 -44.422  0.00  0.00     0.101 A 
ATOM      8  O   UNL d   1     -56.419 -98.779 -43.763  0.00  0.00    -0.307 OA
ATOM      9  C   UNL d   1     -55.658 -98.821 -43.993  0.00  0.00     0.100 A 
ATOM     10  C   UNL d   1     -55.012 -98.818 -43.466  0.00  0.00     0.027 C 
ATOM     11  C   UNL d   1     -55.601 -98.866 -44.790  0.00  0.00     0.027 A 
ATOM     12  C   UNL d   1     -56.392 -98.849 -45.051  0.00  0.00     0.027 A 
ENDBRANCH   2   7
BRANCH   1  13
ATOM     13  C   UNL d   1     -58.362 -98.778 -43.536  0.00  0.00     0.302 C 
ATOM     14  O   UNL d   1     -57.727 -98.798 -43.052  0.00  0.00    -0.259 OA
BRANCH  13  15
ATOM     15  O   UNL d   1     -59.133 -98.755 -43.198  0.00  0.00    -0.271 OA
BRANCH  15  16
ATOM     16  C   UNL d   1     -59.208 -98.762 -42.402  0.00  0.00     0.126 C 
ATOM     17  C   UNL d   1     -59.938 -99.011 -42.063  0.00  0.00     0.029 C 
ENDBRANCH  15  16
ENDBRANCH  13  15
ENDBRANCH   1  13
TORSDOF 4
ENDMDL
