MODEL 1
REMARK VINA RESULT:      -9.8      0.000      0.000
REMARK  0 active torsions:
REMARK  status: ('A' for Active; 'I' for Inactive)
ROOT
ATOM      1  C   UNL d   1     -49.291  13.835  23.026  0.00  0.00     0.191 A 
ATOM      2  S   UNL d   1     -50.155  14.959  22.744  0.00  0.00     0.289 S 
ATOM      3  N   UNL d   1     -50.051  14.158  22.958  0.00  0.00    -0.134 NA
ATOM      4  N   UNL d   1     -48.638  14.319  22.879  0.00  0.00    -0.284 N 
ATOM      5  S   UNL d   1     -49.018  13.097  23.219  0.00  0.00    -0.048 SA
ATOM      6  C   UNL d   1     -48.200  13.112  23.194  0.00  0.00     0.048 A 
ATOM      7  C   UNL d   1     -47.964  13.874  22.982  0.00  0.00     0.072 A 
ATOM      8  C   UNL d   1     -49.493  15.433  22.599  0.00  0.00     0.137 A 
ATOM      9  C   UNL d   1     -47.624  12.542  23.334  0.00  0.00     0.007 A 
ATOM     10  C   UNL d   1     -48.736  15.122  22.665  0.00  0.00     0.096 A 
ATOM     11  O   UNL d   1     -50.904  14.642  22.848  0.00  0.00    -0.198 OA
ATOM     12  O   UNL d   1     -50.530  15.648  22.567  0.00  0.00    -0.198 OA
ATOM     13  C   UNL d   1     -47.120  14.050  22.914  0.00  0.00     0.018 A 
ATOM     14  C   UNL d   1     -46.812  12.711  23.268  0.00  0.00     0.001 A 
ATOM     15  C   UNL d   1     -46.571  13.452  23.062  0.00  0.00     0.002 A 
ATOM     16  C   UNL d   1     -47.891  11.768  23.550  0.00  0.00     0.001 A 
ATOM     17  C   UNL d   1     -46.262  12.108  23.418  0.00  0.00     0.000 A 
ATOM     18  C   UNL d   1     -47.342  11.171  23.698  0.00  0.00     0.000 A 
ATOM     19  C   UNL d   1     -46.498  11.347  23.629  0.00  0.00     0.000 A 
ENDROOT
TORSDOF 0
ENDMDL
MODEL 2
REMARK VINA RESULT:      -9.6      2.396      3.305
REMARK  0 active torsions:
REMARK  status: ('A' for Active; 'I' for Inactive)
ROOT
ATOM      1  C   UNL d   1     -47.240  12.799  23.030  0.00  0.00     0.191 A 
ATOM      2  S   UNL d   1     -45.910  13.288  22.751  0.00  0.00     0.289 S 
ATOM      3  N   UNL d   1     -46.424  12.670  22.980  0.00  0.00    -0.134 NA
ATOM      4  N   UNL d   1     -47.539  13.548  22.852  0.00  0.00    -0.284 N 
ATOM      5  S   UNL d   1     -47.865  12.322  23.231  0.00  0.00    -0.048 SA
ATOM      6  C   UNL d   1     -48.552  12.765  23.179  0.00  0.00     0.048 A 
ATOM      7  C   UNL d   1     -48.347  13.529  22.943  0.00  0.00     0.072 A 
ATOM      8  C   UNL d   1     -46.220  14.034  22.575  0.00  0.00     0.137 A 
ATOM      9  C   UNL d   1     -49.344  12.589  23.313  0.00  0.00     0.007 A 
ATOM     10  C   UNL d   1     -47.028  14.171  22.623  0.00  0.00     0.096 A 
ATOM     11  O   UNL d   1     -45.442  12.629  22.887  0.00  0.00    -0.198 OA
ATOM     12  O   UNL d   1     -45.225  13.670  22.571  0.00  0.00    -0.198 OA
ATOM     13  C   UNL d   1     -48.970  14.121  22.843  0.00  0.00     0.018 A 
ATOM     14  C   UNL d   1     -49.943  13.158  23.217  0.00  0.00     0.001 A 
ATOM     15  C   UNL d   1     -49.755  13.906  22.987  0.00  0.00     0.002 A 
ATOM     16  C   UNL d   1     -49.528  11.799  23.554  0.00  0.00     0.001 A 
ATOM     17  C   UNL d   1     -50.731  12.940  23.362  0.00  0.00     0.000 A 
ATOM     18  C   UNL d   1     -50.311  11.585  23.698  0.00  0.00     0.000 A 
ATOM     19  C   UNL d   1     -50.935  12.177  23.598  0.00  0.00     0.000 A 
ENDROOT
TORSDOF 0
ENDMDL
MODEL 3
REMARK VINA RESULT:      -7.8      3.341      4.578
REMARK  0 active torsions:
REMARK  status: ('A' for Active; 'I' for Inactive)
ROOT
ATOM      1  C   UNL d   1     -45.418  11.974  23.006  0.00  0.00     0.191 A 
ATOM      2  S   UNL d   1     -44.426  10.949  23.237  0.00  0.00     0.289 S 
ATOM      3  N   UNL d   1     -44.642  11.696  22.930  0.00  0.00    -0.134 NA
ATOM      4  N   UNL d   1     -45.976  11.501  23.389  0.00  0.00    -0.284 N 
ATOM      5  S   UNL d   1     -45.787  12.657  22.773  0.00  0.00    -0.048 SA
ATOM      6  C   UNL d   1     -46.571  12.616  23.006  0.00  0.00     0.048 A 
ATOM      7  C   UNL d   1     -46.688  11.895  23.390  0.00  0.00     0.072 A 
ATOM      8  C   UNL d   1     -44.993  10.484  23.618  0.00  0.00     0.137 A 
ATOM      9  C   UNL d   1     -47.207  13.132  22.927  0.00  0.00     0.007 A 
ATOM     10  C   UNL d   1     -45.765  10.751  23.698  0.00  0.00     0.096 A 
ATOM     11  O   UNL d   1     -43.752  11.269  22.896  0.00  0.00    -0.198 OA
ATOM     12  O   UNL d   1     -43.966  10.316  23.421  0.00  0.00    -0.198 OA
ATOM     13  C   UNL d   1     -47.473  11.704  23.698  0.00  0.00     0.018 A 
ATOM     14  C   UNL d   1     -47.962  12.948  23.223  0.00  0.00     0.001 A 
ATOM     15  C   UNL d   1     -48.087  12.247  23.600  0.00  0.00     0.002 A 
ATOM     16  C   UNL d   1     -47.062  13.865  22.530  0.00  0.00     0.001 A 
ATOM     17  C   UNL d   1     -48.578  13.496  23.123  0.00  0.00     0.000 A 
ATOM     18  C   UNL d   1     -47.676  14.408  22.432  0.00  0.00     0.000 A 
ATOM     19  C   UNL d   1     -48.461  14.216  22.739  0.00  0.00     0.000 A 
ENDROOT
TORSDOF 0
ENDMDL
MODEL 4
REMARK VINA RESULT:      -7.4      1.708      2.274
REMARK  0 active torsions:
REMARK  status: ('A' for Active; 'I' for Inactive)
ROOT
ATOM      1  C   UNL d   1     -48.869  12.151  23.301  0.00  0.00     0.191 A 
ATOM      2  S   UNL d   1     -50.259  11.857  23.565  0.00  0.00     0.289 S 
ATOM      3  N   UNL d   1     -49.466  11.607  23.484  0.00  0.00    -0.134 NA
ATOM      4  N   UNL d   1     -49.071  12.946  23.201  0.00  0.00    -0.284 N 
ATOM      5  S   UNL d   1     -48.070  12.079  23.189  0.00  0.00    -0.048 SA
ATOM      6  C   UNL d   1     -47.768  12.822  23.020  0.00  0.00     0.048 A 
ATOM      7  C   UNL d   1     -48.393  13.361  23.027  0.00  0.00     0.072 A 
ATOM      8  C   UNL d   1     -50.449  12.655  23.463  0.00  0.00     0.137 A 
ATOM      9  C   UNL d   1     -47.009  13.094  22.857  0.00  0.00     0.007 A 
ATOM     10  C   UNL d   1     -49.864  13.202  23.282  0.00  0.00     0.096 A 
ATOM     11  O   UNL d   1     -50.251  11.047  23.698  0.00  0.00    -0.198 OA
ATOM     12  O   UNL d   1     -51.052  11.815  23.695  0.00  0.00    -0.198 OA
ATOM     13  C   UNL d   1     -48.232  14.195  22.864  0.00  0.00     0.018 A 
ATOM     14  C   UNL d   1     -46.854  13.897  22.700  0.00  0.00     0.001 A 
ATOM     15  C   UNL d   1     -47.457  14.431  22.705  0.00  0.00     0.002 A 
ATOM     16  C   UNL d   1     -46.385  12.523  22.855  0.00  0.00     0.001 A 
ATOM     17  C   UNL d   1     -46.075  14.132  22.540  0.00  0.00     0.000 A 
ATOM     18  C   UNL d   1     -45.611  12.759  22.696  0.00  0.00     0.000 A 
ATOM     19  C   UNL d   1     -45.450  13.593  22.533  0.00  0.00     0.000 A 
ENDROOT
TORSDOF 0
ENDMDL
