MODEL 1
REMARK VINA RESULT:      -5.7      0.000      0.000
REMARK  6 active torsions:
REMARK  status: ('A' for Active; 'I' for Inactive)
REMARK    1  A    between atoms: N_2  and  C_1 
REMARK    2  A    between atoms: N_3  and  C_1 
REMARK       I    between atoms: C_4  and  N_2 
REMARK    3  A    between atoms: C_5  and  N_3 
REMARK    4  A    between atoms: C_14  and  C_4 
REMARK    5  A    between atoms: C_8  and  O_10 
REMARK    6  A    between atoms: O_10  and  C_14 
ROOT
ATOM      1  N   UNL d   1     -41.677-122.566 -52.076  0.00  0.00    -0.177 NA
ATOM      2  C   UNL d   1     -41.502-123.074 -51.445  0.00  0.00     0.306 C 
ATOM      3  O   UNL d   1     -41.124-123.817 -51.621  0.00  0.00    -0.263 OA
ENDROOT
BRANCH   2   4
ATOM      4  C   UNL d   1     -41.676-122.893 -50.666  0.00  0.00     0.185 C 
BRANCH   4   5
ATOM      5  O   UNL d   1     -42.251-123.290 -50.242  0.00  0.00    -0.300 OA
BRANCH   5   6
ATOM      6  C   UNL d   1     -42.257-123.278 -49.437  0.00  0.00     0.106 A 
ATOM      7  C   UNL d   1     -42.944-123.543 -49.009  0.00  0.00     0.057 A 
ATOM      8  C   UNL d   1     -42.922-123.519 -48.176  0.00  0.00     0.009 A 
ATOM      9 BR   UNL d   1     -43.615-123.816 -49.429  0.00  0.00    -0.047 Br
ATOM     10  C   UNL d   1     -42.301-123.265 -47.767  0.00  0.00     0.001 A 
ATOM     11  C   UNL d   1     -41.608-122.998 -48.202  0.00  0.00     0.002 A 
ATOM     12  C   UNL d   1     -42.298-123.249 -46.934  0.00  0.00     0.000 C 
ATOM     13  C   UNL d   1     -41.624-123.019 -49.022  0.00  0.00     0.025 A 
ENDBRANCH   5   6
ENDBRANCH   4   5
ENDBRANCH   2   4
BRANCH   1  14
ATOM     14  C   UNL d   1     -41.495-122.763 -52.855  0.00  0.00     0.225 C 
ATOM     15  S   UNL d   1     -41.541-123.560 -53.109  0.00  0.00    -0.037 SA
BRANCH  14  16
ATOM     16  N   UNL d   1     -41.269-122.168 -53.376  0.00  0.00    -0.198 NA
BRANCH  16  17
ATOM     17  C   UNL d   1     -41.660-122.093 -54.112  0.00  0.00     0.165 A 
ATOM     18  N   UNL d   1     -42.375-121.646 -54.182  0.00  0.00    -0.225 NA
ATOM     19  C   UNL d   1     -42.753-121.578 -54.911  0.00  0.00     0.101 A 
ATOM     20  C   UNL d   1     -42.424-121.952 -55.568  0.00  0.00     0.021 A 
ATOM     21  C   UNL d   1     -41.723-122.388 -55.488  0.00  0.00     0.005 A 
ATOM     22  C   UNL d   1     -41.349-122.457 -54.777  0.00  0.00     0.039 A 
ENDBRANCH  16  17
ENDBRANCH  14  16
ENDBRANCH   1  14
TORSDOF 6
ENDMDL
MODEL 2
REMARK VINA RESULT:      -4.2      1.818      5.574
REMARK  6 active torsions:
REMARK  status: ('A' for Active; 'I' for Inactive)
REMARK    1  A    between atoms: N_2  and  C_1 
REMARK    2  A    between atoms: N_3  and  C_1 
REMARK       I    between atoms: C_4  and  N_2 
REMARK    3  A    between atoms: C_5  and  N_3 
REMARK    4  A    between atoms: C_14  and  C_4 
REMARK    5  A    between atoms: C_8  and  O_10 
REMARK    6  A    between atoms: O_10  and  C_14 
ROOT
ATOM      1  N   UNL d   1     -42.078-122.625 -50.785  0.00  0.00    -0.177 NA
ATOM      2  C   UNL d   1     -41.668-122.851 -51.469  0.00  0.00     0.306 C 
ATOM      3  O   UNL d   1     -41.123-123.504 -51.413  0.00  0.00    -0.263 OA
ENDROOT
BRANCH   2   4
ATOM      4  C   UNL d   1     -41.764-122.476 -52.191  0.00  0.00     0.185 C 
BRANCH   4   5
ATOM      5  O   UNL d   1     -41.361-122.711 -52.862  0.00  0.00    -0.300 OA
BRANCH   5   6
ATOM      6  C   UNL d   1     -41.621-122.506 -53.596  0.00  0.00     0.106 A 
ATOM      7  C   UNL d   1     -41.508-123.033 -54.255  0.00  0.00     0.057 A 
ATOM      8  C   UNL d   1     -41.788-122.794 -55.003  0.00  0.00     0.009 A 
ATOM      9 BR   UNL d   1     -41.124-123.768 -54.137  0.00  0.00    -0.047 Br
ATOM     10  C   UNL d   1     -42.150-122.109 -55.131  0.00  0.00     0.001 A 
ATOM     11  C   UNL d   1     -42.263-121.577 -54.463  0.00  0.00     0.002 A 
ATOM     12  C   UNL d   1     -42.423-121.888 -55.886  0.00  0.00     0.000 C 
ATOM     13  C   UNL d   1     -41.990-121.807 -53.724  0.00  0.00     0.025 A 
ENDBRANCH   5   6
ENDBRANCH   4   5
ENDBRANCH   2   4
BRANCH   1  14
ATOM     14  C   UNL d   1     -41.970-123.013 -50.066  0.00  0.00     0.225 C 
ATOM     15  S   UNL d   1     -42.186-123.817 -49.985  0.00  0.00    -0.037 SA
BRANCH  14  16
ATOM     16  N   UNL d   1     -41.647-122.598 -49.434  0.00  0.00    -0.198 NA
BRANCH  16  17
ATOM     17  C   UNL d   1     -41.894-122.776 -48.654  0.00  0.00     0.165 A 
ATOM     18  N   UNL d   1     -41.330-122.899 -48.035  0.00  0.00    -0.225 NA
ATOM     19  C   UNL d   1     -41.583-123.074 -47.272  0.00  0.00     0.101 A 
ATOM     20  C   UNL d   1     -42.392-123.127 -47.121  0.00  0.00     0.021 A 
ATOM     21  C   UNL d   1     -42.936-123.005 -47.734  0.00  0.00     0.005 A 
ATOM     22  C   UNL d   1     -42.694-122.834 -48.484  0.00  0.00     0.039 A 
ENDBRANCH  16  17
ENDBRANCH  14  16
ENDBRANCH   1  14
TORSDOF 6
ENDMDL
