MODEL 1
REMARK VINA RESULT:       8.6      0.000      0.000
REMARK  3 active torsions:
REMARK  status: ('A' for Active; 'I' for Inactive)
REMARK    1  A    between atoms: C_2  and  N_1 
REMARK    2  A    between atoms: C_4  and  N_1 
REMARK    3  A    between atoms: C_3  and  C_2 
ROOT
ATOM      1  N   UNL d   1      44.332 -15.799  36.754  0.00  0.00    -0.182 N 
ATOM      2  O   UNL d   1      44.761 -16.411  36.399  0.00  0.00    -0.080 OA
ENDROOT
BRANCH   1   3
ATOM      3  C   UNL d   1      44.723 -15.236  37.213  0.00  0.00     0.133 C 
BRANCH   3   4
ATOM      4  C   UNL d   1      45.464 -14.963  36.988  0.00  0.00     0.120 A 
ATOM      5  O   UNL d   1      45.954 -15.153  36.344  0.00  0.00    -0.304 OA
ATOM      6  C   UNL d   1      46.644 -14.697  36.404  0.00  0.00     0.123 A 
ATOM      7  C   UNL d   1      46.583 -14.223  37.084  0.00  0.00     0.029 A 
ATOM      8  C   UNL d   1      45.857 -14.390  37.440  0.00  0.00     0.028 A 
ENDBRANCH   3   4
ENDBRANCH   1   3
BRANCH   1   9
ATOM      9  C   UNL d   1      43.500 -15.752  36.646  0.00  0.00     0.090 A 
ATOM     10  C   UNL d   1      43.088 -16.428  36.442  0.00  0.00     0.021 A 
ATOM     11  C   UNL d   1      42.263 -16.381  36.336  0.00  0.00     0.013 A 
ATOM     12  C   UNL d   1      41.878 -15.659  36.436  0.00  0.00     0.058 A 
ATOM     13  C   UNL d   1      42.304 -14.985  36.641  0.00  0.00     0.013 A 
ATOM     14 CL   UNL d   1      41.067 -15.612  36.331  0.00  0.00    -0.082 Cl
ATOM     15  C   UNL d   1      43.128 -15.032  36.748  0.00  0.00     0.021 A 
ENDBRANCH   1   9
TORSDOF 3
ENDMDL
MODEL 2
REMARK VINA RESULT:       9.1      7.456      8.178
REMARK  3 active torsions:
REMARK  status: ('A' for Active; 'I' for Inactive)
REMARK    1  A    between atoms: C_2  and  N_1 
REMARK    2  A    between atoms: C_4  and  N_1 
REMARK    3  A    between atoms: C_3  and  C_2 
ROOT
ATOM      1  N   UNL d   1      45.637 -13.877  44.664  0.00  0.00    -0.182 N 
ATOM      2  O   UNL d   1      46.321 -13.469  44.886  0.00  0.00    -0.080 OA
ENDROOT
BRANCH   1   3
ATOM      3  C   UNL d   1      44.987 -13.460  44.370  0.00  0.00     0.133 C 
BRANCH   3   4
ATOM      4  C   UNL d   1      45.080 -12.947  43.734  0.00  0.00     0.120 A 
ATOM      5  O   UNL d   1      45.757 -12.645  43.359  0.00  0.00    -0.304 OA
ATOM      6  C   UNL d   1      45.507 -12.148  42.744  0.00  0.00     0.123 A 
ATOM      7  C   UNL d   1      44.677 -12.142  42.736  0.00  0.00     0.029 A 
ATOM      8  C   UNL d   1      44.418 -12.634  43.346  0.00  0.00     0.028 A 
ENDBRANCH   3   4
ENDBRANCH   1   3
BRANCH   1   9
ATOM      9  C   UNL d   1      45.602 -14.713  44.738  0.00  0.00     0.090 A 
ATOM     10  C   UNL d   1      46.299 -15.141  44.712  0.00  0.00     0.021 A 
ATOM     11  C   UNL d   1      46.265 -15.970  44.785  0.00  0.00     0.013 A 
ATOM     12  C   UNL d   1      45.536 -16.343  44.882  0.00  0.00     0.058 A 
ATOM     13  C   UNL d   1      44.842 -15.902  44.907  0.00  0.00     0.013 A 
ATOM     14 CL   UNL d   1      45.503 -17.158  44.954  0.00  0.00    -0.082 Cl
ATOM     15  C   UNL d   1      44.876 -15.073  44.834  0.00  0.00     0.021 A 
ENDBRANCH   1   9
TORSDOF 3
ENDMDL
MODEL 3
REMARK VINA RESULT:      10.4      7.722      8.289
REMARK  3 active torsions:
REMARK  status: ('A' for Active; 'I' for Inactive)
REMARK    1  A    between atoms: C_2  and  N_1 
REMARK    2  A    between atoms: C_4  and  N_1 
REMARK    3  A    between atoms: C_3  and  C_2 
ROOT
ATOM      1  N   UNL d   1      46.009 -17.100  43.807  0.00  0.00    -0.182 N 
ATOM      2  O   UNL d   1      46.074 -16.623  43.134  0.00  0.00    -0.080 OA
ENDROOT
BRANCH   1   3
ATOM      3  C   UNL d   1      45.784 -16.767  44.527  0.00  0.00     0.133 C 
BRANCH   3   4
ATOM      4  C   UNL d   1      45.721 -15.951  44.602  0.00  0.00     0.120 A 
ATOM      5  O   UNL d   1      46.229 -15.332  44.380  0.00  0.00    -0.304 OA
ATOM      6  C   UNL d   1      45.870 -14.616  44.597  0.00  0.00     0.123 A 
ATOM      7  C   UNL d   1      45.141 -14.790  44.954  0.00  0.00     0.029 A 
ATOM      8  C   UNL d   1      45.052 -15.611  44.955  0.00  0.00     0.028 A 
ENDBRANCH   3   4
ENDBRANCH   1   3
BRANCH   1   9
ATOM      9  C   UNL d   1      46.171 -17.923  43.755  0.00  0.00     0.090 A 
ATOM     10  C   UNL d   1      46.365 -18.331  44.437  0.00  0.00     0.021 A 
ATOM     11  C   UNL d   1      46.526 -19.147  44.387  0.00  0.00     0.013 A 
ATOM     12  C   UNL d   1      46.487 -19.527  43.656  0.00  0.00     0.058 A 
ATOM     13  C   UNL d   1      46.291 -19.106  42.977  0.00  0.00     0.013 A 
ATOM     14 CL   UNL d   1      46.645 -20.329  43.606  0.00  0.00    -0.082 Cl
ATOM     15  C   UNL d   1      46.130 -18.290  43.027  0.00  0.00     0.021 A 
ENDBRANCH   1   9
TORSDOF 3
ENDMDL
MODEL 4
REMARK VINA RESULT:      11.0      7.580      8.227
REMARK  3 active torsions:
REMARK  status: ('A' for Active; 'I' for Inactive)
REMARK    1  A    between atoms: C_2  and  N_1 
REMARK    2  A    between atoms: C_4  and  N_1 
REMARK    3  A    between atoms: C_3  and  C_2 
ROOT
ATOM      1  N   UNL d   1      45.765 -16.485  44.354  0.00  0.00    -0.182 N 
ATOM      2  O   UNL d   1      45.540 -17.008  44.955  0.00  0.00    -0.080 OA
ENDROOT
BRANCH   1   3
ATOM      3  C   UNL d   1      46.066 -16.780  43.644  0.00  0.00     0.133 C 
BRANCH   3   4
ATOM      4  C   UNL d   1      46.230 -17.582  43.567  0.00  0.00     0.120 A 
ATOM      5  O   UNL d   1      46.515 -18.144  44.108  0.00  0.00    -0.304 OA
ATOM      6  C   UNL d   1      46.572 -18.872  43.714  0.00  0.00     0.123 A 
ATOM      7  C   UNL d   1      46.322 -18.762  42.930  0.00  0.00     0.029 A 
ATOM      8  C   UNL d   1      46.113 -17.968  42.843  0.00  0.00     0.028 A 
ENDBRANCH   3   4
ENDBRANCH   1   3
BRANCH   1   9
ATOM      9  C   UNL d   1      45.686 -15.656  44.467  0.00  0.00     0.090 A 
ATOM     10  C   UNL d   1      46.279 -15.162  44.196  0.00  0.00     0.021 A 
ATOM     11  C   UNL d   1      46.201 -14.340  44.308  0.00  0.00     0.013 A 
ATOM     12  C   UNL d   1      45.533 -14.041  44.686  0.00  0.00     0.058 A 
ATOM     13  C   UNL d   1      44.943 -14.547  44.954  0.00  0.00     0.013 A 
ATOM     14 CL   UNL d   1      45.456 -13.233  44.796  0.00  0.00    -0.082 Cl
ATOM     15  C   UNL d   1      45.021 -15.369  44.843  0.00  0.00     0.021 A 
ENDBRANCH   1   9
TORSDOF 3
ENDMDL
MODEL 5
REMARK VINA RESULT:      11.5      1.866      3.694
REMARK  3 active torsions:
REMARK  status: ('A' for Active; 'I' for Inactive)
REMARK    1  A    between atoms: C_2  and  N_1 
REMARK    2  A    between atoms: C_4  and  N_1 
REMARK    3  A    between atoms: C_3  and  C_2 
ROOT
ATOM      1  N   UNL d   1      43.518 -15.637  36.940  0.00  0.00    -0.182 N 
ATOM      2  O   UNL d   1      43.266 -16.091  37.584  0.00  0.00    -0.080 OA
ENDROOT
BRANCH   1   3
ATOM      3  C   UNL d   1      42.986 -15.442  36.341  0.00  0.00     0.133 C 
BRANCH   3   4
ATOM      4  C   UNL d   1      42.231 -15.768  36.337  0.00  0.00     0.120 A 
ATOM      5  O   UNL d   1      41.967 -16.555  36.331  0.00  0.00    -0.304 OA
ATOM      6  C   UNL d   1      41.137 -16.547  36.330  0.00  0.00     0.123 A 
ATOM      7  C   UNL d   1      40.887 -15.755  36.336  0.00  0.00     0.029 A 
ATOM      8  C   UNL d   1      41.561 -15.280  36.340  0.00  0.00     0.028 A 
ENDBRANCH   3   4
ENDBRANCH   1   3
BRANCH   1   9
ATOM      9  C   UNL d   1      44.315 -15.375  36.898  0.00  0.00     0.090 A 
ATOM     10  C   UNL d   1      44.895 -15.906  36.672  0.00  0.00     0.021 A 
ATOM     11  C   UNL d   1      45.686 -15.646  36.630  0.00  0.00     0.013 A 
ATOM     12  C   UNL d   1      45.869 -14.864  36.815  0.00  0.00     0.058 A 
ATOM     13  C   UNL d   1      45.277 -14.338  37.040  0.00  0.00     0.013 A 
ATOM     14 CL   UNL d   1      46.646 -14.608  36.773  0.00  0.00    -0.082 Cl
ATOM     15  C   UNL d   1      44.487 -14.598  37.082  0.00  0.00     0.021 A 
ENDBRANCH   1   9
TORSDOF 3
ENDMDL
