MODEL 1
REMARK VINA RESULT:      36.3      0.000      0.000
REMARK  3 active torsions:
REMARK  status: ('A' for Active; 'I' for Inactive)
REMARK    1  A    between atoms: C_6  and  C_2 
REMARK    2  A    between atoms: C_7  and  C_6 
REMARK    3  A    between atoms: C_8  and  C_7 
ROOT
ATOM      1  N   UNL d   1      58.430  49.690  49.895  0.00  0.00    -0.225 NA
ATOM      2  C   UNL d   1      58.749  49.693  50.680  0.00  0.00     0.163 A 
ATOM      3  N   UNL d   1      58.117  49.697  51.206  0.00  0.00    -0.225 NA
ATOM      4  C   UNL d   1      57.624  49.692  49.960  0.00  0.00     0.101 A 
ATOM      5  C   UNL d   1      57.397  49.697  50.782  0.00  0.00     0.101 A 
ATOM      6  C   UNL d   1      56.996  49.691  49.385  0.00  0.00     0.021 A 
ATOM      7  C   UNL d   1      56.606  49.700  51.017  0.00  0.00     0.021 A 
ATOM      8  C   UNL d   1      56.036  49.699  50.457  0.00  0.00     0.002 A 
ATOM      9  C   UNL d   1      56.228  49.694  49.653  0.00  0.00     0.002 A 
ENDROOT
BRANCH   2  10
ATOM     10  C   UNL d   1      59.575  49.691  50.650  0.00  0.00     0.039 C 
BRANCH  10  11
ATOM     11  C   UNL d   1      59.998  49.286  51.220  0.00  0.00     0.003 C 
BRANCH  11  12
ATOM     12  C   UNL d   1      60.473  48.644  50.999  0.00  0.00     0.000 A 
ATOM     13  C   UNL d   1      61.029  48.718  50.393  0.00  0.00     0.001 A 
ATOM     14  C   UNL d   1      61.486  48.067  50.194  0.00  0.00     0.011 A 
ATOM     15  C   UNL d   1      61.402  47.356  50.579  0.00  0.00     0.058 A 
ATOM     16  C   UNL d   1      60.846  47.284  51.184  0.00  0.00     0.011 A 
ATOM     17 CL   UNL d   1      61.878  46.712  50.357  0.00  0.00    -0.082 Cl
ATOM     18  C   UNL d   1      60.387  47.931  51.386  0.00  0.00     0.001 A 
ENDBRANCH  11  12
ENDBRANCH  10  11
ENDBRANCH   2  10
TORSDOF 3
ENDMDL
