MODEL 1
REMARK VINA RESULT:      55.2      0.000      0.000
REMARK  4 active torsions:
REMARK  status: ('A' for Active; 'I' for Inactive)
REMARK    1  A    between atoms: C_8  and  C_1 
REMARK    2  A    between atoms: C_6  and  O_10 
REMARK       I    between atoms: N_13  and  C_6 
REMARK    3  A    between atoms: C_11  and  C_8 
REMARK    4  A    between atoms: O_10  and  C_9 
ROOT
ATOM      1  C   UNL d   1      60.411  49.698  51.291  0.00  0.00     0.141 A 
ATOM      2  C   UNL d   1      59.084  49.691  51.074  0.00  0.00     0.105 A 
ATOM      3  O   UNL d   1      59.666  49.693  51.664  0.00  0.00    -0.304 OA
ATOM      4  C   UNL d   1      59.460  49.695  50.334  0.00  0.00     0.064 A 
ATOM      5  C   UNL d   1      60.277  49.700  50.462  0.00  0.00     0.220 A 
ATOM      6  C   UNL d   1      58.261  49.686  51.119  0.00  0.00     0.046 A 
ATOM      7  C   UNL d   1      57.812  49.686  50.427  0.00  0.00     0.107 A 
ATOM      8  C   UNL d   1      59.009  49.695  49.648  0.00  0.00     0.007 A 
ATOM      9  O   UNL d   1      60.867  49.705  49.880  0.00  0.00    -0.284 OA
ATOM     10  C   UNL d   1      58.188  49.690  49.687  0.00  0.00     0.025 A 
ATOM     11  C   UNL d   1      57.883  49.682  51.852  0.00  0.00     0.004 C 
ENDROOT
BRANCH   1  12
ATOM     12  C   UNL d   1      61.146  49.701  51.665  0.00  0.00     0.053 C 
BRANCH  12  13
ATOM     13  C   UNL d   1      61.253  49.283  52.368  0.00  0.00     0.102 A 
ATOM     14  O   UNL d   1      61.475  48.486  52.429  0.00  0.00    -0.305 OA
ATOM     15  C   UNL d   1      61.518  48.295  53.230  0.00  0.00     0.123 A 
ATOM     16  C   UNL d   1      61.323  48.976  53.664  0.00  0.00     0.029 A 
ATOM     17  C   UNL d   1      61.161  49.581  53.126  0.00  0.00     0.027 A 
ENDBRANCH  12  13
ENDBRANCH   1  12
BRANCH   7  18
ATOM     18  O   UNL d   1      56.992  49.681  50.467  0.00  0.00    -0.259 OA
BRANCH  18  19
ATOM     19  C   UNL d   1      56.572  48.969  50.436  0.00  0.00     0.378 C 
ATOM     20  N   UNL d   1      56.648  48.475  49.776  0.00  0.00    -0.249 N 
ATOM     21  C   UNL d   1      56.228  47.760  49.742  0.00  0.00     0.104 C 
ATOM     22  C   UNL d   1      57.143  48.691  49.145  0.00  0.00     0.104 C 
ATOM     23  O   UNL d   1      56.080  48.750  51.061  0.00  0.00    -0.237 OA
ENDBRANCH  18  19
ENDBRANCH   7  18
TORSDOF 4
ENDMDL
