MODEL 1
REMARK VINA RESULT:      -8.2      0.000      0.000
REMARK  3 active torsions:
REMARK  status: ('A' for Active; 'I' for Inactive)
REMARK    1  A    between atoms: S_4  and  C_1 
REMARK    2  A    between atoms: C_8  and  S_4 
REMARK    3  A    between atoms: C_9  and  C_8 
ROOT
ATOM      1  C   UNL d   1     -48.961  14.036  22.711  0.00  0.00     0.114 A 
ATOM      2  C   UNL d   1     -49.662  13.939  22.289  0.00  0.00     0.042 A 
ATOM      3  N   UNL d   1     -48.782  14.768  23.041  0.00  0.00    -0.217 NA
ATOM      4  N   UNL d   1     -50.004  15.304  22.526  0.00  0.00    -0.224 NA
ATOM      5  C   UNL d   1     -49.305  15.404  22.948  0.00  0.00     0.200 A 
ATOM      6  C   UNL d   1     -50.183  14.572  22.196  0.00  0.00     0.085 A 
ATOM      7  C   UNL d   1     -49.841  13.207  21.959  0.00  0.00     0.004 A 
ATOM      8  C   UNL d   1     -50.885  14.469  21.771  0.00  0.00     0.019 A 
ATOM      9  C   UNL d   1     -50.545  13.096  21.530  0.00  0.00     0.000 A 
ATOM     10  C   UNL d   1     -51.064  13.737  21.441  0.00  0.00     0.002 A 
ENDROOT
BRANCH   1  11
ATOM     11  S   UNL d   1     -48.435  13.396  22.805  0.00  0.00    -0.067 SA
BRANCH  11  12
ATOM     12  C   UNL d   1     -47.643  13.534  22.962  0.00  0.00     0.037 C 
BRANCH  12  13
ATOM     13  C   UNL d   1     -47.143  12.901  23.142  0.00  0.00     0.006 A 
ATOM     14  C   UNL d   1     -46.333  12.943  22.936  0.00  0.00     0.001 A 
ATOM     15  C   UNL d   1     -46.040  13.614  22.555  0.00  0.00     0.000 C 
ATOM     16  C   UNL d   1     -45.836  12.304  23.121  0.00  0.00     0.000 A 
ATOM     17  C   UNL d   1     -46.135  11.644  23.498  0.00  0.00     0.000 A 
ATOM     18  C   UNL d   1     -46.932  11.609  23.698  0.00  0.00     0.000 A 
ATOM     19  C   UNL d   1     -47.444  12.235  23.523  0.00  0.00     0.001 A 
ENDBRANCH  12  13
ENDBRANCH  11  12
ENDBRANCH   1  11
TORSDOF 3
ENDMDL
MODEL 2
REMARK VINA RESULT:      -7.6      1.053      1.815
REMARK  3 active torsions:
REMARK  status: ('A' for Active; 'I' for Inactive)
REMARK    1  A    between atoms: S_4  and  C_1 
REMARK    2  A    between atoms: C_8  and  S_4 
REMARK    3  A    between atoms: C_9  and  C_8 
ROOT
ATOM      1  C   UNL d   1     -49.357  13.480  22.834  0.00  0.00     0.114 A 
ATOM      2  C   UNL d   1     -49.792  14.162  22.997  0.00  0.00     0.042 A 
ATOM      3  N   UNL d   1     -49.750  12.779  22.660  0.00  0.00    -0.217 NA
ATOM      4  N   UNL d   1     -51.010  13.439  22.813  0.00  0.00    -0.224 NA
ATOM      5  C   UNL d   1     -50.579  12.758  22.650  0.00  0.00     0.200 A 
ATOM      6  C   UNL d   1     -50.617  14.141  22.986  0.00  0.00     0.085 A 
ATOM      7  C   UNL d   1     -49.400  14.863  23.170  0.00  0.00     0.004 A 
ATOM      8  C   UNL d   1     -51.048  14.827  23.151  0.00  0.00     0.019 A 
ATOM      9  C   UNL d   1     -49.827  15.557  23.336  0.00  0.00     0.000 A 
ATOM     10  C   UNL d   1     -50.655  15.529  23.324  0.00  0.00     0.002 A 
ENDROOT
BRANCH   1  11
ATOM     11  S   UNL d   1     -48.525  13.501  22.844  0.00  0.00    -0.067 SA
BRANCH  11  12
ATOM     12  C   UNL d   1     -48.096  12.804  22.871  0.00  0.00     0.037 C 
BRANCH  12  13
ATOM     13  C   UNL d   1     -47.270  12.828  22.874  0.00  0.00     0.006 A 
ATOM     14  C   UNL d   1     -46.841  12.240  23.286  0.00  0.00     0.001 A 
ATOM     15  C   UNL d   1     -47.244  11.641  23.686  0.00  0.00     0.000 C 
ATOM     16  C   UNL d   1     -46.011  12.271  23.284  0.00  0.00     0.000 A 
ATOM     17  C   UNL d   1     -45.620  12.867  22.886  0.00  0.00     0.000 A 
ATOM     18  C   UNL d   1     -46.048  13.442  22.483  0.00  0.00     0.000 A 
ATOM     19  C   UNL d   1     -46.875  13.430  22.472  0.00  0.00     0.001 A 
ENDBRANCH  12  13
ENDBRANCH  11  12
ENDBRANCH   1  11
TORSDOF 3
ENDMDL
MODEL 3
REMARK VINA RESULT:      -6.3      1.667      4.419
REMARK  3 active torsions:
REMARK  status: ('A' for Active; 'I' for Inactive)
REMARK    1  A    between atoms: S_4  and  C_1 
REMARK    2  A    between atoms: C_8  and  S_4 
REMARK    3  A    between atoms: C_9  and  C_8 
ROOT
ATOM      1  C   UNL d   1     -46.387  12.760  22.934  0.00  0.00     0.114 A 
ATOM      2  C   UNL d   1     -45.645  12.764  22.574  0.00  0.00     0.042 A 
ATOM      3  N   UNL d   1     -46.566  12.182  23.491  0.00  0.00    -0.217 NA
ATOM      4  N   UNL d   1     -45.264  11.612  23.326  0.00  0.00    -0.224 NA
ATOM      5  C   UNL d   1     -46.003  11.606  23.688  0.00  0.00     0.200 A 
ATOM      6  C   UNL d   1     -45.084  12.191  22.769  0.00  0.00     0.085 A 
ATOM      7  C   UNL d   1     -45.466  13.342  22.017  0.00  0.00     0.004 A 
ATOM      8  C   UNL d   1     -44.342  12.199  22.405  0.00  0.00     0.019 A 
ATOM      9  C   UNL d   1     -44.721  13.357  21.647  0.00  0.00     0.000 A 
ATOM     10  C   UNL d   1     -44.163  12.778  21.848  0.00  0.00     0.002 A 
ENDROOT
BRANCH   1  11
ATOM     11  S   UNL d   1     -46.953  13.339  22.737  0.00  0.00    -0.067 SA
BRANCH  11  12
ATOM     12  C   UNL d   1     -47.751  13.157  22.754  0.00  0.00     0.037 C 
BRANCH  12  13
ATOM     13  C   UNL d   1     -48.309  13.731  22.549  0.00  0.00     0.006 A 
ATOM     14  C   UNL d   1     -49.017  13.501  22.168  0.00  0.00     0.001 A 
ATOM     15  C   UNL d   1     -49.153  12.705  21.998  0.00  0.00     0.000 C 
ATOM     16  C   UNL d   1     -49.573  14.084  21.965  0.00  0.00     0.000 A 
ATOM     17  C   UNL d   1     -49.430  14.869  22.136  0.00  0.00     0.000 A 
ATOM     18  C   UNL d   1     -48.732  15.089  22.512  0.00  0.00     0.000 A 
ATOM     19  C   UNL d   1     -48.164  14.524  22.722  0.00  0.00     0.001 A 
ENDBRANCH  12  13
ENDBRANCH  11  12
ENDBRANCH   1  11
TORSDOF 3
ENDMDL
MODEL 4
REMARK VINA RESULT:      -5.7      8.369     10.028
REMARK  3 active torsions:
REMARK  status: ('A' for Active; 'I' for Inactive)
REMARK    1  A    between atoms: S_4  and  C_1 
REMARK    2  A    between atoms: C_8  and  S_4 
REMARK    3  A    between atoms: C_9  and  C_8 
ROOT
ATOM      1  C   UNL d   1     -39.962  15.266  18.297  0.00  0.00     0.114 A 
ATOM      2  C   UNL d   1     -39.590  14.755  17.768  0.00  0.00     0.042 A 
ATOM      3  N   UNL d   1     -40.557  15.767  18.029  0.00  0.00    -0.217 NA
ATOM      4  N   UNL d   1     -40.404  15.247  16.705  0.00  0.00    -0.224 NA
ATOM      5  C   UNL d   1     -40.778  15.758  17.230  0.00  0.00     0.200 A 
ATOM      6  C   UNL d   1     -39.810  14.745  16.973  0.00  0.00     0.085 A 
ATOM      7  C   UNL d   1     -38.995  14.253  18.037  0.00  0.00     0.004 A 
ATOM      8  C   UNL d   1     -39.433  14.231  16.447  0.00  0.00     0.019 A 
ATOM      9  C   UNL d   1     -38.612  13.733  17.513  0.00  0.00     0.000 A 
ATOM     10  C   UNL d   1     -38.839  13.729  16.716  0.00  0.00     0.002 A 
ENDROOT
BRANCH   1  11
ATOM     11  S   UNL d   1     -39.740  15.275  19.100  0.00  0.00    -0.067 SA
BRANCH  11  12
ATOM     12  C   UNL d   1     -40.176  15.705  19.644  0.00  0.00     0.037 C 
BRANCH  12  13
ATOM     13  C   UNL d   1     -39.909  15.776  20.422  0.00  0.00     0.006 A 
ATOM     14  C   UNL d   1     -40.465  15.845  21.044  0.00  0.00     0.001 A 
ATOM     15  C   UNL d   1     -41.272  15.842  20.877  0.00  0.00     0.000 C 
ATOM     16  C   UNL d   1     -40.189  15.916  21.825  0.00  0.00     0.000 A 
ATOM     17  C   UNL d   1     -39.388  15.918  21.982  0.00  0.00     0.000 A 
ATOM     18  C   UNL d   1     -38.847  15.850  21.366  0.00  0.00     0.000 A 
ATOM     19  C   UNL d   1     -39.101  15.778  20.581  0.00  0.00     0.001 A 
ENDBRANCH  12  13
ENDBRANCH  11  12
ENDBRANCH   1  11
TORSDOF 3
ENDMDL
MODEL 5
REMARK VINA RESULT:      -5.5      8.731     10.192
REMARK  3 active torsions:
REMARK  status: ('A' for Active; 'I' for Inactive)
REMARK    1  A    between atoms: S_4  and  C_1 
REMARK    2  A    between atoms: C_8  and  S_4 
REMARK    3  A    between atoms: C_9  and  C_8 
ROOT
ATOM      1  C   UNL d   1     -39.996  14.853  19.033  0.00  0.00     0.114 A 
ATOM      2  C   UNL d   1     -39.968  14.901  19.855  0.00  0.00     0.042 A 
ATOM      3  N   UNL d   1     -40.509  15.341  18.614  0.00  0.00    -0.217 NA
ATOM      4  N   UNL d   1     -40.965  15.922  19.839  0.00  0.00    -0.224 NA
ATOM      5  C   UNL d   1     -40.995  15.877  19.018  0.00  0.00     0.200 A 
ATOM      6  C   UNL d   1     -40.452  15.434  20.258  0.00  0.00     0.085 A 
ATOM      7  C   UNL d   1     -39.455  14.413  20.274  0.00  0.00     0.004 A 
ATOM      8  C   UNL d   1     -40.420  15.478  21.083  0.00  0.00     0.019 A 
ATOM      9  C   UNL d   1     -39.418  14.451  21.104  0.00  0.00     0.000 A 
ATOM     10  C   UNL d   1     -39.907  14.990  21.502  0.00  0.00     0.002 A 
ENDROOT
BRANCH   1  11
ATOM     11  S   UNL d   1     -39.508  14.314  18.626  0.00  0.00    -0.067 SA
BRANCH  11  12
ATOM     12  C   UNL d   1     -39.348  14.422  17.830  0.00  0.00     0.037 C 
BRANCH  12  13
ATOM     13  C   UNL d   1     -38.879  13.875  17.426  0.00  0.00     0.006 A 
ATOM     14  C   UNL d   1     -38.506  14.099  16.711  0.00  0.00     0.001 A 
ATOM     15  C   UNL d   1     -38.608  14.862  16.416  0.00  0.00     0.000 C 
ATOM     16  C   UNL d   1     -38.036  13.543  16.311  0.00  0.00     0.000 A 
ATOM     17  C   UNL d   1     -37.940  12.790  16.610  0.00  0.00     0.000 A 
ATOM     18  C   UNL d   1     -38.310  12.576  17.313  0.00  0.00     0.000 A 
ATOM     19  C   UNL d   1     -38.782  13.114  17.729  0.00  0.00     0.001 A 
ENDBRANCH  12  13
ENDBRANCH  11  12
ENDBRANCH   1  11
TORSDOF 3
ENDMDL
MODEL 6
REMARK VINA RESULT:      -5.4      9.224      9.821
REMARK  3 active torsions:
REMARK  status: ('A' for Active; 'I' for Inactive)
REMARK    1  A    between atoms: S_4  and  C_1 
REMARK    2  A    between atoms: C_8  and  S_4 
REMARK    3  A    between atoms: C_9  and  C_8 
ROOT
ATOM      1  C   UNL d   1     -39.517  14.516  18.983  0.00  0.00     0.114 A 
ATOM      2  C   UNL d   1     -40.007  14.846  18.408  0.00  0.00     0.042 A 
ATOM      3  N   UNL d   1     -39.106  13.823  18.817  0.00  0.00    -0.217 NA
ATOM      4  N   UNL d   1     -39.673  13.793  17.505  0.00  0.00    -0.224 NA
ATOM      5  C   UNL d   1     -39.184  13.461  18.076  0.00  0.00     0.200 A 
ATOM      6  C   UNL d   1     -40.085  14.485  17.670  0.00  0.00     0.085 A 
ATOM      7  C   UNL d   1     -40.419  15.539  18.573  0.00  0.00     0.004 A 
ATOM      8  C   UNL d   1     -40.578  14.821  17.097  0.00  0.00     0.019 A 
ATOM      9  C   UNL d   1     -40.917  15.882  18.001  0.00  0.00     0.000 A 
ATOM     10  C   UNL d   1     -40.990  15.514  17.262  0.00  0.00     0.002 A 
ENDROOT
BRANCH   1  11
ATOM     11  S   UNL d   1     -39.439  14.881  19.728  0.00  0.00    -0.067 SA
BRANCH  11  12
ATOM     12  C   UNL d   1     -39.243  14.434  20.386  0.00  0.00     0.037 C 
BRANCH  12  13
ATOM     13  C   UNL d   1     -39.049  14.811  21.096  0.00  0.00     0.006 A 
ATOM     14  C   UNL d   1     -39.212  14.429  21.823  0.00  0.00     0.001 A 
ATOM     15  C   UNL d   1     -39.563  13.683  21.826  0.00  0.00     0.000 C 
ATOM     16  C   UNL d   1     -39.014  14.814  22.532  0.00  0.00     0.000 A 
ATOM     17  C   UNL d   1     -38.668  15.552  22.520  0.00  0.00     0.000 A 
ATOM     18  C   UNL d   1     -38.511  15.922  21.802  0.00  0.00     0.000 A 
ATOM     19  C   UNL d   1     -38.699  15.556  21.083  0.00  0.00     0.001 A 
ENDBRANCH  12  13
ENDBRANCH  11  12
ENDBRANCH   1  11
TORSDOF 3
ENDMDL
