MODEL 1
REMARK VINA RESULT:      76.0      0.000      0.000
REMARK  3 active torsions:
REMARK  status: ('A' for Active; 'I' for Inactive)
REMARK    1  A    between atoms: N_9  and  C_3 
REMARK    2  A    between atoms: C_14  and  C_5 
REMARK       I    between atoms: C_10  and  N_11 
REMARK    3  A    between atoms: C_13  and  C_10 
ROOT
ATOM      1  N   UNL d   1      13.900  13.790  -3.140  0.00  0.00    -0.196 N 
ATOM      2  C   UNL d   1      13.864  13.097  -2.696  0.00  0.00     0.167 A 
ATOM      3  C   UNL d   1      13.561  13.819  -3.890  0.00  0.00     0.152 A 
ATOM      4  N   UNL d   1      14.300  14.353  -2.700  0.00  0.00    -0.163 NA
ATOM      5  C   UNL d   1      14.242  13.236  -1.985  0.00  0.00     0.055 A 
ATOM      6  C   UNL d   1      14.513  14.009  -1.983  0.00  0.00     0.104 A 
ATOM      7  N   UNL d   1      13.489  12.431  -3.002  0.00  0.00    -0.227 NA
ATOM      8  C   UNL d   1      13.183  13.148  -4.202  0.00  0.00     0.057 A 
ATOM      9  C   UNL d   1      13.147  12.455  -3.758  0.00  0.00     0.086 A 
ATOM     10  C   UNL d   1      14.925  14.372  -1.369  0.00  0.00     0.023 C 
ATOM     11  C   UNL d   1      12.770  11.780  -4.062  0.00  0.00     0.021 C 
ENDROOT
BRANCH   3  12
ATOM     12  N   UNL d   1      13.598  14.516  -4.337  0.00  0.00    -0.286 N 
ATOM     13  C   UNL d   1      14.078  15.147  -4.116  0.00  0.00     0.101 A 
ATOM     14  C   UNL d   1      14.097  15.831  -4.576  0.00  0.00     0.102 A 
ATOM     15  N   UNL d   1      13.646  15.890  -5.249  0.00  0.00    -0.267 N 
ATOM     16  C   UNL d   1      13.671  16.584  -5.709  0.00  0.00     0.288 C 
ATOM     17  C   UNL d   1      13.158  15.257  -5.480  0.00  0.00     0.102 A 
ATOM     18  O   UNL d   1      13.220  16.652  -6.389  0.00  0.00    -0.264 OA
ATOM     19  C   UNL d   1      13.138  14.573  -5.019  0.00  0.00     0.101 A 
BRANCH  16  20
ATOM     20  C   UNL d   1      14.158  17.205  -5.471  0.00  0.00     0.156 A 
ATOM     21  O   UNL d   1      14.783  17.247  -4.948  0.00  0.00    -0.300 OA
ATOM     22  C   UNL d   1      15.052  18.024  -4.941  0.00  0.00     0.123 A 
ATOM     23  C   UNL d   1      14.604  18.460  -5.449  0.00  0.00     0.029 A 
ATOM     24  C   UNL d   1      14.043  17.959  -5.786  0.00  0.00     0.032 A 
ENDBRANCH  16  20
ENDBRANCH   3  12
BRANCH   5  25
ATOM     25  C   UNL d   1      14.378  12.749  -1.327  0.00  0.00     0.004 A 
ATOM     26  C   UNL d   1      13.841  12.747  -0.700  0.00  0.00     0.000 A 
ATOM     27  C   UNL d   1      13.976  12.261  -0.042  0.00  0.00     0.000 A 
ATOM     28  C   UNL d   1      14.647  11.779  -0.014  0.00  0.00     0.000 A 
ATOM     29  C   UNL d   1      15.184  11.783  -0.645  0.00  0.00     0.000 A 
ATOM     30  C   UNL d   1      15.047  12.268  -1.299  0.00  0.00     0.000 A 
ENDBRANCH   5  25
TORSDOF 3
ENDMDL
