MODEL 1
REMARK VINA RESULT:      -2.1      0.000      0.000
REMARK  6 active torsions:
REMARK  status: ('A' for Active; 'I' for Inactive)
REMARK    1  A    between atoms: N_6  and  C_1 
REMARK    2  A    between atoms: C_3  and  N_6 
REMARK    3  A    between atoms: N_4  and  C_3 
REMARK       I    between atoms: C_9  and  N_4 
REMARK    4  A    between atoms: C_12  and  C_9 
REMARK    5  A    between atoms: C_10  and  C_13 
REMARK    6  A    between atoms: O_20  and  C_10 
ROOT
ATOM      1  N   UNL d   1      33.189  17.432 -24.047  0.00  0.00    -0.179 NA
ATOM      2  C   UNL d   1      32.790  16.909 -24.551  0.00  0.00     0.281 C 
ATOM      3  O   UNL d   1      33.214  16.435 -25.074  0.00  0.00    -0.265 OA
ENDROOT
BRANCH   1   4
ATOM      4  C   UNL d   1      32.763  17.905 -23.524  0.00  0.00     0.225 C 
ATOM      5  S   UNL d   1      32.471  17.584 -22.826  0.00  0.00    -0.037 SA
BRANCH   4   6
ATOM      6  N   UNL d   1      32.630  18.709 -23.703  0.00  0.00    -0.192 NA
BRANCH   6   7
ATOM      7  C   UNL d   1      32.770  19.288 -23.125  0.00  0.00     0.196 A 
ATOM      8  N   UNL d   1      32.829  20.094 -23.267  0.00  0.00    -0.221 NA
ATOM      9  C   UNL d   1      32.971  20.469 -22.539  0.00  0.00     0.090 A 
ATOM     10  C   UNL d   1      33.078  21.268 -22.337  0.00  0.00     0.020 A 
ATOM     11  C   UNL d   1      32.999  19.888 -21.956  0.00  0.00     0.050 A 
ATOM     12  C   UNL d   1      33.213  21.477 -21.551  0.00  0.00     0.002 A 
ATOM     13  C   UNL d   1      33.240  20.888 -20.966  0.00  0.00     0.001 A 
ATOM     14  C   UNL d   1      33.134  20.097 -21.170  0.00  0.00     0.008 A 
ATOM     15  S   UNL d   1      32.873  19.152 -22.329  0.00  0.00    -0.047 SA
ENDBRANCH   6   7
ENDBRANCH   4   6
ENDBRANCH   1   4
BRANCH   2  16
ATOM     16  C   UNL d   1      31.968  16.861 -24.531  0.00  0.00     0.058 A 
ATOM     17  C   UNL d   1      31.517  17.367 -24.997  0.00  0.00     0.005 A 
ATOM     18  C   UNL d   1      30.687  17.322 -24.979  0.00  0.00     0.005 A 
ATOM     19  C   UNL d   1      30.317  16.768 -24.492  0.00  0.00     0.063 A 
ATOM     20  C   UNL d   1      30.777  16.260 -24.023  0.00  0.00     0.005 A 
ATOM     21  C   UNL d   1      31.598  16.307 -24.043  0.00  0.00     0.005 A 
BRANCH  19  22
ATOM     22  C   UNL d   1      29.486  16.714 -24.465  0.00  0.00     0.296 C 
ATOM     23  O   UNL d   1      29.109  15.986 -24.559  0.00  0.00    -0.259 OA
BRANCH  22  24
ATOM     24  O   UNL d   1      29.042  17.397 -24.344  0.00  0.00    -0.296 OA
ATOM     25  C   UNL d   1      28.240  17.340 -24.135  0.00  0.00     0.185 C 
ENDBRANCH  22  24
ENDBRANCH  19  22
ENDBRANCH   2  16
TORSDOF 6
ENDMDL
MODEL 2
REMARK VINA RESULT:      -0.8      1.604      2.525
REMARK  6 active torsions:
REMARK  status: ('A' for Active; 'I' for Inactive)
REMARK    1  A    between atoms: N_6  and  C_1 
REMARK    2  A    between atoms: C_3  and  N_6 
REMARK    3  A    between atoms: N_4  and  C_3 
REMARK       I    between atoms: C_9  and  N_4 
REMARK    4  A    between atoms: C_12  and  C_9 
REMARK    5  A    between atoms: C_10  and  C_13 
REMARK    6  A    between atoms: O_20  and  C_10 
ROOT
ATOM      1  N   UNL d   1      32.888  20.277 -23.479  0.00  0.00    -0.179 NA
ATOM      2  C   UNL d   1      32.844  19.746 -24.114  0.00  0.00     0.281 C 
ATOM      3  O   UNL d   1      32.999  20.004 -24.880  0.00  0.00    -0.265 OA
ENDROOT
BRANCH   1   4
ATOM      4  C   UNL d   1      32.734  20.018 -22.713  0.00  0.00     0.225 C 
ATOM      5  S   UNL d   1      32.078  19.543 -22.565  0.00  0.00    -0.037 SA
BRANCH   4   6
ATOM      6  N   UNL d   1      33.241  20.236 -22.088  0.00  0.00    -0.192 NA
BRANCH   6   7
ATOM      7  C   UNL d   1      33.038  20.874 -21.597  0.00  0.00     0.196 A 
ATOM      8  N   UNL d   1      32.606  21.532 -21.829  0.00  0.00    -0.221 NA
ATOM      9  C   UNL d   1      32.531  22.030 -21.168  0.00  0.00     0.090 A 
ATOM     10  C   UNL d   1      32.157  22.765 -21.066  0.00  0.00     0.020 A 
ATOM     11  C   UNL d   1      32.919  21.673 -20.536  0.00  0.00     0.050 A 
ATOM     12  C   UNL d   1      32.175  23.136 -20.330  0.00  0.00     0.002 A 
ATOM     13  C   UNL d   1      32.568  22.772 -19.695  0.00  0.00     0.001 A 
ATOM     14  C   UNL d   1      32.938  22.044 -19.799  0.00  0.00     0.008 A 
ATOM     15  S   UNL d   1      33.234  20.950 -20.810  0.00  0.00    -0.047 SA
ENDBRANCH   6   7
ENDBRANCH   4   6
ENDBRANCH   1   4
BRANCH   2  16
ATOM     16  C   UNL d   1      32.646  18.958 -23.980  0.00  0.00     0.058 A 
ATOM     17  C   UNL d   1      31.871  18.706 -24.094  0.00  0.00     0.005 A 
ATOM     18  C   UNL d   1      31.667  17.911 -23.960  0.00  0.00     0.005 A 
ATOM     19  C   UNL d   1      32.243  17.376 -23.711  0.00  0.00     0.063 A 
ATOM     20  C   UNL d   1      33.024  17.636 -23.597  0.00  0.00     0.005 A 
ATOM     21  C   UNL d   1      33.223  18.423 -23.731  0.00  0.00     0.005 A 
BRANCH  19  22
ATOM     22  C   UNL d   1      32.051  16.577 -23.573  0.00  0.00     0.296 C 
ATOM     23  O   UNL d   1      32.463  16.136 -23.012  0.00  0.00    -0.259 OA
BRANCH  22  24
ATOM     24  O   UNL d   1      31.442  16.231 -24.005  0.00  0.00    -0.296 OA
ATOM     25  C   UNL d   1      31.142  15.489 -23.781  0.00  0.00     0.185 C 
ENDBRANCH  22  24
ENDBRANCH  19  22
ENDBRANCH   2  16
TORSDOF 6
ENDMDL
