MODEL 1
REMARK VINA RESULT:      -1.9      0.000      0.000
REMARK  4 active torsions:
REMARK  status: ('A' for Active; 'I' for Inactive)
REMARK       I    between atoms: C_2  and  N_1 
REMARK       I    between atoms: N_8  and  C_2 
REMARK    1  A    between atoms: C_14  and  N_8 
REMARK    2  A    between atoms: C_15  and  N_8 
REMARK    3  A    between atoms: C_17  and  C_14 
REMARK    4  A    between atoms: C_16  and  C_15 
ROOT
ATOM      1  N   UNL d   1      58.795  -0.635  30.112  0.00  0.00    -0.259 N 
ATOM      2  C   UNL d   1      58.617  -1.287  29.641  0.00  0.00     0.339 C 
ATOM      3  S   UNL d   1      59.159   0.677  31.057  0.00  0.00    -0.084 SA
ATOM      4  C   UNL d   1      58.224  -0.305  30.606  0.00  0.00     0.074 A 
ATOM      5  C   UNL d   1      59.558  -0.307  30.088  0.00  0.00     0.074 A 
ATOM      6  C   UNL d   1      58.394   0.347  31.080  0.00  0.00     0.046 A 
ATOM      7  C   UNL d   1      59.732   0.348  30.564  0.00  0.00     0.046 A 
ATOM      8  N   UNL d   1      59.189  -1.617  29.146  0.00  0.00    -0.258 N 
ATOM      9  O   UNL d   1      57.855  -1.617  29.662  0.00  0.00    -0.245 OA
ATOM     10  C   UNL d   1      57.461  -0.634  30.629  0.00  0.00     0.018 A 
ATOM     11  C   UNL d   1      60.129  -0.628  29.602  0.00  0.00     0.018 A 
ATOM     12  C   UNL d   1      60.488   0.678  30.544  0.00  0.00     0.008 A 
ATOM     13  C   UNL d   1      57.832   0.682  31.574  0.00  0.00     0.008 A 
ATOM     14  C   UNL d   1      60.891  -0.299  29.579  0.00  0.00     0.002 A 
ATOM     15  C   UNL d   1      56.897  -0.301  31.123  0.00  0.00     0.002 A 
ATOM     16  C   UNL d   1      57.072   0.344  31.589  0.00  0.00     0.001 A 
ATOM     17  C   UNL d   1      61.061   0.349  30.050  0.00  0.00     0.001 A 
ENDROOT
BRANCH   8  18
ATOM     18  C   UNL d   1      59.953  -1.287  29.124  0.00  0.00     0.085 C 
BRANCH  18  19
ATOM     19  C   UNL d   1      60.408  -1.397  28.459  0.00  0.00     0.019 C 
ATOM     20  C   UNL d   1      61.061  -1.900  28.507  0.00  0.00     0.002 C 
ENDBRANCH  18  19
ENDBRANCH   8  18
BRANCH   8  21
ATOM     21  C   UNL d   1      59.003  -2.268  28.679  0.00  0.00     0.085 C 
BRANCH  21  22
ATOM     22  C   UNL d   1      58.734  -2.973  29.029  0.00  0.00     0.019 C 
ATOM     23  C   UNL d   1      58.483  -3.595  28.569  0.00  0.00     0.002 C 
ENDBRANCH  21  22
ENDBRANCH   8  21
TORSDOF 4
ENDMDL
MODEL 2
REMARK VINA RESULT:      -1.8      1.260      3.196
REMARK  4 active torsions:
REMARK  status: ('A' for Active; 'I' for Inactive)
REMARK       I    between atoms: C_2  and  N_1 
REMARK       I    between atoms: N_8  and  C_2 
REMARK    1  A    between atoms: C_14  and  N_8 
REMARK    2  A    between atoms: C_15  and  N_8 
REMARK    3  A    between atoms: C_17  and  C_14 
REMARK    4  A    between atoms: C_16  and  C_15 
ROOT
ATOM      1  N   UNL d   1      59.333  -1.689  29.240  0.00  0.00    -0.259 N 
ATOM      2  C   UNL d   1      58.612  -1.601  29.629  0.00  0.00     0.339 C 
ATOM      3  S   UNL d   1      60.783  -1.859  28.457  0.00  0.00    -0.084 SA
ATOM      4  C   UNL d   1      59.616  -2.438  29.044  0.00  0.00     0.074 A 
ATOM      5  C   UNL d   1      59.778  -1.016  29.044  0.00  0.00     0.074 A 
ATOM      6  C   UNL d   1      60.336  -2.533  28.654  0.00  0.00     0.046 A 
ATOM      7  C   UNL d   1      60.502  -1.110  28.652  0.00  0.00     0.046 A 
ATOM      8  N   UNL d   1      58.329  -0.851  29.826  0.00  0.00    -0.258 N 
ATOM      9  O   UNL d   1      58.164  -2.272  29.827  0.00  0.00    -0.245 OA
ATOM     10  C   UNL d   1      59.169  -3.110  29.241  0.00  0.00     0.018 A 
ATOM     11  C   UNL d   1      59.505  -0.271  29.235  0.00  0.00     0.018 A 
ATOM     12  C   UNL d   1      60.949  -0.444  28.455  0.00  0.00     0.008 A 
ATOM     13  C   UNL d   1      60.625  -3.274  28.455  0.00  0.00     0.008 A 
ATOM     14  C   UNL d   1      59.951   0.401  29.038  0.00  0.00     0.002 A 
ATOM     15  C   UNL d   1      59.456  -3.852  29.042  0.00  0.00     0.002 A 
ATOM     16  C   UNL d   1      60.169  -3.941  28.657  0.00  0.00     0.001 A 
ATOM     17  C   UNL d   1      60.667   0.306  28.651  0.00  0.00     0.001 A 
ENDROOT
BRANCH   8  18
ATOM     18  C   UNL d   1      58.777  -0.178  29.629  0.00  0.00     0.085 C 
BRANCH  18  19
ATOM     19  C   UNL d   1      58.409   0.547  29.614  0.00  0.00     0.019 C 
ATOM     20  C   UNL d   1      57.807   0.674  29.064  0.00  0.00     0.002 C 
ENDBRANCH  18  19
ENDBRANCH   8  18
BRANCH   8  21
ATOM     21  C   UNL d   1      57.608  -0.772  30.215  0.00  0.00     0.085 C 
BRANCH  21  22
ATOM     22  C   UNL d   1      57.584  -0.697  31.043  0.00  0.00     0.019 C 
ATOM     23  C   UNL d   1      56.887  -0.806  31.448  0.00  0.00     0.002 C 
ENDBRANCH  21  22
ENDBRANCH   8  21
TORSDOF 4
ENDMDL
MODEL 3
REMARK VINA RESULT:      -1.1      8.642      9.371
REMARK  4 active torsions:
REMARK  status: ('A' for Active; 'I' for Inactive)
REMARK       I    between atoms: C_2  and  N_1 
REMARK       I    between atoms: N_8  and  C_2 
REMARK    1  A    between atoms: C_14  and  N_8 
REMARK    2  A    between atoms: C_15  and  N_8 
REMARK    3  A    between atoms: C_17  and  C_14 
REMARK    4  A    between atoms: C_16  and  C_15 
ROOT
ATOM      1  N   UNL d   1      59.120  -9.754  31.319  0.00  0.00    -0.259 N 
ATOM      2  C   UNL d   1      59.645  -9.733  30.684  0.00  0.00     0.339 C 
ATOM      3  S   UNL d   1      58.061  -9.796  32.593  0.00  0.00    -0.084 SA
ATOM      4  C   UNL d   1      59.400  -9.754  32.094  0.00  0.00     0.074 A 
ATOM      5  C   UNL d   1      58.303  -9.775  31.176  0.00  0.00     0.074 A 
ATOM      6  C   UNL d   1      58.882  -9.775  32.735  0.00  0.00     0.046 A 
ATOM      7  C   UNL d   1      57.780  -9.796  31.819  0.00  0.00     0.046 A 
ATOM      8  N   UNL d   1      59.365  -9.733  29.908  0.00  0.00    -0.258 N 
ATOM      9  O   UNL d   1      60.463  -9.711  30.823  0.00  0.00    -0.245 OA
ATOM     10  C   UNL d   1      60.219  -9.732  32.236  0.00  0.00     0.018 A 
ATOM     11  C   UNL d   1      58.018  -9.775  30.412  0.00  0.00     0.018 A 
ATOM     12  C   UNL d   1      56.966  -9.818  31.683  0.00  0.00     0.008 A 
ATOM     13  C   UNL d   1      59.151  -9.775  33.509  0.00  0.00     0.008 A 
ATOM     14  C   UNL d   1      57.200  -9.797  30.270  0.00  0.00     0.002 A 
ATOM     15  C   UNL d   1      60.490  -9.733  33.010  0.00  0.00     0.002 A 
ATOM     16  C   UNL d   1      59.973  -9.754  33.640  0.00  0.00     0.001 A 
ATOM     17  C   UNL d   1      56.685  -9.818  30.907  0.00  0.00     0.001 A 
ENDROOT
BRANCH   8  18
ATOM     18  C   UNL d   1      58.545  -9.754  29.766  0.00  0.00     0.085 C 
BRANCH  18  19
ATOM     19  C   UNL d   1      58.277  -9.703  29.000  0.00  0.00     0.019 C 
ATOM     20  C   UNL d   1      58.150  -8.954  28.676  0.00  0.00     0.002 C 
ENDBRANCH  18  19
ENDBRANCH   8  18
BRANCH   8  21
ATOM     21  C   UNL d   1      59.894  -9.711  29.278  0.00  0.00     0.085 C 
BRANCH  21  22
ATOM     22  C   UNL d   1      60.508  -9.151  29.266  0.00  0.00     0.019 C 
ATOM     23  C   UNL d   1      61.025  -9.116  28.639  0.00  0.00     0.002 C 
ENDBRANCH  21  22
ENDBRANCH   8  21
TORSDOF 4
ENDMDL
MODEL 4
REMARK VINA RESULT:       0.7      8.753      9.165
REMARK  4 active torsions:
REMARK  status: ('A' for Active; 'I' for Inactive)
REMARK       I    between atoms: C_2  and  N_1 
REMARK       I    between atoms: N_8  and  C_2 
REMARK    1  A    between atoms: C_14  and  N_8 
REMARK    2  A    between atoms: C_15  and  N_8 
REMARK    3  A    between atoms: C_17  and  C_14 
REMARK    4  A    between atoms: C_16  and  C_15 
ROOT
ATOM      1  N   UNL d   1      58.834  -9.818  31.135  0.00  0.00    -0.259 N 
ATOM      2  C   UNL d   1      58.190  -9.818  30.621  0.00  0.00     0.339 C 
ATOM      3  S   UNL d   1      60.133  -9.818  32.164  0.00  0.00    -0.084 SA
ATOM      4  C   UNL d   1      58.720  -9.818  31.952  0.00  0.00     0.074 A 
ATOM      5  C   UNL d   1      59.605  -9.818  30.827  0.00  0.00     0.074 A 
ATOM      6  C   UNL d   1      59.359  -9.818  32.472  0.00  0.00     0.046 A 
ATOM      7  C   UNL d   1      60.249  -9.818  31.349  0.00  0.00     0.046 A 
ATOM      8  N   UNL d   1      58.305  -9.818  29.804  0.00  0.00    -0.258 N 
ATOM      9  O   UNL d   1      57.417  -9.818  30.926  0.00  0.00    -0.245 OA
ATOM     10  C   UNL d   1      57.947  -9.818  32.258  0.00  0.00     0.018 A 
ATOM     11  C   UNL d   1      59.727  -9.818  30.021  0.00  0.00     0.018 A 
ATOM     12  C   UNL d   1      61.018  -9.817  31.048  0.00  0.00     0.008 A 
ATOM     13  C   UNL d   1      59.255  -9.818  33.285  0.00  0.00     0.008 A 
ATOM     14  C   UNL d   1      60.498  -9.817  29.714  0.00  0.00     0.002 A 
ATOM     15  C   UNL d   1      57.841  -9.818  33.071  0.00  0.00     0.002 A 
ATOM     16  C   UNL d   1      58.477  -9.818  33.582  0.00  0.00     0.001 A 
ATOM     17  C   UNL d   1      61.134  -9.817  30.231  0.00  0.00     0.001 A 
ENDROOT
BRANCH   8  18
ATOM     18  C   UNL d   1      59.078  -9.818  29.497  0.00  0.00     0.085 C 
BRANCH  18  19
ATOM     19  C   UNL d   1      59.185  -9.695  28.701  0.00  0.00     0.019 C 
ATOM     20  C   UNL d   1      59.813  -9.219  28.455  0.00  0.00     0.002 C 
ENDBRANCH  18  19
ENDBRANCH   8  18
BRANCH   8  21
ATOM     21  C   UNL d   1      57.656  -9.818  29.297  0.00  0.00     0.085 C 
BRANCH  21  22
ATOM     22  C   UNL d   1      57.226  -9.118  29.167  0.00  0.00     0.019 C 
ATOM     23  C   UNL d   1      56.603  -9.106  28.644  0.00  0.00     0.002 C 
ENDBRANCH  21  22
ENDBRANCH   8  21
TORSDOF 4
ENDMDL
