MODEL 1
REMARK VINA RESULT:      -1.7      0.000      0.000
REMARK  4 active torsions:
REMARK  status: ('A' for Active; 'I' for Inactive)
REMARK    1  A    between atoms: C_5  and  N_1 
REMARK    2  A    between atoms: C_9  and  C_3 
REMARK    3  A    between atoms: C_7  and  C_4 
REMARK    4  A    between atoms: N_10  and  C_5 
ROOT
ATOM      1  N   UNL d   1      31.381  16.270 -23.694  0.00  0.00    -0.203 N 
ATOM      2  N   UNL d   1      30.693  15.810 -23.694  0.00  0.00    -0.163 NA
ATOM      3  C   UNL d   1      30.060  16.260 -23.913  0.00  0.00     0.103 A 
ATOM      4  C   UNL d   1      31.176  17.046 -23.924  0.00  0.00     0.087 A 
ATOM      5  C   UNL d   1      30.359  17.047 -24.061  0.00  0.00     0.040 A 
ENDROOT
BRANCH   4   6
ATOM      6  C   UNL d   1      31.664  17.707 -24.009  0.00  0.00     0.018 A 
ATOM      7  C   UNL d   1      31.834  18.016 -24.750  0.00  0.00     0.002 A 
ATOM      8  C   UNL d   1      32.320  18.674 -24.833  0.00  0.00     0.007 A 
ATOM      9  C   UNL d   1      32.642  19.028 -24.164  0.00  0.00     0.035 A 
ATOM     10  C   UNL d   1      32.484  18.736 -23.433  0.00  0.00     0.007 A 
ATOM     11 BR   UNL d   1      33.135  19.699 -24.271  0.00  0.00    -0.049 Br
ATOM     12  C   UNL d   1      31.995  18.075 -23.348  0.00  0.00     0.002 A 
ENDBRANCH   4   6
BRANCH   1  13
ATOM     13  C   UNL d   1      32.159  16.009 -23.499  0.00  0.00     0.222 C 
ATOM     14  S   UNL d   1      32.657  15.707 -24.113  0.00  0.00    -0.037 SA
BRANCH  13  15
ATOM     15  N   UNL d   1      32.449  16.042 -22.705  0.00  0.00    -0.214 NA
ATOM     16  C   UNL d   1      33.003  15.479 -22.441  0.00  0.00     0.122 C 
ENDBRANCH  13  15
ENDBRANCH   1  13
BRANCH   3  17
ATOM     17  C   UNL d   1      29.275  15.988 -23.975  0.00  0.00     0.019 A 
ATOM     18  C   UNL d   1      28.860  15.738 -23.309  0.00  0.00     0.002 A 
ATOM     19  C   UNL d   1      28.073  15.468 -23.393  0.00  0.00     0.000 A 
ATOM     20  C   UNL d   1      27.721  15.454 -24.132  0.00  0.00     0.000 A 
ATOM     21  C   UNL d   1      28.152  15.708 -24.788  0.00  0.00     0.000 A 
ATOM     22  C   UNL d   1      28.915  15.970 -24.713  0.00  0.00     0.002 A 
ENDBRANCH   3  17
TORSDOF 4
ENDMDL
MODEL 2
REMARK VINA RESULT:      -0.6      5.678      7.129
REMARK  4 active torsions:
REMARK  status: ('A' for Active; 'I' for Inactive)
REMARK    1  A    between atoms: C_5  and  N_1 
REMARK    2  A    between atoms: C_9  and  C_3 
REMARK    3  A    between atoms: C_7  and  C_4 
REMARK    4  A    between atoms: N_10  and  C_5 
ROOT
ATOM      1  N   UNL d   1      32.551  21.909 -21.471  0.00  0.00    -0.203 N 
ATOM      2  N   UNL d   1      32.555  21.949 -22.298  0.00  0.00    -0.163 NA
ATOM      3  C   UNL d   1      32.604  22.717 -22.538  0.00  0.00     0.103 A 
ATOM      4  C   UNL d   1      32.600  22.688 -21.174  0.00  0.00     0.087 A 
ATOM      5  C   UNL d   1      32.633  23.193 -21.828  0.00  0.00     0.040 A 
ENDROOT
BRANCH   4   6
ATOM      6  C   UNL d   1      32.614  22.941 -20.387  0.00  0.00     0.018 A 
ATOM      7  C   UNL d   1      33.228  22.729 -19.886  0.00  0.00     0.002 A 
ATOM      8  C   UNL d   1      33.241  22.982 -19.102  0.00  0.00     0.007 A 
ATOM      9  C   UNL d   1      32.631  23.454 -18.818  0.00  0.00     0.035 A 
ATOM     10  C   UNL d   1      32.024  23.668 -19.299  0.00  0.00     0.007 A 
ATOM     11 BR   UNL d   1      32.663  23.701 -18.016  0.00  0.00    -0.049 Br
ATOM     12  C   UNL d   1      32.010  23.415 -20.086  0.00  0.00     0.002 A 
ENDBRANCH   4   6
BRANCH   1  13
ATOM     13  C   UNL d   1      32.506  21.210 -21.003  0.00  0.00     0.222 C 
ATOM     14  S   UNL d   1      31.750  20.951 -20.725  0.00  0.00    -0.037 SA
BRANCH  13  15
ATOM     15  N   UNL d   1      33.198  20.764 -20.807  0.00  0.00    -0.214 NA
ATOM     16  C   UNL d   1      33.190  19.934 -20.874  0.00  0.00     0.122 C 
ENDBRANCH  13  15
ENDBRANCH   1  13
BRANCH   3  17
ATOM     17  C   UNL d   1      32.622  22.974 -23.331  0.00  0.00     0.019 A 
ATOM     18  C   UNL d   1      33.241  22.760 -23.830  0.00  0.00     0.002 A 
ATOM     19  C   UNL d   1      33.240  23.028 -24.622  0.00  0.00     0.000 A 
ATOM     20  C   UNL d   1      32.629  23.498 -24.896  0.00  0.00     0.000 A 
ATOM     21  C   UNL d   1      32.017  23.702 -24.381  0.00  0.00     0.000 A 
ATOM     22  C   UNL d   1      32.012  23.446 -23.613  0.00  0.00     0.002 A 
ENDBRANCH   3  17
TORSDOF 4
ENDMDL
MODEL 3
REMARK VINA RESULT:       0.1      4.893      6.565
REMARK  4 active torsions:
REMARK  status: ('A' for Active; 'I' for Inactive)
REMARK    1  A    between atoms: C_5  and  N_1 
REMARK    2  A    between atoms: C_9  and  C_3 
REMARK    3  A    between atoms: C_7  and  C_4 
REMARK    4  A    between atoms: N_10  and  C_5 
ROOT
ATOM      1  N   UNL d   1      32.682  22.128 -21.617  0.00  0.00    -0.203 N 
ATOM      2  N   UNL d   1      32.730  21.516 -22.173  0.00  0.00    -0.163 NA
ATOM      3  C   UNL d   1      32.933  20.827 -21.808  0.00  0.00     0.103 A 
ATOM      4  C   UNL d   1      32.862  21.812 -20.866  0.00  0.00     0.087 A 
ATOM      5  C   UNL d   1      33.019  21.006 -20.976  0.00  0.00     0.040 A 
ENDROOT
BRANCH   4   6
ATOM      6  C   UNL d   1      32.888  22.197 -20.135  0.00  0.00     0.018 A 
ATOM      7  C   UNL d   1      32.626  21.826 -19.452  0.00  0.00     0.002 A 
ATOM      8  C   UNL d   1      32.653  22.210 -18.725  0.00  0.00     0.007 A 
ATOM      9  C   UNL d   1      32.946  22.977 -18.682  0.00  0.00     0.035 A 
ATOM     10  C   UNL d   1      33.205  23.351 -19.343  0.00  0.00     0.007 A 
ATOM     11 BR   UNL d   1      32.965  23.351 -17.930  0.00  0.00    -0.049 Br
ATOM     12  C   UNL d   1      33.179  22.966 -20.074  0.00  0.00     0.002 A 
ENDBRANCH   4   6
BRANCH   1  13
ATOM     13  C   UNL d   1      32.485  22.933 -21.774  0.00  0.00     0.222 C 
ATOM     14  S   UNL d   1      33.092  23.459 -22.042  0.00  0.00    -0.037 SA
BRANCH  13  15
ATOM     15  N   UNL d   1      31.698  23.224 -21.669  0.00  0.00    -0.214 NA
ATOM     16  C   UNL d   1      31.345  23.692 -22.260  0.00  0.00     0.122 C 
ENDBRANCH  13  15
ENDBRANCH   1  13
BRANCH   3  17
ATOM     17  C   UNL d   1      33.034  20.092 -22.188  0.00  0.00     0.019 A 
ATOM     18  C   UNL d   1      33.117  19.398 -21.753  0.00  0.00     0.002 A 
ATOM     19  C   UNL d   1      33.217  18.671 -22.154  0.00  0.00     0.000 A 
ATOM     20  C   UNL d   1      33.233  18.653 -22.972  0.00  0.00     0.000 A 
ATOM     21  C   UNL d   1      33.149  19.358 -23.391  0.00  0.00     0.000 A 
ATOM     22  C   UNL d   1      33.052  20.065 -23.009  0.00  0.00     0.002 A 
ENDBRANCH   3  17
TORSDOF 4
ENDMDL
