MODEL 1
REMARK VINA RESULT:      -9.9      0.000      0.000
REMARK  1 active torsions:
REMARK  status: ('A' for Active; 'I' for Inactive)
REMARK    1  A    between atoms: N_11  and  C_4 
ROOT
ATOM      1  N   UNL d   1      52.013  33.269  52.989  0.00  0.00    -0.195 N 
ATOM      2  C   UNL d   1      52.727  33.096  53.376  0.00  0.00     0.168 A 
ATOM      3  C   UNL d   1      53.002  32.327  53.418  0.00  0.00     0.073 A 
ATOM      4  C   UNL d   1      51.754  34.043  52.958  0.00  0.00     0.153 A 
ATOM      5  N   UNL d   1      51.848  31.906  52.683  0.00  0.00    -0.143 NA
ATOM      6  C   UNL d   1      52.561  31.732  53.070  0.00  0.00     0.185 A 
ATOM      7  N   UNL d   1      53.161  33.701  53.722  0.00  0.00    -0.227 NA
ATOM      8  C   UNL d   1      53.708  32.155  53.801  0.00  0.00     0.007 A 
ATOM      9  N   UNL d   1      52.828  30.949  53.104  0.00  0.00    -0.225 NA
ATOM     10  C   UNL d   1      52.180  34.646  53.298  0.00  0.00     0.057 A 
ATOM     11  C   UNL d   1      53.984  31.387  53.842  0.00  0.00     0.019 A 
ATOM     12  C   UNL d   1      52.894  34.473  53.685  0.00  0.00     0.086 A 
ATOM     13  C   UNL d   1      53.541  30.775  53.491  0.00  0.00     0.083 A 
ATOM     14  C   UNL d   1      54.144  32.764  54.147  0.00  0.00     0.000 C 
ATOM     15  C   UNL d   1      53.343  35.105  54.043  0.00  0.00     0.021 C 
ATOM     16  C   UNL d   1      53.810  30.008  53.529  0.00  0.00     0.021 C 
ENDROOT
BRANCH   4  17
ATOM     17  N   UNL d   1      51.017  34.213  52.557  0.00  0.00    -0.285 N 
ATOM     18  C   UNL d   1      50.305  34.362  53.017  0.00  0.00     0.108 A 
ATOM     19  C   UNL d   1      49.577  34.530  52.616  0.00  0.00     0.142 A 
ATOM     20  O   UNL d   1      49.553  34.551  51.764  0.00  0.00    -0.300 OA
ATOM     21  C   UNL d   1      50.259  34.404  51.316  0.00  0.00     0.142 A 
ATOM     22  C   UNL d   1      50.987  34.236  51.717  0.00  0.00     0.108 A 
ENDBRANCH   4  17
TORSDOF 1
ENDMDL
MODEL 2
REMARK VINA RESULT:      -9.9      1.653      3.832
REMARK  1 active torsions:
REMARK  status: ('A' for Active; 'I' for Inactive)
REMARK    1  A    between atoms: N_11  and  C_4 
ROOT
ATOM      1  N   UNL d   1      52.621  32.106  53.407  0.00  0.00    -0.195 N 
ATOM      2  C   UNL d   1      52.696  32.931  53.358  0.00  0.00     0.168 A 
ATOM      3  C   UNL d   1      52.039  33.403  53.235  0.00  0.00     0.073 A 
ATOM      4  C   UNL d   1      53.288  31.651  53.530  0.00  0.00     0.153 A 
ATOM      5  N   UNL d   1      51.232  32.221  53.212  0.00  0.00    -0.143 NA
ATOM      6  C   UNL d   1      51.307  33.046  53.163  0.00  0.00     0.185 A 
ATOM      7  N   UNL d   1      53.437  33.278  53.432  0.00  0.00    -0.227 NA
ATOM      8  C   UNL d   1      52.113  34.219  53.186  0.00  0.00     0.007 A 
ATOM      9  N   UNL d   1      50.633  33.510  53.038  0.00  0.00    -0.225 NA
ATOM     10  C   UNL d   1      54.023  31.990  53.605  0.00  0.00     0.057 A 
ATOM     11  C   UNL d   1      51.457  34.691  53.063  0.00  0.00     0.019 A 
ATOM     12  C   UNL d   1      54.098  32.815  53.555  0.00  0.00     0.086 A 
ATOM     13  C   UNL d   1      50.708  34.335  52.988  0.00  0.00     0.083 A 
ATOM     14  C   UNL d   1      52.858  34.567  53.261  0.00  0.00     0.000 C 
ATOM     15  C   UNL d   1      54.870  33.173  53.633  0.00  0.00     0.021 C 
ATOM     16  C   UNL d   1      50.050  34.799  52.866  0.00  0.00     0.021 C 
ENDROOT
BRANCH   4  17
ATOM     17  N   UNL d   1      53.202  30.801  53.580  0.00  0.00    -0.285 N 
ATOM     18  C   UNL d   1      53.284  30.407  54.342  0.00  0.00     0.108 A 
ATOM     19  C   UNL d   1      53.198  29.566  54.387  0.00  0.00     0.142 A 
ATOM     20  O   UNL d   1      53.031  29.114  53.685  0.00  0.00    -0.300 OA
ATOM     21  C   UNL d   1      52.951  29.508  52.936  0.00  0.00     0.142 A 
ATOM     22  C   UNL d   1      53.037  30.349  52.891  0.00  0.00     0.108 A 
ENDBRANCH   4  17
TORSDOF 1
ENDMDL
MODEL 3
REMARK VINA RESULT:      -9.2      1.020      2.428
REMARK  1 active torsions:
REMARK  status: ('A' for Active; 'I' for Inactive)
REMARK    1  A    between atoms: N_11  and  C_4 
ROOT
ATOM      1  N   UNL d   1      52.430  33.449  53.468  0.00  0.00    -0.195 N 
ATOM      2  C   UNL d   1      53.053  32.970  53.735  0.00  0.00     0.168 A 
ATOM      3  C   UNL d   1      53.639  33.278  54.215  0.00  0.00     0.073 A 
ATOM      4  C   UNL d   1      51.854  33.123  52.989  0.00  0.00     0.153 A 
ATOM      5  N   UNL d   1      52.976  34.545  54.160  0.00  0.00    -0.143 NA
ATOM      6  C   UNL d   1      53.599  34.066  54.427  0.00  0.00     0.185 A 
ATOM      7  N   UNL d   1      53.083  32.179  53.515  0.00  0.00    -0.227 NA
ATOM      8  C   UNL d   1      54.256  32.804  54.479  0.00  0.00     0.007 A 
ATOM      9  N   UNL d   1      54.185  34.393  54.913  0.00  0.00    -0.225 NA
ATOM     10  C   UNL d   1      51.878  32.341  52.769  0.00  0.00     0.057 A 
ATOM     11  C   UNL d   1      54.841  33.112  54.959  0.00  0.00     0.019 A 
ATOM     12  C   UNL d   1      52.502  31.862  53.036  0.00  0.00     0.086 A 
ATOM     13  C   UNL d   1      54.808  33.914  55.180  0.00  0.00     0.083 A 
ATOM     14  C   UNL d   1      54.285  32.010  54.258  0.00  0.00     0.000 C 
ATOM     15  C   UNL d   1      52.529  31.040  52.806  0.00  0.00     0.021 C 
ATOM     16  C   UNL d   1      55.388  34.227  55.658  0.00  0.00     0.021 C 
ENDROOT
BRANCH   4  17
ATOM     17  N   UNL d   1      51.214  33.624  52.718  0.00  0.00    -0.285 N 
ATOM     18  C   UNL d   1      51.248  33.972  51.931  0.00  0.00     0.108 A 
ATOM     19  C   UNL d   1      50.614  34.467  51.667  0.00  0.00     0.142 A 
ATOM     20  O   UNL d   1      49.948  34.618  52.176  0.00  0.00    -0.300 OA
ATOM     21  C   UNL d   1      49.920  34.272  52.951  0.00  0.00     0.142 A 
ATOM     22  C   UNL d   1      50.554  33.777  53.216  0.00  0.00     0.108 A 
ENDBRANCH   4  17
TORSDOF 1
ENDMDL
MODEL 4
REMARK VINA RESULT:      -8.6      1.836      4.120
REMARK  1 active torsions:
REMARK  status: ('A' for Active; 'I' for Inactive)
REMARK    1  A    between atoms: N_11  and  C_4 
ROOT
ATOM      1  N   UNL d   1      53.133  33.322  53.880  0.00  0.00    -0.195 N 
ATOM      2  C   UNL d   1      52.503  32.969  53.470  0.00  0.00     0.168 A 
ATOM      3  C   UNL d   1      51.845  33.407  53.259  0.00  0.00     0.073 A 
ATOM      4  C   UNL d   1      53.782  32.868  54.082  0.00  0.00     0.153 A 
ATOM      5  N   UNL d   1      52.452  34.553  53.868  0.00  0.00    -0.143 NA
ATOM      6  C   UNL d   1      51.822  34.200  53.459  0.00  0.00     0.185 A 
ATOM      7  N   UNL d   1      52.539  32.172  53.275  0.00  0.00    -0.227 NA
ATOM      8  C   UNL d   1      51.222  33.058  52.854  0.00  0.00     0.007 A 
ATOM      9  N   UNL d   1      51.163  34.657  53.251  0.00  0.00    -0.225 NA
ATOM     10  C   UNL d   1      53.822  32.079  53.892  0.00  0.00     0.057 A 
ATOM     11  C   UNL d   1      50.565  33.496  52.643  0.00  0.00     0.019 A 
ATOM     12  C   UNL d   1      53.191  31.726  53.482  0.00  0.00     0.086 A 
ATOM     13  C   UNL d   1      50.532  34.304  52.842  0.00  0.00     0.083 A 
ATOM     14  C   UNL d   1      51.259  32.257  52.659  0.00  0.00     0.000 C 
ATOM     15  C   UNL d   1      53.232  30.897  53.281  0.00  0.00     0.021 C 
ATOM     16  C   UNL d   1      49.881  34.746  52.635  0.00  0.00     0.021 C 
ENDROOT
BRANCH   4  17
ATOM     17  N   UNL d   1      54.427  33.239  54.504  0.00  0.00    -0.285 N 
ATOM     18  C   UNL d   1      54.396  33.304  55.362  0.00  0.00     0.108 A 
ATOM     19  C   UNL d   1      55.037  33.672  55.776  0.00  0.00     0.142 A 
ATOM     20  O   UNL d   1      55.706  33.977  55.345  0.00  0.00    -0.300 OA
ATOM     21  C   UNL d   1      55.731  33.910  54.499  0.00  0.00     0.142 A 
ATOM     22  C   UNL d   1      55.090  33.542  54.085  0.00  0.00     0.108 A 
ENDBRANCH   4  17
TORSDOF 1
ENDMDL
MODEL 5
REMARK VINA RESULT:      -7.5      1.842      3.471
REMARK  1 active torsions:
REMARK  status: ('A' for Active; 'I' for Inactive)
REMARK    1  A    between atoms: N_11  and  C_4 
ROOT
ATOM      1  N   UNL d   1      53.072  32.130  53.699  0.00  0.00    -0.195 N 
ATOM      2  C   UNL d   1      53.098  32.954  53.794  0.00  0.00     0.168 A 
ATOM      3  C   UNL d   1      53.662  33.301  54.275  0.00  0.00     0.073 A 
ATOM      4  C   UNL d   1      52.502  31.802  53.214  0.00  0.00     0.153 A 
ATOM      5  N   UNL d   1      54.172  31.996  54.567  0.00  0.00    -0.143 NA
ATOM      6  C   UNL d   1      54.198  32.820  54.661  0.00  0.00     0.185 A 
ATOM      7  N   UNL d   1      52.554  33.428  53.400  0.00  0.00    -0.227 NA
ATOM      8  C   UNL d   1      53.688  34.117  54.369  0.00  0.00     0.007 A 
ATOM      9  N   UNL d   1      54.774  33.156  55.152  0.00  0.00    -0.225 NA
ATOM     10  C   UNL d   1      51.962  32.266  52.823  0.00  0.00     0.057 A 
ATOM     11  C   UNL d   1      54.250  34.463  54.850  0.00  0.00     0.019 A 
ATOM     12  C   UNL d   1      51.988  33.090  52.917  0.00  0.00     0.086 A 
ATOM     13  C   UNL d   1      54.800  33.980  55.247  0.00  0.00     0.083 A 
ATOM     14  C   UNL d   1      53.140  34.591  53.973  0.00  0.00     0.000 C 
ATOM     15  C   UNL d   1      51.421  33.579  52.507  0.00  0.00     0.021 C 
ATOM     16  C   UNL d   1      55.363  34.319  55.728  0.00  0.00     0.021 C 
ENDROOT
BRANCH   4  17
ATOM     17  N   UNL d   1      52.482  30.951  53.122  0.00  0.00    -0.285 N 
ATOM     18  C   UNL d   1      51.944  30.482  53.603  0.00  0.00     0.108 A 
ATOM     19  C   UNL d   1      51.927  29.641  53.510  0.00  0.00     0.142 A 
ATOM     20  O   UNL d   1      52.439  29.262  52.943  0.00  0.00    -0.300 OA
ATOM     21  C   UNL d   1      52.968  29.731  52.471  0.00  0.00     0.142 A 
ATOM     22  C   UNL d   1      52.985  30.572  52.565  0.00  0.00     0.108 A 
ENDBRANCH   4  17
TORSDOF 1
ENDMDL
MODEL 6
REMARK VINA RESULT:      -7.1      1.377      2.511
REMARK  1 active torsions:
REMARK  status: ('A' for Active; 'I' for Inactive)
REMARK    1  A    between atoms: N_11  and  C_4 
ROOT
ATOM      1  N   UNL d   1      52.837  33.501  53.683  0.00  0.00    -0.195 N 
ATOM      2  C   UNL d   1      52.517  32.835  53.306  0.00  0.00     0.168 A 
ATOM      3  C   UNL d   1      52.861  32.098  53.397  0.00  0.00     0.073 A 
ATOM      4  C   UNL d   1      52.479  34.228  53.579  0.00  0.00     0.153 A 
ATOM      5  N   UNL d   1      53.846  32.698  54.245  0.00  0.00    -0.143 NA
ATOM      6  C   UNL d   1      53.526  32.032  53.868  0.00  0.00     0.185 A 
ATOM      7  N   UNL d   1      51.848  32.914  52.835  0.00  0.00    -0.227 NA
ATOM      8  C   UNL d   1      52.545  31.439  53.024  0.00  0.00     0.007 A 
ATOM      9  N   UNL d   1      53.886  31.293  53.970  0.00  0.00    -0.225 NA
ATOM     10  C   UNL d   1      51.817  34.312  53.115  0.00  0.00     0.057 A 
ATOM     11  C   UNL d   1      52.888  30.703  53.115  0.00  0.00     0.019 A 
ATOM     12  C   UNL d   1      51.497  33.646  52.738  0.00  0.00     0.086 A 
ATOM     13  C   UNL d   1      53.566  30.626  53.593  0.00  0.00     0.083 A 
ATOM     14  C   UNL d   1      51.872  31.520  52.552  0.00  0.00     0.000 C 
ATOM     15  C   UNL d   1      50.802  33.731  52.250  0.00  0.00     0.021 C 
ATOM     16  C   UNL d   1      53.914  29.896  53.688  0.00  0.00     0.021 C 
ENDROOT
BRANCH   4  17
ATOM     17  N   UNL d   1      52.815  34.911  53.972  0.00  0.00    -0.285 N 
ATOM     18  C   UNL d   1      52.530  35.139  54.752  0.00  0.00     0.108 A 
ATOM     19  C   UNL d   1      52.865  35.815  55.137  0.00  0.00     0.142 A 
ATOM     20  O   UNL d   1      53.480  36.264  54.755  0.00  0.00    -0.300 OA
ATOM     21  C   UNL d   1      53.758  36.034  53.986  0.00  0.00     0.142 A 
ATOM     22  C   UNL d   1      53.423  35.358  53.601  0.00  0.00     0.108 A 
ENDBRANCH   4  17
TORSDOF 1
ENDMDL
