MODEL 1
REMARK VINA RESULT:      -9.6      0.000      0.000
REMARK  3 active torsions:
REMARK  status: ('A' for Active; 'I' for Inactive)
REMARK    1  A    between atoms: C_9  and  C_1 
REMARK    2  A    between atoms: C_11  and  C_2 
REMARK    3  A    between atoms: C_3  and  C_9 
ROOT
ATOM      1  C   UNL d   1      53.323  32.841  53.339  0.00  0.00     0.003 A 
ATOM      2  C   UNL d   1      53.204  31.209  53.376  0.00  0.00    -0.023 A 
ATOM      3  C   UNL d   1      52.611  32.470  53.159  0.00  0.00    -0.000 A 
ATOM      4  C   UNL d   1      53.970  32.391  53.536  0.00  0.00    -0.000 A 
ATOM      5  C   UNL d   1      53.916  31.576  53.556  0.00  0.00    -0.004 A 
ATOM      6  C   UNL d   1      52.558  31.659  53.179  0.00  0.00    -0.004 A 
ATOM      7  C   UNL d   1      54.690  32.761  53.718  0.00  0.00    -0.000 C 
ATOM      8  C   UNL d   1      51.948  32.922  52.958  0.00  0.00    -0.000 C 
ENDROOT
BRANCH   1   9
ATOM      9  C   UNL d   1      53.377  33.664  53.318  0.00  0.00     0.039 C 
BRANCH   9  10
ATOM     10  C   UNL d   1      53.221  34.272  53.857  0.00  0.00     0.163 A 
ATOM     11  N   UNL d   1      53.331  34.238  54.675  0.00  0.00    -0.224 NA
ATOM     12  C   UNL d   1      53.104  34.965  54.985  0.00  0.00     0.121 A 
ATOM     13  C   UNL d   1      52.852  35.455  54.372  0.00  0.00     0.121 A 
ATOM     14  N   UNL d   1      52.923  35.030  53.669  0.00  0.00    -0.224 NA
ENDBRANCH   9  10
ENDBRANCH   1   9
BRANCH   2  15
ATOM     15  C   UNL d   1      53.151  30.386  53.397  0.00  0.00     0.019 C 
ATOM     16  C   UNL d   1      53.097  29.563  53.418  0.00  0.00     0.004 C 
ATOM     17  C   UNL d   1      53.044  30.372  52.579  0.00  0.00     0.004 C 
ATOM     18  C   UNL d   1      53.257  30.399  54.215  0.00  0.00     0.004 C 
ENDBRANCH   2  15
TORSDOF 3
ENDMDL
MODEL 2
REMARK VINA RESULT:      -9.4      1.443      3.761
REMARK  3 active torsions:
REMARK  status: ('A' for Active; 'I' for Inactive)
REMARK    1  A    between atoms: C_9  and  C_1 
REMARK    2  A    between atoms: C_11  and  C_2 
REMARK    3  A    between atoms: C_3  and  C_9 
ROOT
ATOM      1  C   UNL d   1      53.204  32.508  53.243  0.00  0.00     0.003 A 
ATOM      2  C   UNL d   1      53.088  34.010  53.884  0.00  0.00    -0.023 A 
ATOM      3  C   UNL d   1      53.877  32.905  53.500  0.00  0.00    -0.000 A 
ATOM      4  C   UNL d   1      52.478  32.868  53.309  0.00  0.00    -0.000 A 
ATOM      5  C   UNL d   1      52.415  33.617  53.628  0.00  0.00    -0.004 A 
ATOM      6  C   UNL d   1      53.813  33.651  53.818  0.00  0.00    -0.004 A 
ATOM      7  C   UNL d   1      51.796  32.471  53.050  0.00  0.00    -0.000 C 
ATOM      8  C   UNL d   1      54.619  32.546  53.436  0.00  0.00    -0.000 C 
ENDROOT
BRANCH   1   9
ATOM      9  C   UNL d   1      53.268  31.752  52.920  0.00  0.00     0.039 C 
BRANCH   9  10
ATOM     10  C   UNL d   1      53.189  30.983  53.216  0.00  0.00     0.163 A 
ATOM     11  N   UNL d   1      53.543  30.686  53.900  0.00  0.00    -0.224 NA
ATOM     12  C   UNL d   1      53.310  29.901  53.978  0.00  0.00     0.121 A 
ATOM     13  C   UNL d   1      52.814  29.702  53.351  0.00  0.00     0.121 A 
ATOM     14  N   UNL d   1      52.735  30.370  52.875  0.00  0.00    -0.224 NA
ENDBRANCH   9  10
ENDBRANCH   1   9
BRANCH   2  15
ATOM     15  C   UNL d   1      53.024  34.767  54.207  0.00  0.00     0.019 C 
ATOM     16  C   UNL d   1      52.959  35.523  54.529  0.00  0.00     0.004 C 
ATOM     17  C   UNL d   1      53.241  34.470  54.945  0.00  0.00     0.004 C 
ATOM     18  C   UNL d   1      52.806  35.063  53.468  0.00  0.00     0.004 C 
ENDBRANCH   2  15
TORSDOF 3
ENDMDL
MODEL 3
REMARK VINA RESULT:      -9.4      1.487      3.053
REMARK  3 active torsions:
REMARK  status: ('A' for Active; 'I' for Inactive)
REMARK    1  A    between atoms: C_9  and  C_1 
REMARK    2  A    between atoms: C_11  and  C_2 
REMARK    3  A    between atoms: C_3  and  C_9 
ROOT
ATOM      1  C   UNL d   1      53.042  33.728  53.385  0.00  0.00     0.003 A 
ATOM      2  C   UNL d   1      51.531  34.023  52.828  0.00  0.00    -0.023 A 
ATOM      3  C   UNL d   1      52.722  34.485  53.427  0.00  0.00    -0.000 A 
ATOM      4  C   UNL d   1      52.601  33.125  53.064  0.00  0.00    -0.000 A 
ATOM      5  C   UNL d   1      51.847  33.267  52.784  0.00  0.00    -0.004 A 
ATOM      6  C   UNL d   1      51.971  34.626  53.149  0.00  0.00    -0.004 A 
ATOM      7  C   UNL d   1      52.920  32.360  53.020  0.00  0.00    -0.000 C 
ATOM      8  C   UNL d   1      53.164  35.103  53.753  0.00  0.00    -0.000 C 
ENDROOT
BRANCH   1   9
ATOM      9  C   UNL d   1      53.803  33.585  53.668  0.00  0.00     0.039 C 
BRANCH   9  10
ATOM     10  C   UNL d   1      54.131  33.441  54.414  0.00  0.00     0.163 A 
ATOM     11  N   UNL d   1      53.924  32.826  54.926  0.00  0.00    -0.224 NA
ATOM     12  C   UNL d   1      54.390  32.898  55.600  0.00  0.00     0.121 A 
ATOM     13  C   UNL d   1      54.887  33.551  55.517  0.00  0.00     0.121 A 
ATOM     14  N   UNL d   1      54.731  33.890  54.783  0.00  0.00    -0.224 NA
ENDBRANCH   9  10
ENDBRANCH   1   9
BRANCH   2  15
ATOM     15  C   UNL d   1      50.769  34.166  52.545  0.00  0.00     0.019 C 
ATOM     16  C   UNL d   1      50.007  34.309  52.263  0.00  0.00     0.004 C 
ATOM     17  C   UNL d   1      51.073  34.284  51.787  0.00  0.00     0.004 C 
ATOM     18  C   UNL d   1      50.466  34.048  53.303  0.00  0.00     0.004 C 
ENDBRANCH   2  15
TORSDOF 3
ENDMDL
MODEL 4
REMARK VINA RESULT:      -8.9      1.585      2.938
REMARK  3 active torsions:
REMARK  status: ('A' for Active; 'I' for Inactive)
REMARK    1  A    between atoms: C_9  and  C_1 
REMARK    2  A    between atoms: C_11  and  C_2 
REMARK    3  A    between atoms: C_3  and  C_9 
ROOT
ATOM      1  C   UNL d   1      52.901  33.774  53.318  0.00  0.00     0.003 A 
ATOM      2  C   UNL d   1      54.047  33.593  54.473  0.00  0.00    -0.023 A 
ATOM      3  C   UNL d   1      53.254  33.042  53.444  0.00  0.00    -0.000 A 
ATOM      4  C   UNL d   1      53.125  34.409  53.772  0.00  0.00    -0.000 A 
ATOM      5  C   UNL d   1      53.697  34.325  54.349  0.00  0.00    -0.004 A 
ATOM      6  C   UNL d   1      53.822  32.958  54.019  0.00  0.00    -0.004 A 
ATOM      7  C   UNL d   1      52.772  35.150  53.647  0.00  0.00    -0.000 C 
ATOM      8  C   UNL d   1      53.031  32.390  52.986  0.00  0.00    -0.000 C 
ENDROOT
BRANCH   1   9
ATOM      9  C   UNL d   1      52.324  33.860  52.734  0.00  0.00     0.039 C 
BRANCH   9  10
ATOM     10  C   UNL d   1      51.498  33.913  52.734  0.00  0.00     0.163 A 
ATOM     11  N   UNL d   1      50.986  33.547  53.270  0.00  0.00    -0.224 NA
ATOM     12  C   UNL d   1      50.219  33.754  53.060  0.00  0.00     0.121 A 
ATOM     13  C   UNL d   1      50.242  34.245  52.398  0.00  0.00     0.121 A 
ATOM     14  N   UNL d   1      51.034  34.347  52.192  0.00  0.00    -0.224 NA
ENDBRANCH   9  10
ENDBRANCH   1   9
BRANCH   2  15
ATOM     15  C   UNL d   1      54.624  33.507  55.056  0.00  0.00     0.019 C 
ATOM     16  C   UNL d   1      55.201  33.421  55.639  0.00  0.00     0.004 C 
ATOM     17  C   UNL d   1      54.069  33.153  55.553  0.00  0.00     0.004 C 
ATOM     18  C   UNL d   1      55.179  33.862  54.559  0.00  0.00     0.004 C 
ENDBRANCH   2  15
TORSDOF 3
ENDMDL
