MODEL 1
REMARK VINA RESULT:     100.0      0.000      0.000
REMARK  5 active torsions:
REMARK  status: ('A' for Active; 'I' for Inactive)
REMARK    1  A    between atoms: C_11  and  N_5 
REMARK    2  A    between atoms: C_15  and  C_8 
REMARK    3  A    between atoms: C_12  and  C_11 
REMARK    4  A    between atoms: O_20  and  C_15 
REMARK    5  A    between atoms: C_23  and  O_20 
ROOT
ATOM      1  C   UNL d   1     -48.986  28.250  34.365  0.00  0.00     0.130 A 
ATOM      2  C   UNL d   1     -49.488  28.799  34.017  0.00  0.00     0.157 A 
ATOM      3  C   UNL d   1     -48.280  28.500  34.718  0.00  0.00     0.272 A 
ATOM      4  N   UNL d   1     -49.290  29.596  34.020  0.00  0.00    -0.208 NA
ATOM      5  N   UNL d   1     -48.081  29.297  34.721  0.00  0.00    -0.254 N 
ATOM      6  C   UNL d   1     -49.183  27.446  34.364  0.00  0.00     0.204 A 
ATOM      7  N   UNL d   1     -50.198  28.548  33.662  0.00  0.00    -0.289 N 
ATOM      8  C   UNL d   1     -48.584  29.845  34.373  0.00  0.00     0.177 A 
ATOM      9  C   UNL d   1     -49.893  27.195  34.009  0.00  0.00     0.055 A 
ATOM     10  C   UNL d   1     -50.397  27.751  33.660  0.00  0.00     0.069 A 
ATOM     11  O   UNL d   1     -47.765  27.943  35.075  0.00  0.00    -0.266 OA
ATOM     12  O   UNL d   1     -48.676  26.894  34.715  0.00  0.00    -0.286 OA
ATOM     13  C   UNL d   1     -50.704  29.099  33.311  0.00  0.00     0.101 C 
ATOM     14  C   UNL d   1     -50.091  26.394  34.008  0.00  0.00     0.005 A 
ATOM     15  C   UNL d   1     -51.099  27.503  33.309  0.00  0.00     0.018 A 
ATOM     16  C   UNL d   1     -50.793  26.146  33.657  0.00  0.00     0.000 A 
ATOM     17  C   UNL d   1     -51.298  26.706  33.306  0.00  0.00     0.002 A 
ENDROOT
BRANCH   8  18
ATOM     18  C   UNL d   1     -48.380  30.656  34.376  0.00  0.00     0.160 C 
BRANCH  18  19
ATOM     19  O   UNL d   1     -48.618  31.143  33.754  0.00  0.00    -0.302 OA
BRANCH  19  20
ATOM     20  C   UNL d   1     -48.348  31.920  33.717  0.00  0.00     0.100 A 
ATOM     21  C   UNL d   1     -47.611  32.078  33.389  0.00  0.00     0.025 A 
ATOM     22  C   UNL d   1     -47.333  32.858  33.349  0.00  0.00     0.002 A 
ATOM     23  C   UNL d   1     -47.802  33.468  33.639  0.00  0.00     0.000 A 
ATOM     24  C   UNL d   1     -48.542  33.307  33.967  0.00  0.00     0.002 A 
ATOM     25  C   UNL d   1     -48.815  32.533  34.006  0.00  0.00     0.025 A 
ENDBRANCH  19  20
ENDBRANCH  18  19
ENDBRANCH   8  18
BRANCH   5  26
ATOM     26  C   UNL d   1     -47.380  29.545  35.072  0.00  0.00     0.109 C 
BRANCH  26  27
ATOM     27  C   UNL d   1     -47.360  29.720  35.874  0.00  0.00     0.118 A 
ATOM     28  O   UNL d   1     -47.884  29.559  36.490  0.00  0.00    -0.304 OA
ATOM     29  C   UNL d   1     -47.564  29.875  37.179  0.00  0.00     0.123 A 
ATOM     30  C   UNL d   1     -46.852  30.230  37.007  0.00  0.00     0.029 A 
ATOM     31  C   UNL d   1     -46.718  30.137  36.193  0.00  0.00     0.028 A 
ENDBRANCH  26  27
ENDBRANCH   5  26
TORSDOF 5
ENDMDL
