MODEL 1
REMARK VINA RESULT:      68.5      0.000      0.000
REMARK  4 active torsions:
REMARK  status: ('A' for Active; 'I' for Inactive)
REMARK       I    between atoms: C_3  and  N_1 
REMARK    1  A    between atoms: C_5  and  N_2 
REMARK    2  A    between atoms: C_4  and  C_3 
REMARK    3  A    between atoms: C_7  and  C_4 
REMARK    4  A    between atoms: C_13  and  C_7 
ROOT
ATOM      1  N   UNL d   1      60.102  48.715  50.810  0.00  0.00    -0.269 N 
ATOM      2  N   UNL d   1      58.498  49.120  50.752  0.00  0.00    -0.301 N 
ATOM      3  C   UNL d   1      60.899  48.524  50.841  0.00  0.00     0.265 C 
ATOM      4  C   UNL d   1      59.861  49.506  50.935  0.00  0.00     0.102 A 
ATOM      5  C   UNL d   1      59.533  48.139  50.658  0.00  0.00     0.102 A 
ATOM      6  C   UNL d   1      59.059  49.707  50.906  0.00  0.00     0.100 A 
ATOM      7  C   UNL d   1      58.732  48.334  50.628  0.00  0.00     0.100 A 
ATOM      8  O   UNL d   1      61.463  49.097  50.992  0.00  0.00    -0.267 OA
ENDROOT
BRANCH   3   9
ATOM      9  C   UNL d   1      61.139  47.740  50.717  0.00  0.00     0.061 C 
BRANCH   9  10
ATOM     10  C   UNL d   1      61.792  47.575  50.238  0.00  0.00     0.005 C 
BRANCH  10  11
ATOM     11  C   UNL d   1      61.867  46.836  49.888  0.00  0.00     0.000 A 
ATOM     12  C   UNL d   1      61.253  46.546  49.426  0.00  0.00     0.002 A 
ATOM     13  C   UNL d   1      61.322  45.805  49.071  0.00  0.00     0.030 A 
ATOM     14  C   UNL d   1      62.013  45.359  49.185  0.00  0.00     0.140 A 
ATOM     15  C   UNL d   1      62.618  45.659  49.648  0.00  0.00     0.030 A 
ATOM     16  F   UNL d   1      62.081  44.618  48.830  0.00  0.00    -0.204 F 
ATOM     17  C   UNL d   1      62.544  46.397  49.998  0.00  0.00     0.002 A 
ENDBRANCH  10  11
ENDBRANCH   9  10
ENDBRANCH   3   9
BRANCH   2  18
ATOM     18  C   UNL d   1      57.695  49.316  50.722  0.00  0.00     0.065 A 
ATOM     19  C   UNL d   1      57.301  49.325  49.995  0.00  0.00     0.029 A 
ATOM     20  C   UNL d   1      56.501  49.520  49.961  0.00  0.00     0.059 A 
ATOM     21 CL   UNL d   1      56.108  49.529  49.234  0.00  0.00    -0.082 Cl
ATOM     22  C   UNL d   1      56.090  49.708  50.654  0.00  0.00     0.011 A 
ATOM     23  C   UNL d   1      56.491  49.697  51.381  0.00  0.00     0.002 A 
ATOM     24  C   UNL d   1      57.295  49.501  51.415  0.00  0.00     0.018 A 
ENDBRANCH   2  18
TORSDOF 4
ENDMDL
