MODEL 1
REMARK VINA RESULT:      -7.1      0.000      0.000
REMARK  5 active torsions:
REMARK  status: ('A' for Active; 'I' for Inactive)
REMARK    1  A    between atoms: O_8  and  C_1 
REMARK    2  A    between atoms: C_10  and  C_5 
REMARK    3  A    between atoms: C_12  and  O_8 
REMARK    4  A    between atoms: N_9  and  C_10 
REMARK    5  A    between atoms: O_24  and  C_17 
ROOT
ATOM      1  C   UNL d   1      51.056  33.866  53.140  0.00  0.00     0.161 A 
ATOM      2  C   UNL d   1      52.419  32.916  53.176  0.00  0.00     0.108 A 
ATOM      3  C   UNL d   1      51.661  32.562  53.202  0.00  0.00     0.064 A 
ATOM      4  C   UNL d   1      50.987  33.032  53.184  0.00  0.00     0.222 A 
ATOM      5  C   UNL d   1      53.101  32.442  53.194  0.00  0.00     0.079 A 
ATOM      6  O   UNL d   1      52.497  33.742  53.131  0.00  0.00    -0.305 OA
ATOM      7  C   UNL d   1      51.807  34.217  53.114  0.00  0.00     0.126 A 
ATOM      8  C   UNL d   1      51.602  31.734  53.246  0.00  0.00     0.009 A 
ATOM      9  C   UNL d   1      53.025  31.620  53.238  0.00  0.00     0.199 A 
ATOM     10  O   UNL d   1      50.238  32.686  53.210  0.00  0.00    -0.284 OA
ATOM     11  C   UNL d   1      52.280  31.267  53.264  0.00  0.00     0.042 A 
ATOM     12  O   UNL d   1      53.704  31.153  53.255  0.00  0.00    -0.286 OA
ATOM     13  C   UNL d   1      51.875  35.035  53.070  0.00  0.00     0.029 C 
ENDROOT
BRANCH   1  14
ATOM     14  O   UNL d   1      50.378  34.332  53.122  0.00  0.00    -0.300 OA
BRANCH  14  15
ATOM     15  C   UNL d   1      49.976  34.446  52.412  0.00  0.00     0.122 A 
ATOM     16  C   UNL d   1      49.266  34.870  52.411  0.00  0.00     0.117 A 
ATOM     17  C   UNL d   1      48.863  34.985  51.705  0.00  0.00     0.026 A 
ATOM     18  C   UNL d   1      49.163  34.681  50.999  0.00  0.00     0.002 A 
ATOM     19  C   UNL d   1      49.879  34.255  51.007  0.00  0.00     0.002 A 
ATOM     20  C   UNL d   1      50.279  34.142  51.717  0.00  0.00     0.027 A 
BRANCH  16  21
ATOM     21  O   UNL d   1      48.966  35.172  53.108  0.00  0.00    -0.326 OA
ATOM     22  C   UNL d   1      48.310  35.676  53.096  0.00  0.00     0.181 C 
ENDBRANCH  16  21
ENDBRANCH  14  15
ENDBRANCH   1  14
BRANCH   5  23
ATOM     23  C   UNL d   1      53.834  32.789  53.168  0.00  0.00     0.086 C 
BRANCH  23  24
ATOM     24  N   UNL d   1      54.210  33.014  53.870  0.00  0.00    -0.300 N 
ATOM     25  C   UNL d   1      54.782  33.608  53.855  0.00  0.00     0.100 A 
ATOM     26  C   UNL d   1      55.156  33.832  54.553  0.00  0.00     0.100 A 
ATOM     27  N   UNL d   1      54.959  33.463  55.265  0.00  0.00    -0.299 N 
ATOM     28  C   UNL d   1      54.386  32.869  55.276  0.00  0.00     0.100 A 
ATOM     29  C   UNL d   1      55.333  33.687  55.964  0.00  0.00     0.100 C 
ATOM     30  C   UNL d   1      54.011  32.644  54.575  0.00  0.00     0.100 A 
ENDBRANCH  23  24
ENDBRANCH   5  23
TORSDOF 5
ENDMDL
MODEL 2
REMARK VINA RESULT:      -6.1      1.251      2.178
REMARK  5 active torsions:
REMARK  status: ('A' for Active; 'I' for Inactive)
REMARK    1  A    between atoms: O_8  and  C_1 
REMARK    2  A    between atoms: C_10  and  C_5 
REMARK    3  A    between atoms: C_12  and  O_8 
REMARK    4  A    between atoms: N_9  and  C_10 
REMARK    5  A    between atoms: O_24  and  C_17 
ROOT
ATOM      1  C   UNL d   1      51.083  33.683  53.287  0.00  0.00     0.161 A 
ATOM      2  C   UNL d   1      52.530  32.880  53.145  0.00  0.00     0.108 A 
ATOM      3  C   UNL d   1      52.514  33.667  53.429  0.00  0.00     0.064 A 
ATOM      4  C   UNL d   1      51.799  34.064  53.499  0.00  0.00     0.222 A 
ATOM      5  C   UNL d   1      53.254  32.477  53.073  0.00  0.00     0.079 A 
ATOM      6  O   UNL d   1      51.827  32.494  52.932  0.00  0.00    -0.305 OA
ATOM      7  C   UNL d   1      51.099  32.903  53.006  0.00  0.00     0.126 A 
ATOM      8  C   UNL d   1      53.230  34.036  53.637  0.00  0.00     0.009 A 
ATOM      9  C   UNL d   1      53.956  32.859  53.284  0.00  0.00     0.199 A 
ATOM     10  O   UNL d   1      51.779  34.840  53.779  0.00  0.00    -0.284 OA
ATOM     11  C   UNL d   1      53.944  33.635  53.565  0.00  0.00     0.042 A 
ATOM     12  O   UNL d   1      54.672  32.457  53.212  0.00  0.00    -0.286 OA
ATOM     13  C   UNL d   1      50.396  32.529  52.797  0.00  0.00     0.029 C 
ENDROOT
BRANCH   1  14
ATOM     14  O   UNL d   1      50.369  34.084  53.360  0.00  0.00    -0.300 OA
BRANCH  14  15
ATOM     15  C   UNL d   1      49.994  34.379  52.688  0.00  0.00     0.122 A 
ATOM     16  C   UNL d   1      49.373  34.919  52.774  0.00  0.00     0.117 A 
ATOM     17  C   UNL d   1      48.997  35.215  52.106  0.00  0.00     0.026 A 
ATOM     18  C   UNL d   1      49.236  34.977  51.353  0.00  0.00     0.002 A 
ATOM     19  C   UNL d   1      49.862  34.433  51.274  0.00  0.00     0.002 A 
ATOM     20  C   UNL d   1      50.236  34.139  51.946  0.00  0.00     0.027 A 
BRANCH  16  21
ATOM     21  O   UNL d   1      49.134  35.157  53.518  0.00  0.00    -0.326 OA
ATOM     22  C   UNL d   1      48.526  35.711  53.603  0.00  0.00     0.181 C 
ENDBRANCH  16  21
ENDBRANCH  14  15
ENDBRANCH   1  14
BRANCH   5  23
ATOM     23  C   UNL d   1      53.265  31.714  52.797  0.00  0.00     0.086 C 
BRANCH  23  24
ATOM     24  N   UNL d   1      53.265  31.081  53.331  0.00  0.00    -0.300 N 
ATOM     25  C   UNL d   1      52.937  30.359  53.106  0.00  0.00     0.100 A 
ATOM     26  C   UNL d   1      52.937  29.729  53.636  0.00  0.00     0.100 A 
ATOM     27  N   UNL d   1      53.263  29.822  54.389  0.00  0.00    -0.299 N 
ATOM     28  C   UNL d   1      53.590  30.546  54.610  0.00  0.00     0.100 A 
ATOM     29  C   UNL d   1      53.263  29.192  54.920  0.00  0.00     0.100 C 
ATOM     30  C   UNL d   1      53.590  31.178  54.077  0.00  0.00     0.100 A 
ENDBRANCH  23  24
ENDBRANCH   5  23
TORSDOF 5
ENDMDL
MODEL 3
REMARK VINA RESULT:      -5.9      1.753      4.783
REMARK  5 active torsions:
REMARK  status: ('A' for Active; 'I' for Inactive)
REMARK    1  A    between atoms: O_8  and  C_1 
REMARK    2  A    between atoms: C_10  and  C_5 
REMARK    3  A    between atoms: C_12  and  O_8 
REMARK    4  A    between atoms: N_9  and  C_10 
REMARK    5  A    between atoms: O_24  and  C_17 
ROOT
ATOM      1  C   UNL d   1      53.544  31.738  53.672  0.00  0.00     0.161 A 
ATOM      2  C   UNL d   1      53.161  33.353  53.625  0.00  0.00     0.108 A 
ATOM      3  C   UNL d   1      53.462  33.014  54.328  0.00  0.00     0.064 A 
ATOM      4  C   UNL d   1      53.651  32.215  54.352  0.00  0.00     0.222 A 
ATOM      5  C   UNL d   1      52.969  34.162  53.600  0.00  0.00     0.079 A 
ATOM      6  O   UNL d   1      53.051  32.888  52.946  0.00  0.00    -0.305 OA
ATOM      7  C   UNL d   1      53.246  32.074  52.974  0.00  0.00     0.126 A 
ATOM      8  C   UNL d   1      53.565  33.497  54.998  0.00  0.00     0.009 A 
ATOM      9  C   UNL d   1      53.078  34.628  54.275  0.00  0.00     0.199 A 
ATOM     10  O   UNL d   1      53.948  31.878  55.044  0.00  0.00    -0.284 OA
ATOM     11  C   UNL d   1      53.374  34.297  54.971  0.00  0.00     0.042 A 
ATOM     12  O   UNL d   1      52.887  35.429  54.248  0.00  0.00    -0.286 OA
ATOM     13  C   UNL d   1      53.140  31.604  52.307  0.00  0.00     0.029 C 
ENDROOT
BRANCH   1  14
ATOM     14  O   UNL d   1      53.734  30.938  53.699  0.00  0.00    -0.300 OA
BRANCH  14  15
ATOM     15  C   UNL d   1      53.136  30.375  53.756  0.00  0.00     0.122 A 
ATOM     16  C   UNL d   1      53.325  29.603  53.986  0.00  0.00     0.117 A 
ATOM     17  C   UNL d   1      52.730  29.039  54.043  0.00  0.00     0.026 A 
ATOM     18  C   UNL d   1      51.948  29.239  53.872  0.00  0.00     0.002 A 
ATOM     19  C   UNL d   1      51.765  30.018  53.641  0.00  0.00     0.002 A 
ATOM     20  C   UNL d   1      52.364  30.580  53.585  0.00  0.00     0.027 A 
BRANCH  16  21
ATOM     21  O   UNL d   1      54.098  29.402  54.156  0.00  0.00    -0.326 OA
ATOM     22  C   UNL d   1      54.280  28.646  54.438  0.00  0.00     0.181 C 
ENDBRANCH  16  21
ENDBRANCH  14  15
ENDBRANCH   1  14
BRANCH   5  23
ATOM     23  C   UNL d   1      52.678  34.487  52.916  0.00  0.00     0.086 C 
BRANCH  23  24
ATOM     24  N   UNL d   1      51.862  34.494  52.777  0.00  0.00    -0.300 N 
ATOM     25  C   UNL d   1      51.576  34.325  52.022  0.00  0.00     0.100 A 
ATOM     26  C   UNL d   1      50.765  34.332  51.882  0.00  0.00     0.100 A 
ATOM     27  N   UNL d   1      50.241  34.507  52.496  0.00  0.00    -0.299 N 
ATOM     28  C   UNL d   1      50.531  34.676  53.250  0.00  0.00     0.100 A 
ATOM     29  C   UNL d   1      49.429  34.514  52.356  0.00  0.00     0.100 C 
ATOM     30  C   UNL d   1      51.346  34.668  53.389  0.00  0.00     0.100 A 
ENDBRANCH  23  24
ENDBRANCH   5  23
TORSDOF 5
ENDMDL
MODEL 4
REMARK VINA RESULT:      -5.5      1.302      2.346
REMARK  5 active torsions:
REMARK  status: ('A' for Active; 'I' for Inactive)
REMARK    1  A    between atoms: O_8  and  C_1 
REMARK    2  A    between atoms: C_10  and  C_5 
REMARK    3  A    between atoms: C_12  and  O_8 
REMARK    4  A    between atoms: N_9  and  C_10 
REMARK    5  A    between atoms: O_24  and  C_17 
ROOT
ATOM      1  C   UNL d   1      51.090  33.966  52.625  0.00  0.00     0.161 A 
ATOM      2  C   UNL d   1      52.378  33.610  53.612  0.00  0.00     0.108 A 
ATOM      3  C   UNL d   1      52.365  34.328  53.183  0.00  0.00     0.064 A 
ATOM      4  C   UNL d   1      51.728  34.504  52.694  0.00  0.00     0.222 A 
ATOM      5  C   UNL d   1      53.022  33.432  54.106  0.00  0.00     0.079 A 
ATOM      6  O   UNL d   1      51.751  33.070  53.550  0.00  0.00    -0.305 OA
ATOM      7  C   UNL d   1      51.103  33.253  53.051  0.00  0.00     0.126 A 
ATOM      8  C   UNL d   1      53.003  34.857  53.258  0.00  0.00     0.009 A 
ATOM      9  C   UNL d   1      53.648  33.968  54.170  0.00  0.00     0.199 A 
ATOM     10  O   UNL d   1      51.712  35.211  52.269  0.00  0.00    -0.284 OA
ATOM     11  C   UNL d   1      53.639  34.677  53.748  0.00  0.00     0.042 A 
ATOM     12  O   UNL d   1      54.285  33.788  54.661  0.00  0.00    -0.286 OA
ATOM     13  C   UNL d   1      50.476  32.725  52.982  0.00  0.00     0.029 C 
ENDROOT
BRANCH   1  14
ATOM     14  O   UNL d   1      50.454  34.145  52.135  0.00  0.00    -0.300 OA
BRANCH  14  15
ATOM     15  C   UNL d   1      49.828  34.596  52.422  0.00  0.00     0.122 A 
ATOM     16  C   UNL d   1      49.186  34.761  51.929  0.00  0.00     0.117 A 
ATOM     17  C   UNL d   1      48.560  35.211  52.213  0.00  0.00     0.026 A 
ATOM     18  C   UNL d   1      48.570  35.497  52.987  0.00  0.00     0.002 A 
ATOM     19  C   UNL d   1      49.220  35.327  53.479  0.00  0.00     0.002 A 
ATOM     20  C   UNL d   1      49.845  34.876  53.190  0.00  0.00     0.027 A 
BRANCH  16  21
ATOM     21  O   UNL d   1      49.172  34.479  51.162  0.00  0.00    -0.326 OA
ATOM     22  C   UNL d   1      48.523  34.630  50.673  0.00  0.00     0.181 C 
ENDBRANCH  16  21
ENDBRANCH  14  15
ENDBRANCH   1  14
BRANCH   5  23
ATOM     23  C   UNL d   1      53.031  32.734  54.522  0.00  0.00     0.086 C 
BRANCH  23  24
ATOM     24  N   UNL d   1      53.368  32.058  54.185  0.00  0.00    -0.300 N 
ATOM     25  C   UNL d   1      53.006  31.325  54.294  0.00  0.00     0.100 A 
ATOM     26  C   UNL d   1      53.342  30.651  53.960  0.00  0.00     0.100 A 
ATOM     27  N   UNL d   1      54.037  30.710  53.518  0.00  0.00    -0.299 N 
ATOM     28  C   UNL d   1      54.395  31.446  53.412  0.00  0.00     0.100 A 
ATOM     29  C   UNL d   1      54.372  30.036  53.184  0.00  0.00     0.100 C 
ATOM     30  C   UNL d   1      54.058  32.122  53.747  0.00  0.00     0.100 A 
ENDBRANCH  23  24
ENDBRANCH   5  23
TORSDOF 5
ENDMDL
MODEL 5
REMARK VINA RESULT:      -5.1      2.503      5.711
REMARK  5 active torsions:
REMARK  status: ('A' for Active; 'I' for Inactive)
REMARK    1  A    between atoms: O_8  and  C_1 
REMARK    2  A    between atoms: C_10  and  C_5 
REMARK    3  A    between atoms: C_12  and  O_8 
REMARK    4  A    between atoms: N_9  and  C_10 
REMARK    5  A    between atoms: O_24  and  C_17 
ROOT
ATOM      1  C   UNL d   1      50.059  34.174  52.806  0.00  0.00     0.161 A 
ATOM      2  C   UNL d   1      48.833  35.259  52.523  0.00  0.00     0.108 A 
ATOM      3  C   UNL d   1      49.078  34.737  51.917  0.00  0.00     0.064 A 
ATOM      4  C   UNL d   1      49.685  34.200  52.057  0.00  0.00     0.222 A 
ATOM      5  C   UNL d   1      48.220  35.802  52.382  0.00  0.00     0.079 A 
ATOM      6  O   UNL d   1      49.198  35.241  53.268  0.00  0.00    -0.305 OA
ATOM      7  C   UNL d   1      49.816  34.693  53.407  0.00  0.00     0.126 A 
ATOM      8  C   UNL d   1      48.700  34.770  51.177  0.00  0.00     0.009 A 
ATOM      9  C   UNL d   1      47.854  35.822  51.641  0.00  0.00     0.199 A 
ATOM     10  O   UNL d   1      49.929  33.684  51.462  0.00  0.00    -0.284 OA
ATOM     11  C   UNL d   1      48.093  35.308  51.041  0.00  0.00     0.042 A 
ATOM     12  O   UNL d   1      47.246  36.361  51.505  0.00  0.00    -0.286 OA
ATOM     13  C   UNL d   1      50.184  34.667  54.142  0.00  0.00     0.029 C 
ENDROOT
BRANCH   1  14
ATOM     14  O   UNL d   1      50.666  33.636  52.942  0.00  0.00    -0.300 OA
BRANCH  14  15
ATOM     15  C   UNL d   1      51.451  33.880  52.889  0.00  0.00     0.122 A 
ATOM     16  C   UNL d   1      52.055  33.318  52.944  0.00  0.00     0.117 A 
ATOM     17  C   UNL d   1      52.839  33.558  52.892  0.00  0.00     0.026 A 
ATOM     18  C   UNL d   1      53.025  34.355  52.785  0.00  0.00     0.002 A 
ATOM     19  C   UNL d   1      52.411  34.915  52.731  0.00  0.00     0.002 A 
ATOM     20  C   UNL d   1      51.627  34.670  52.783  0.00  0.00     0.027 A 
BRANCH  16  21
ATOM     21  O   UNL d   1      51.875  32.528  53.049  0.00  0.00    -0.326 OA
ATOM     22  C   UNL d   1      52.475  31.959  53.047  0.00  0.00     0.181 C 
ENDBRANCH  16  21
ENDBRANCH  14  15
ENDBRANCH   1  14
BRANCH   5  23
ATOM     23  C   UNL d   1      47.984  36.307  52.973  0.00  0.00     0.086 C 
BRANCH  23  24
ATOM     24  N   UNL d   1      47.304  36.140  53.412  0.00  0.00    -0.300 N 
ATOM     25  C   UNL d   1      47.340  36.144  54.237  0.00  0.00     0.100 A 
ATOM     26  C   UNL d   1      46.663  35.978  54.675  0.00  0.00     0.100 A 
ATOM     27  N   UNL d   1      45.952  35.808  54.290  0.00  0.00    -0.299 N 
ATOM     28  C   UNL d   1      45.921  35.805  53.466  0.00  0.00     0.100 A 
ATOM     29  C   UNL d   1      45.275  35.642  54.729  0.00  0.00     0.100 C 
ATOM     30  C   UNL d   1      46.600  35.972  53.026  0.00  0.00     0.100 A 
ENDBRANCH  23  24
ENDBRANCH   5  23
TORSDOF 5
ENDMDL
MODEL 6
REMARK VINA RESULT:      -5.0      1.984      5.152
REMARK  5 active torsions:
REMARK  status: ('A' for Active; 'I' for Inactive)
REMARK    1  A    between atoms: O_8  and  C_1 
REMARK    2  A    between atoms: C_10  and  C_5 
REMARK    3  A    between atoms: C_12  and  O_8 
REMARK    4  A    between atoms: N_9  and  C_10 
REMARK    5  A    between atoms: O_24  and  C_17 
ROOT
ATOM      1  C   UNL d   1      51.987  33.877  53.367  0.00  0.00     0.161 A 
ATOM      2  C   UNL d   1      50.632  34.127  52.440  0.00  0.00     0.108 A 
ATOM      3  C   UNL d   1      51.392  34.240  52.109  0.00  0.00     0.064 A 
ATOM      4  C   UNL d   1      52.063  34.117  52.568  0.00  0.00     0.222 A 
ATOM      5  C   UNL d   1      49.953  34.252  51.976  0.00  0.00     0.079 A 
ATOM      6  O   UNL d   1      50.547  33.890  53.231  0.00  0.00    -0.305 OA
ATOM      7  C   UNL d   1      51.233  33.765  53.695  0.00  0.00     0.126 A 
ATOM      8  C   UNL d   1      51.457  34.478  51.315  0.00  0.00     0.009 A 
ATOM      9  C   UNL d   1      50.035  34.488  51.188  0.00  0.00     0.199 A 
ATOM     10  O   UNL d   1      52.814  34.227  52.245  0.00  0.00    -0.284 OA
ATOM     11  C   UNL d   1      50.783  34.600  50.858  0.00  0.00     0.042 A 
ATOM     12  O   UNL d   1      49.360  34.610  50.731  0.00  0.00    -0.286 OA
ATOM     13  C   UNL d   1      51.159  33.530  54.480  0.00  0.00     0.029 C 
ENDROOT
BRANCH   1  14
ATOM     14  O   UNL d   1      52.661  33.755  53.823  0.00  0.00    -0.300 OA
BRANCH  14  15
ATOM     15  C   UNL d   1      53.062  33.037  53.779  0.00  0.00     0.122 A 
ATOM     16  C   UNL d   1      53.778  32.946  54.182  0.00  0.00     0.117 A 
ATOM     17  C   UNL d   1      54.181  32.231  54.140  0.00  0.00     0.026 A 
ATOM     18  C   UNL d   1      53.874  31.606  53.697  0.00  0.00     0.002 A 
ATOM     19  C   UNL d   1      53.152  31.704  53.293  0.00  0.00     0.002 A 
ATOM     20  C   UNL d   1      52.752  32.422  53.339  0.00  0.00     0.027 A 
BRANCH  16  21
ATOM     21  O   UNL d   1      54.084  33.563  54.621  0.00  0.00    -0.326 OA
ATOM     22  C   UNL d   1      54.805  33.476  55.018  0.00  0.00     0.181 C 
ENDBRANCH  16  21
ENDBRANCH  14  15
ENDBRANCH   1  14
BRANCH   5  23
ATOM     23  C   UNL d   1      49.217  34.141  52.300  0.00  0.00     0.086 C 
BRANCH  23  24
ATOM     24  N   UNL d   1      48.707  34.785  52.397  0.00  0.00    -0.300 N 
ATOM     25  C   UNL d   1      48.151  34.956  51.812  0.00  0.00     0.100 A 
ATOM     26  C   UNL d   1      47.643  35.597  51.907  0.00  0.00     0.100 A 
ATOM     27  N   UNL d   1      47.691  36.066  52.585  0.00  0.00    -0.299 N 
ATOM     28  C   UNL d   1      48.249  35.891  53.168  0.00  0.00     0.100 A 
ATOM     29  C   UNL d   1      47.183  36.707  52.681  0.00  0.00     0.100 C 
ATOM     30  C   UNL d   1      48.758  35.248  53.072  0.00  0.00     0.100 A 
ENDBRANCH  23  24
ENDBRANCH   5  23
TORSDOF 5
ENDMDL
