MODEL 1
REMARK VINA RESULT:      -3.5      0.000      0.000
REMARK  6 active torsions:
REMARK  status: ('A' for Active; 'I' for Inactive)
REMARK    1  A    between atoms: C_2  and  C_1 
REMARK    2  A    between atoms: N_13  and  C_8 
REMARK    3  A    between atoms: C_12  and  C_20 
REMARK    4  A    between atoms: C_20  and  N_13 
REMARK    5  A    between atoms: O_21  and  C_16 
REMARK    6  A    between atoms: C_25  and  O_21 
ROOT
ATOM      1  C   UNL d   1      57.375  -0.259  31.519  0.00  0.00     0.089 A 
ATOM      2  C   UNL d   1      57.685   0.257  32.082  0.00  0.00     0.302 A 
ATOM      3  O   UNL d   1      57.296   0.363  32.811  0.00  0.00    -0.271 OA
ATOM      4  C   UNL d   1      56.674  -0.671  31.683  0.00  0.00     0.009 A 
ATOM      5  C   UNL d   1      56.599  -0.052  32.964  0.00  0.00     0.126 A 
ATOM      6  C   UNL d   1      56.289  -0.567  32.401  0.00  0.00     0.025 A 
ATOM      7  O   UNL d   1      58.393   0.681  31.933  0.00  0.00    -0.259 OA
ATOM      8  C   UNL d   1      56.215   0.056  33.688  0.00  0.00     0.123 A 
ATOM      9  C   UNL d   1      55.593  -0.978  32.560  0.00  0.00     0.002 A 
ATOM     10  C   UNL d   1      55.204  -0.871  33.289  0.00  0.00     0.002 A 
ATOM     11  C   UNL d   1      55.512  -0.360  33.847  0.00  0.00     0.027 A 
ENDROOT
BRANCH   1  12
ATOM     12  C   UNL d   1      57.760  -0.363  30.801  0.00  0.00     0.140 A 
ATOM     13  S   UNL d   1      58.349  -0.922  30.603  0.00  0.00    -0.026 SA
ATOM     14  C   UNL d   1      58.560  -0.803  29.814  0.00  0.00     0.216 A 
ATOM     15  N   UNL d   1      58.100  -0.172  29.528  0.00  0.00    -0.121 NA
ATOM     16  N   UNL d   1      57.609   0.098  30.135  0.00  0.00    -0.139 NA
BRANCH  14  17
ATOM     17  N   UNL d   1      59.120  -1.227  29.383  0.00  0.00    -0.216 NA
BRANCH  17  18
ATOM     18  C   UNL d   1      58.988  -2.028  29.209  0.00  0.00     0.126 C 
BRANCH  18  19
ATOM     19  C   UNL d   1      59.626  -2.533  29.072  0.00  0.00     0.119 A 
ATOM     20  O   UNL d   1      60.357  -2.619  29.439  0.00  0.00    -0.304 OA
ATOM     21  C   UNL d   1      60.768  -3.219  29.058  0.00  0.00     0.123 A 
ATOM     22  C   UNL d   1      60.299  -3.510  28.455  0.00  0.00     0.029 A 
ATOM     23  C   UNL d   1      59.586  -3.087  28.458  0.00  0.00     0.028 A 
ENDBRANCH  18  19
ENDBRANCH  17  18
ENDBRANCH  14  17
ENDBRANCH   1  12
BRANCH   8  24
ATOM     24  O   UNL d   1      56.532   0.574  34.246  0.00  0.00    -0.303 OA
BRANCH  24  25
ATOM     25  C   UNL d   1      56.378   0.445  35.052  0.00  0.00     0.123 C 
ATOM     26  C   UNL d   1      56.935   0.682  35.614  0.00  0.00     0.029 C 
ENDBRANCH  24  25
ENDBRANCH   8  24
TORSDOF 6
ENDMDL
