MODEL 1
REMARK VINA RESULT:      -7.3      0.000      0.000
REMARK  3 active torsions:
REMARK  status: ('A' for Active; 'I' for Inactive)
REMARK    1  A    between atoms: N_2  and  S_1 
REMARK    2  A    between atoms: N_3  and  S_1 
REMARK    3  A    between atoms: C_6  and  N_3 
ROOT
ATOM      1  S   UNL d   1     -48.185  13.381  22.589  0.00  0.00     0.351 S 
ATOM      2  O   UNL d   1     -47.692  13.951  22.922  0.00  0.00    -0.180 OA
ATOM      3  O   UNL d   1     -48.677  12.811  22.257  0.00  0.00    -0.180 OA
ENDROOT
BRANCH   1   4
ATOM      4  N   UNL d   1     -47.775  12.791  22.992  0.00  0.00    -0.215 N 
ATOM      5  C   UNL d   1     -46.966  12.890  23.151  0.00  0.00     0.093 C 
ATOM      6  C   UNL d   1     -46.563  12.304  23.550  0.00  0.00     0.020 C 
ATOM      7  C   UNL d   1     -46.912  11.580  23.698  0.00  0.00     0.003 C 
ATOM      8  C   UNL d   1     -47.682  11.441  23.441  0.00  0.00     0.020 C 
ATOM      9  C   UNL d   1     -48.102  12.027  23.036  0.00  0.00     0.093 C 
ENDBRANCH   1   4
BRANCH   1  10
ATOM     10  N   UNL d   1     -48.636  13.919  22.159  0.00  0.00    -0.144 NA
BRANCH  10  11
ATOM     11  C   UNL d   1     -49.193  14.414  22.551  0.00  0.00     0.095 A 
ATOM     12  C   UNL d   1     -48.960  15.165  22.825  0.00  0.00     0.020 A 
ATOM     13  C   UNL d   1     -49.512  15.656  23.200  0.00  0.00     0.002 A 
ATOM     14  C   UNL d   1     -50.295  15.394  23.306  0.00  0.00     0.000 A 
ATOM     15  C   UNL d   1     -50.542  14.643  23.034  0.00  0.00     0.002 A 
ATOM     16  C   UNL d   1     -50.836  15.885  23.698  0.00  0.00     0.000 C 
ATOM     17  C   UNL d   1     -49.980  14.152  22.649  0.00  0.00     0.020 A 
ENDBRANCH  10  11
ENDBRANCH   1  10
TORSDOF 3
ENDMDL
MODEL 2
REMARK VINA RESULT:      -7.2      0.824      3.703
REMARK  3 active torsions:
REMARK  status: ('A' for Active; 'I' for Inactive)
REMARK    1  A    between atoms: N_2  and  S_1 
REMARK    2  A    between atoms: N_3  and  S_1 
REMARK    3  A    between atoms: C_6  and  N_3 
ROOT
ATOM      1  S   UNL d   1     -48.929  14.401  22.514  0.00  0.00     0.351 S 
ATOM      2  O   UNL d   1     -48.404  14.887  22.924  0.00  0.00    -0.180 OA
ATOM      3  O   UNL d   1     -49.453  13.916  22.105  0.00  0.00    -0.180 OA
ENDROOT
BRANCH   1   4
ATOM      4  N   UNL d   1     -49.563  14.782  22.875  0.00  0.00    -0.215 N 
ATOM      5  C   UNL d   1     -50.338  14.608  22.634  0.00  0.00     0.093 C 
ATOM      6  C   UNL d   1     -50.963  14.988  22.994  0.00  0.00     0.020 C 
ATOM      7  C   UNL d   1     -50.836  15.612  23.506  0.00  0.00     0.003 C 
ATOM      8  C   UNL d   1     -50.067  15.860  23.662  0.00  0.00     0.020 C 
ATOM      9  C   UNL d   1     -49.424  15.483  23.304  0.00  0.00     0.093 C 
ENDBRANCH   1   4
BRANCH   1  10
ATOM     10  N   UNL d   1     -48.341  13.979  22.119  0.00  0.00    -0.144 NA
BRANCH  10  11
ATOM     11  C   UNL d   1     -47.904  13.383  22.522  0.00  0.00     0.095 A 
ATOM     12  C   UNL d   1     -48.217  12.615  22.593  0.00  0.00     0.020 A 
ATOM     13  C   UNL d   1     -47.782  12.026  22.978  0.00  0.00     0.002 A 
ATOM     14  C   UNL d   1     -47.034  12.207  23.298  0.00  0.00     0.000 A 
ATOM     15  C   UNL d   1     -46.707  12.973  23.232  0.00  0.00     0.002 A 
ATOM     16  C   UNL d   1     -46.612  11.616  23.698  0.00  0.00     0.000 C 
ATOM     17  C   UNL d   1     -47.151  13.565  22.835  0.00  0.00     0.020 A 
ENDBRANCH  10  11
ENDBRANCH   1  10
TORSDOF 3
ENDMDL
MODEL 3
REMARK VINA RESULT:      -7.0      1.181      3.524
REMARK  3 active torsions:
REMARK  status: ('A' for Active; 'I' for Inactive)
REMARK    1  A    between atoms: N_2  and  S_1 
REMARK    2  A    between atoms: N_3  and  S_1 
REMARK    3  A    between atoms: C_6  and  N_3 
ROOT
ATOM      1  S   UNL d   1     -48.863  13.424  22.959  0.00  0.00     0.351 S 
ATOM      2  O   UNL d   1     -48.813  12.625  22.765  0.00  0.00    -0.180 OA
ATOM      3  O   UNL d   1     -48.912  14.222  23.153  0.00  0.00    -0.180 OA
ENDROOT
BRANCH   1   4
ATOM      4  N   UNL d   1     -49.525  13.500  22.476  0.00  0.00    -0.215 N 
ATOM      5  C   UNL d   1     -50.003  14.176  22.538  0.00  0.00     0.093 C 
ATOM      6  C   UNL d   1     -50.659  14.247  22.057  0.00  0.00     0.020 C 
ATOM      7  C   UNL d   1     -50.911  13.620  21.597  0.00  0.00     0.003 C 
ATOM      8  C   UNL d   1     -50.499  12.908  21.619  0.00  0.00     0.020 C 
ATOM      9  C   UNL d   1     -49.833  12.823  22.102  0.00  0.00     0.093 C 
ENDBRANCH   1   4
BRANCH   1  10
ATOM     10  N   UNL d   1     -48.207  13.417  23.458  0.00  0.00    -0.144 NA
BRANCH  10  11
ATOM     11  C   UNL d   1     -47.430  13.386  23.136  0.00  0.00     0.095 A 
ATOM     12  C   UNL d   1     -47.065  14.082  22.864  0.00  0.00     0.020 A 
ATOM     13  C   UNL d   1     -46.295  14.053  22.559  0.00  0.00     0.002 A 
ATOM     14  C   UNL d   1     -45.894  13.324  22.520  0.00  0.00     0.000 A 
ATOM     15  C   UNL d   1     -46.248  12.618  22.791  0.00  0.00     0.002 A 
ATOM     16  C   UNL d   1     -45.131  13.301  22.196  0.00  0.00     0.000 C 
ATOM     17  C   UNL d   1     -47.026  12.655  23.105  0.00  0.00     0.020 A 
ENDBRANCH  10  11
ENDBRANCH   1  10
TORSDOF 3
ENDMDL
MODEL 4
REMARK VINA RESULT:      -6.8      1.591      2.069
REMARK  3 active torsions:
REMARK  status: ('A' for Active; 'I' for Inactive)
REMARK    1  A    between atoms: N_2  and  S_1 
REMARK    2  A    between atoms: N_3  and  S_1 
REMARK    3  A    between atoms: C_6  and  N_3 
ROOT
ATOM      1  S   UNL d   1     -48.329  11.979  23.343  0.00  0.00     0.351 S 
ATOM      2  O   UNL d   1     -48.313  12.722  23.698  0.00  0.00    -0.180 OA
ATOM      3  O   UNL d   1     -48.344  11.236  22.989  0.00  0.00    -0.180 OA
ENDROOT
BRANCH   1   4
ATOM      4  N   UNL d   1     -47.507  11.988  23.289  0.00  0.00    -0.215 N 
ATOM      5  C   UNL d   1     -47.074  11.313  23.503  0.00  0.00     0.093 C 
ATOM      6  C   UNL d   1     -46.260  11.327  23.449  0.00  0.00     0.020 C 
ATOM      7  C   UNL d   1     -45.862  12.023  23.292  0.00  0.00     0.003 C 
ATOM      8  C   UNL d   1     -46.288  12.720  23.189  0.00  0.00     0.020 C 
ATOM      9  C   UNL d   1     -47.113  12.720  23.241  0.00  0.00     0.093 C 
ENDBRANCH   1   4
BRANCH   1  10
ATOM     10  N   UNL d   1     -49.149  11.906  23.367  0.00  0.00    -0.144 NA
BRANCH  10  11
ATOM     11  C   UNL d   1     -49.631  12.364  22.852  0.00  0.00     0.095 A 
ATOM     12  C   UNL d   1     -49.732  12.129  22.060  0.00  0.00     0.020 A 
ATOM     13  C   UNL d   1     -50.216  12.574  21.556  0.00  0.00     0.002 A 
ATOM     14  C   UNL d   1     -50.593  13.259  21.843  0.00  0.00     0.000 A 
ATOM     15  C   UNL d   1     -50.501  13.505  22.636  0.00  0.00     0.002 A 
ATOM     16  C   UNL d   1     -51.062  13.708  21.328  0.00  0.00     0.000 C 
ATOM     17  C   UNL d   1     -50.014  13.046  23.144  0.00  0.00     0.020 A 
ENDBRANCH  10  11
ENDBRANCH   1  10
TORSDOF 3
ENDMDL
MODEL 5
REMARK VINA RESULT:      -6.0      8.865     10.264
REMARK  3 active torsions:
REMARK  status: ('A' for Active; 'I' for Inactive)
REMARK    1  A    between atoms: N_2  and  S_1 
REMARK    2  A    between atoms: N_3  and  S_1 
REMARK    3  A    between atoms: C_6  and  N_3 
ROOT
ATOM      1  S   UNL d   1     -40.592  14.534  18.823  0.00  0.00     0.351 S 
ATOM      2  O   UNL d   1     -40.552  15.289  18.494  0.00  0.00    -0.180 OA
ATOM      3  O   UNL d   1     -40.631  13.780  19.150  0.00  0.00    -0.180 OA
ENDROOT
BRANCH   1   4
ATOM      4  N   UNL d   1     -40.550  14.861  19.577  0.00  0.00    -0.215 N 
ATOM      5  C   UNL d   1     -40.368  14.374  20.225  0.00  0.00     0.093 C 
ATOM      6  C   UNL d   1     -40.328  14.702  20.971  0.00  0.00     0.020 C 
ATOM      7  C   UNL d   1     -40.568  15.471  21.105  0.00  0.00     0.003 C 
ATOM      8  C   UNL d   1     -40.855  15.922  20.479  0.00  0.00     0.020 C 
ATOM      9  C   UNL d   1     -40.901  15.602  19.718  0.00  0.00     0.093 C 
ENDBRANCH   1   4
BRANCH   1  10
ATOM     10  N   UNL d   1     -40.637  14.144  18.098  0.00  0.00    -0.144 NA
BRANCH  10  11
ATOM     11  C   UNL d   1     -39.963  14.100  17.597  0.00  0.00     0.095 A 
ATOM     12  C   UNL d   1     -39.410  13.486  17.698  0.00  0.00     0.020 A 
ATOM     13  C   UNL d   1     -38.752  13.436  17.197  0.00  0.00     0.002 A 
ATOM     14  C   UNL d   1     -38.644  14.006  16.599  0.00  0.00     0.000 A 
ATOM     15  C   UNL d   1     -39.192  14.626  16.486  0.00  0.00     0.002 A 
ATOM     16  C   UNL d   1     -37.974  13.959  16.113  0.00  0.00     0.000 C 
ATOM     17  C   UNL d   1     -39.860  14.668  16.993  0.00  0.00     0.020 A 
ENDBRANCH  10  11
ENDBRANCH   1  10
TORSDOF 3
ENDMDL
MODEL 6
REMARK VINA RESULT:      -5.9      9.192     10.245
REMARK  3 active torsions:
REMARK  status: ('A' for Active; 'I' for Inactive)
REMARK    1  A    between atoms: N_2  and  S_1 
REMARK    2  A    between atoms: N_3  and  S_1 
REMARK    3  A    between atoms: C_6  and  N_3 
ROOT
ATOM      1  S   UNL d   1     -39.927  14.098  17.710  0.00  0.00     0.351 S 
ATOM      2  O   UNL d   1     -39.734  13.448  18.177  0.00  0.00    -0.180 OA
ATOM      3  O   UNL d   1     -40.120  14.748  17.244  0.00  0.00    -0.180 OA
ENDROOT
BRANCH   1   4
ATOM      4  N   UNL d   1     -39.244  13.982  17.266  0.00  0.00    -0.215 N 
ATOM      5  C   UNL d   1     -39.125  14.423  16.573  0.00  0.00     0.093 C 
ATOM      6  C   UNL d   1     -38.447  14.304  16.135  0.00  0.00     0.020 C 
ATOM      7  C   UNL d   1     -37.940  13.687  16.307  0.00  0.00     0.003 C 
ATOM      8  C   UNL d   1     -38.115  13.178  16.930  0.00  0.00     0.020 C 
ATOM      9  C   UNL d   1     -38.799  13.287  17.382  0.00  0.00     0.093 C 
ENDBRANCH   1   4
BRANCH   1  10
ATOM     10  N   UNL d   1     -40.625  14.270  18.113  0.00  0.00    -0.144 NA
BRANCH  10  11
ATOM     11  C   UNL d   1     -40.601  14.681  18.847  0.00  0.00     0.095 A 
ATOM     12  C   UNL d   1     -40.581  15.513  18.857  0.00  0.00     0.020 A 
ATOM     13  C   UNL d   1     -40.569  15.917  19.580  0.00  0.00     0.002 A 
ATOM     14  C   UNL d   1     -40.571  15.487  20.293  0.00  0.00     0.000 A 
ATOM     15  C   UNL d   1     -40.593  14.652  20.298  0.00  0.00     0.002 A 
ATOM     16  C   UNL d   1     -40.541  15.899  21.013  0.00  0.00     0.000 C 
ATOM     17  C   UNL d   1     -40.611  14.248  19.562  0.00  0.00     0.020 A 
ENDBRANCH  10  11
ENDBRANCH   1  10
TORSDOF 3
ENDMDL
MODEL 7
REMARK VINA RESULT:      -5.3      8.801      9.604
REMARK  3 active torsions:
REMARK  status: ('A' for Active; 'I' for Inactive)
REMARK    1  A    between atoms: N_2  and  S_1 
REMARK    2  A    between atoms: N_3  and  S_1 
REMARK    3  A    between atoms: C_6  and  N_3 
ROOT
ATOM      1  S   UNL d   1     -40.699  15.070  19.337  0.00  0.00     0.351 S 
ATOM      2  O   UNL d   1     -40.811  15.887  19.356  0.00  0.00    -0.180 OA
ATOM      3  O   UNL d   1     -40.587  14.256  19.317  0.00  0.00    -0.180 OA
ENDROOT
BRANCH   1   4
ATOM      4  N   UNL d   1     -40.442  15.125  18.557  0.00  0.00    -0.215 N 
ATOM      5  C   UNL d   1     -40.392  15.870  18.192  0.00  0.00     0.093 C 
ATOM      6  C   UNL d   1     -40.137  15.920  17.419  0.00  0.00     0.020 C 
ATOM      7  C   UNL d   1     -40.035  15.247  16.967  0.00  0.00     0.003 C 
ATOM      8  C   UNL d   1     -40.191  14.509  17.296  0.00  0.00     0.020 C 
ATOM      9  C   UNL d   1     -40.451  14.444  18.078  0.00  0.00     0.093 C 
ENDBRANCH   1   4
BRANCH   1  10
ATOM     10  N   UNL d   1     -40.947  14.946  20.113  0.00  0.00    -0.144 NA
BRANCH  10  11
ATOM     11  C   UNL d   1     -40.414  15.069  20.752  0.00  0.00     0.095 A 
ATOM     12  C   UNL d   1     -40.393  15.805  21.140  0.00  0.00     0.020 A 
ATOM     13  C   UNL d   1     -39.877  15.922  21.777  0.00  0.00     0.002 A 
ATOM     14  C   UNL d   1     -39.377  15.303  22.022  0.00  0.00     0.000 A 
ATOM     15  C   UNL d   1     -39.389  14.559  21.644  0.00  0.00     0.002 A 
ATOM     16  C   UNL d   1     -38.851  15.434  22.650  0.00  0.00     0.000 C 
ATOM     17  C   UNL d   1     -39.918  14.444  21.002  0.00  0.00     0.020 A 
ENDBRANCH  10  11
ENDBRANCH   1  10
TORSDOF 3
ENDMDL
MODEL 8
REMARK VINA RESULT:      -5.1      8.895      9.471
REMARK  3 active torsions:
REMARK  status: ('A' for Active; 'I' for Inactive)
REMARK    1  A    between atoms: N_2  and  S_1 
REMARK    2  A    between atoms: N_3  and  S_1 
REMARK    3  A    between atoms: C_6  and  N_3 
ROOT
ATOM      1  S   UNL d   1     -40.308  14.977  20.740  0.00  0.00     0.351 S 
ATOM      2  O   UNL d   1     -39.986  15.725  20.618  0.00  0.00    -0.180 OA
ATOM      3  O   UNL d   1     -40.628  14.229  20.862  0.00  0.00    -0.180 OA
ENDROOT
BRANCH   1   4
ATOM      4  N   UNL d   1     -39.755  14.838  21.335  0.00  0.00    -0.215 N 
ATOM      5  C   UNL d   1     -39.628  14.063  21.604  0.00  0.00     0.093 C 
ATOM      6  C   UNL d   1     -39.081  13.929  22.194  0.00  0.00     0.020 C 
ATOM      7  C   UNL d   1     -38.738  14.552  22.596  0.00  0.00     0.003 C 
ATOM      8  C   UNL d   1     -38.948  15.325  22.404  0.00  0.00     0.020 C 
ATOM      9  C   UNL d   1     -39.502  15.474  21.808  0.00  0.00     0.093 C 
ENDBRANCH   1   4
BRANCH   1  10
ATOM     10  N   UNL d   1     -40.885  15.051  20.157  0.00  0.00    -0.144 NA
BRANCH  10  11
ATOM     11  C   UNL d   1     -40.670  15.047  19.344  0.00  0.00     0.095 A 
ATOM     12  C   UNL d   1     -40.599  14.325  18.937  0.00  0.00     0.020 A 
ATOM     13  C   UNL d   1     -40.399  14.322  18.133  0.00  0.00     0.002 A 
ATOM     14  C   UNL d   1     -40.264  15.043  17.738  0.00  0.00     0.000 A 
ATOM     15  C   UNL d   1     -40.334  15.775  18.134  0.00  0.00     0.002 A 
ATOM     16  C   UNL d   1     -40.047  15.030  16.938  0.00  0.00     0.000 C 
ATOM     17  C   UNL d   1     -40.543  15.772  18.948  0.00  0.00     0.020 A 
ENDBRANCH  10  11
ENDBRANCH   1  10
TORSDOF 3
ENDMDL
