MODEL 1
REMARK VINA RESULT:      -1.4      0.000      0.000
REMARK  6 active torsions:
REMARK  status: ('A' for Active; 'I' for Inactive)
REMARK    1  A    between atoms: C_6  and  C_1 
REMARK    2  A    between atoms: N_8  and  C_5 
REMARK    3  A    between atoms: O_13  and  C_6 
REMARK       I    between atoms: C_7  and  N_8 
REMARK    4  A    between atoms: O_12  and  C_7 
REMARK    5  A    between atoms: C_16  and  O_12 
REMARK    6  A    between atoms: C_17  and  O_13 
ROOT
ATOM      1  C   UNL d   1      32.663  22.114 -21.682  0.00  0.00     0.083 A 
ATOM      2  N   UNL d   1      32.830  21.442 -20.431  0.00  0.00    -0.244 NA
ATOM      3  C   UNL d   1      32.647  22.130 -20.871  0.00  0.00     0.087 A 
ATOM      4  C   UNL d   1      32.861  21.408 -22.086  0.00  0.00     0.028 A 
ATOM      5  C   UNL d   1      33.042  20.726 -21.660  0.00  0.00     0.104 A 
ATOM      6  C   UNL d   1      33.026  20.743 -20.835  0.00  0.00     0.099 A 
ATOM      7  C   UNL d   1      32.451  22.830 -20.466  0.00  0.00     0.021 C 
ATOM      8  C   UNL d   1      33.210  20.048 -20.395  0.00  0.00     0.022 C 
ENDROOT
BRANCH   5   9
ATOM      9  N   UNL d   1      33.240  20.020 -22.064  0.00  0.00    -0.184 NA
ATOM     10  C   UNL d   1      32.685  19.666 -22.565  0.00  0.00     0.392 C 
ATOM     11  O   UNL d   1      31.931  20.001 -22.675  0.00  0.00    -0.236 OA
BRANCH  10  12
ATOM     12  O   UNL d   1      32.877  18.964 -22.969  0.00  0.00    -0.256 OA
BRANCH  12  13
ATOM     13  C   UNL d   1      32.287  18.470 -23.259  0.00  0.00     0.128 C 
ATOM     14  C   UNL d   1      32.458  17.900 -23.824  0.00  0.00     0.029 C 
ENDBRANCH  12  13
ENDBRANCH  10  12
ENDBRANCH   5   9
BRANCH   1  15
ATOM     15  C   UNL d   1      32.483  22.790 -22.116  0.00  0.00     0.302 C 
ATOM     16  O   UNL d   1      31.810  23.233 -21.938  0.00  0.00    -0.259 OA
BRANCH  15  17
ATOM     17  O   UNL d   1      32.983  23.020 -22.728  0.00  0.00    -0.271 OA
BRANCH  17  18
ATOM     18  C   UNL d   1      32.740  23.613 -23.244  0.00  0.00     0.126 C 
ATOM     19  C   UNL d   1      33.116  23.691 -23.972  0.00  0.00     0.029 C 
ENDBRANCH  17  18
ENDBRANCH  15  17
ENDBRANCH   1  15
TORSDOF 6
ENDMDL
MODEL 2
REMARK VINA RESULT:      -0.9      1.262      2.195
REMARK  6 active torsions:
REMARK  status: ('A' for Active; 'I' for Inactive)
REMARK    1  A    between atoms: C_6  and  C_1 
REMARK    2  A    between atoms: N_8  and  C_5 
REMARK    3  A    between atoms: O_13  and  C_6 
REMARK       I    between atoms: C_7  and  N_8 
REMARK    4  A    between atoms: O_12  and  C_7 
REMARK    5  A    between atoms: C_16  and  O_12 
REMARK    6  A    between atoms: C_17  and  O_13 
ROOT
ATOM      1  C   UNL d   1      32.566  22.286 -21.326  0.00  0.00     0.083 A 
ATOM      2  N   UNL d   1      32.746  22.712 -22.679  0.00  0.00    -0.244 NA
ATOM      3  C   UNL d   1      32.539  22.875 -21.884  0.00  0.00     0.087 A 
ATOM      4  C   UNL d   1      32.801  21.511 -21.540  0.00  0.00     0.028 A 
ATOM      5  C   UNL d   1      33.006  21.344 -22.321  0.00  0.00     0.104 A 
ATOM      6  C   UNL d   1      32.979  21.943 -22.888  0.00  0.00     0.099 A 
ATOM      7  C   UNL d   1      32.306  23.645 -21.675  0.00  0.00     0.021 C 
ATOM      8  C   UNL d   1      33.188  21.776 -23.687  0.00  0.00     0.022 C 
ENDROOT
BRANCH   5   9
ATOM      9  N   UNL d   1      33.241  20.570 -22.535  0.00  0.00    -0.184 NA
ATOM     10  C   UNL d   1      32.726  19.935 -22.405  0.00  0.00     0.392 C 
ATOM     11  O   UNL d   1      31.976  20.055 -22.063  0.00  0.00    -0.236 OA
BRANCH  10  12
ATOM     12  O   UNL d   1      32.955  19.163 -22.616  0.00  0.00    -0.256 OA
BRANCH  12  13
ATOM     13  C   UNL d   1      32.566  18.759 -23.219  0.00  0.00     0.128 C 
ATOM     14  C   UNL d   1      32.782  17.993 -23.414  0.00  0.00     0.029 C 
ENDBRANCH  12  13
ENDBRANCH  10  12
ENDBRANCH   5   9
BRANCH   1  15
ATOM     15  C   UNL d   1      32.363  22.444 -20.544  0.00  0.00     0.302 C 
ATOM     16  O   UNL d   1      31.570  22.495 -20.321  0.00  0.00    -0.259 OA
BRANCH  15  17
ATOM     17  O   UNL d   1      32.959  22.551 -19.987  0.00  0.00    -0.271 OA
BRANCH  17  18
ATOM     18  C   UNL d   1      32.803  22.993 -19.311  0.00  0.00     0.126 C 
ATOM     19  C   UNL d   1      33.230  22.842 -18.624  0.00  0.00     0.029 C 
ENDBRANCH  17  18
ENDBRANCH  15  17
ENDBRANCH   1  15
TORSDOF 6
ENDMDL
MODEL 3
REMARK VINA RESULT:       0.1      1.126      1.536
REMARK  6 active torsions:
REMARK  status: ('A' for Active; 'I' for Inactive)
REMARK    1  A    between atoms: C_6  and  C_1 
REMARK    2  A    between atoms: N_8  and  C_5 
REMARK    3  A    between atoms: O_13  and  C_6 
REMARK       I    between atoms: C_7  and  N_8 
REMARK    4  A    between atoms: O_12  and  C_7 
REMARK    5  A    between atoms: C_16  and  O_12 
REMARK    6  A    between atoms: C_17  and  O_13 
ROOT
ATOM      1  C   UNL d   1      33.184  20.822 -22.139  0.00  0.00     0.083 A 
ATOM      2  N   UNL d   1      33.203  19.757 -21.185  0.00  0.00    -0.244 NA
ATOM      3  C   UNL d   1      33.185  20.574 -21.366  0.00  0.00     0.087 A 
ATOM      4  C   UNL d   1      33.200  20.262 -22.762  0.00  0.00     0.028 A 
ATOM      5  C   UNL d   1      33.218  19.456 -22.591  0.00  0.00     0.104 A 
ATOM      6  C   UNL d   1      33.219  19.204 -21.805  0.00  0.00     0.099 A 
ATOM      7  C   UNL d   1      33.168  21.127 -20.745  0.00  0.00     0.021 C 
ATOM      8  C   UNL d   1      33.237  18.381 -21.626  0.00  0.00     0.022 C 
ENDROOT
BRANCH   5   9
ATOM      9  N   UNL d   1      33.235  18.896 -23.213  0.00  0.00    -0.184 NA
ATOM     10  C   UNL d   1      32.588  18.836 -23.726  0.00  0.00     0.392 C 
ATOM     11  O   UNL d   1      31.920  19.323 -23.633  0.00  0.00    -0.236 OA
BRANCH  10  12
ATOM     12  O   UNL d   1      32.600  18.281 -24.347  0.00  0.00    -0.256 OA
BRANCH  12  13
ATOM     13  C   UNL d   1      32.009  17.713 -24.415  0.00  0.00     0.128 C 
ATOM     14  C   UNL d   1      32.053  17.130 -24.989  0.00  0.00     0.029 C 
ENDBRANCH  12  13
ENDBRANCH  10  12
ENDBRANCH   5   9
BRANCH   1  15
ATOM     15  C   UNL d   1      33.166  21.625 -22.318  0.00  0.00     0.302 C 
ATOM     16  O   UNL d   1      33.150  22.187 -21.715  0.00  0.00    -0.259 OA
BRANCH  15  17
ATOM     17  O   UNL d   1      33.165  21.861 -23.107  0.00  0.00    -0.271 OA
BRANCH  17  18
ATOM     18  C   UNL d   1      33.227  22.661 -23.287  0.00  0.00     0.126 C 
ATOM     19  C   UNL d   1      33.051  22.917 -24.049  0.00  0.00     0.029 C 
ENDBRANCH  17  18
ENDBRANCH  15  17
ENDBRANCH   1  15
TORSDOF 6
ENDMDL
MODEL 4
REMARK VINA RESULT:       1.3      2.058      3.224
REMARK  6 active torsions:
REMARK  status: ('A' for Active; 'I' for Inactive)
REMARK    1  A    between atoms: C_6  and  C_1 
REMARK    2  A    between atoms: N_8  and  C_5 
REMARK    3  A    between atoms: O_13  and  C_6 
REMARK       I    between atoms: C_7  and  N_8 
REMARK    4  A    between atoms: O_12  and  C_7 
REMARK    5  A    between atoms: C_16  and  O_12 
REMARK    6  A    between atoms: C_17  and  O_13 
ROOT
ATOM      1  C   UNL d   1      32.703  22.542 -19.375  0.00  0.00     0.083 A 
ATOM      2  N   UNL d   1      32.127  23.297 -20.444  0.00  0.00    -0.244 NA
ATOM      3  C   UNL d   1      32.258  23.173 -19.627  0.00  0.00     0.087 A 
ATOM      4  C   UNL d   1      33.034  22.011 -19.931  0.00  0.00     0.028 A 
ATOM      5  C   UNL d   1      32.909  22.127 -20.737  0.00  0.00     0.104 A 
ATOM      6  C   UNL d   1      32.457  22.768 -20.993  0.00  0.00     0.099 A 
ATOM      7  C   UNL d   1      31.928  23.702 -19.078  0.00  0.00     0.021 C 
ATOM      8  C   UNL d   1      32.327  22.891 -21.816  0.00  0.00     0.022 C 
ENDROOT
BRANCH   5   9
ATOM      9  N   UNL d   1      33.240  21.596 -21.293  0.00  0.00    -0.184 NA
ATOM     10  C   UNL d   1      32.867  20.872 -21.440  0.00  0.00     0.392 C 
ATOM     11  O   UNL d   1      32.165  20.664 -21.044  0.00  0.00    -0.236 OA
BRANCH  10  12
ATOM     12  O   UNL d   1      33.192  20.340 -21.992  0.00  0.00    -0.256 OA
BRANCH  12  13
ATOM     13  C   UNL d   1      33.044  19.533 -21.936  0.00  0.00     0.128 C 
ATOM     14  C   UNL d   1      33.037  19.061 -22.606  0.00  0.00     0.029 C 
ENDBRANCH  12  13
ENDBRANCH  10  12
ENDBRANCH   5   9
BRANCH   1  15
ATOM     15  C   UNL d   1      32.833  22.419 -18.572  0.00  0.00     0.302 C 
ATOM     16  O   UNL d   1      32.836  21.654 -18.262  0.00  0.00    -0.259 OA
BRANCH  15  17
ATOM     17  O   UNL d   1      32.959  23.067 -18.081  0.00  0.00    -0.271 OA
BRANCH  17  18
ATOM     18  C   UNL d   1      33.241  22.944 -17.317  0.00  0.00     0.126 C 
ATOM     19  C   UNL d   1      32.893  23.348 -16.690  0.00  0.00     0.029 C 
ENDBRANCH  17  18
ENDBRANCH  15  17
ENDBRANCH   1  15
TORSDOF 6
ENDMDL
MODEL 5
REMARK VINA RESULT:       1.6      1.445      2.521
REMARK  6 active torsions:
REMARK  status: ('A' for Active; 'I' for Inactive)
REMARK    1  A    between atoms: C_6  and  C_1 
REMARK    2  A    between atoms: N_8  and  C_5 
REMARK    3  A    between atoms: O_13  and  C_6 
REMARK       I    between atoms: C_7  and  N_8 
REMARK    4  A    between atoms: O_12  and  C_7 
REMARK    5  A    between atoms: C_16  and  O_12 
REMARK    6  A    between atoms: C_17  and  O_13 
ROOT
ATOM      1  C   UNL d   1      32.984  20.654 -22.403  0.00  0.00     0.083 A 
ATOM      2  N   UNL d   1      33.070  20.921 -23.805  0.00  0.00    -0.244 NA
ATOM      3  C   UNL d   1      32.984  21.186 -23.016  0.00  0.00     0.087 A 
ATOM      4  C   UNL d   1      33.069  19.835 -22.555  0.00  0.00     0.028 A 
ATOM      5  C   UNL d   1      33.154  19.566 -23.330  0.00  0.00     0.104 A 
ATOM      6  C   UNL d   1      33.154  20.107 -23.953  0.00  0.00     0.099 A 
ATOM      7  C   UNL d   1      32.900  22.000 -22.868  0.00  0.00     0.021 C 
ATOM      8  C   UNL d   1      33.241  19.838 -24.746  0.00  0.00     0.022 C 
ENDROOT
BRANCH   5   9
ATOM      9  N   UNL d   1      33.239  18.747 -23.483  0.00  0.00    -0.184 NA
ATOM     10  C   UNL d   1      32.637  18.225 -23.259  0.00  0.00     0.392 C 
ATOM     11  O   UNL d   1      31.947  18.501 -22.885  0.00  0.00    -0.236 OA
BRANCH  10  12
ATOM     12  O   UNL d   1      32.717  17.410 -23.409  0.00  0.00    -0.256 OA
BRANCH  12  13
ATOM     13  C   UNL d   1      32.205  17.024 -23.925  0.00  0.00     0.128 C 
ATOM     14  C   UNL d   1      32.300  16.227 -24.089  0.00  0.00     0.029 C 
ENDBRANCH  12  13
ENDBRANCH  10  12
ENDBRANCH   5   9
BRANCH   1  15
ATOM     15  C   UNL d   1      32.899  20.913 -21.627  0.00  0.00     0.302 C 
ATOM     16  O   UNL d   1      33.198  20.464 -21.002  0.00  0.00    -0.259 OA
BRANCH  15  17
ATOM     17  O   UNL d   1      32.514  21.625 -21.480  0.00  0.00    -0.271 OA
BRANCH  17  18
ATOM     18  C   UNL d   1      32.507  21.928 -20.715  0.00  0.00     0.126 C 
ATOM     19  C   UNL d   1      32.047  22.591 -20.549  0.00  0.00     0.029 C 
ENDBRANCH  17  18
ENDBRANCH  15  17
ENDBRANCH   1  15
TORSDOF 6
ENDMDL
