MODEL 1
REMARK VINA RESULT:      -7.3      0.000      0.000
REMARK  7 active torsions:
REMARK  status: ('A' for Active; 'I' for Inactive)
REMARK    1  A    between atoms: C_6  and  C_1 
REMARK    2  A    between atoms: O_8  and  C_6 
REMARK    3  A    between atoms: C_13  and  O_8 
REMARK    4  A    between atoms: C_9  and  C_13 
REMARK    5  A    between atoms: C_15  and  C_9 
REMARK    6  A    between atoms: C_19  and  C_11 
REMARK    7  A    between atoms: C_16  and  C_19 
ROOT
ATOM      1  C   UNL d   1     -46.543  13.315  22.822  0.00  0.00     0.127 A 
ATOM      2  C   UNL d   1     -45.700  13.166  22.797  0.00  0.00     0.305 A 
ATOM      3  O   UNL d   1     -45.394  12.440  23.002  0.00  0.00    -0.273 OA
ATOM      4  C   UNL d   1     -47.024  12.729  23.050  0.00  0.00     0.013 A 
ATOM      5  C   UNL d   1     -45.920  11.848  23.236  0.00  0.00     0.103 A 
ATOM      6  C   UNL d   1     -46.732  11.991  23.260  0.00  0.00     0.023 A 
ATOM      7  O   UNL d   1     -45.124  13.766  22.556  0.00  0.00    -0.259 OA
ATOM      8  C   UNL d   1     -45.615  11.117  23.443  0.00  0.00     0.023 A 
ATOM      9  C   UNL d   1     -47.245  11.406  23.491  0.00  0.00     0.002 A 
ATOM     10  C   UNL d   1     -46.982  10.688  23.698  0.00  0.00     0.000 A 
ATOM     11  C   UNL d   1     -46.139  10.539  23.673  0.00  0.00     0.002 A 
ENDROOT
BRANCH   1  12
ATOM     12  C   UNL d   1     -46.886  14.047  22.618  0.00  0.00     0.305 C 
ATOM     13  O   UNL d   1     -46.543  14.517  22.016  0.00  0.00    -0.259 OA
BRANCH  12  14
ATOM     14  O   UNL d   1     -47.591  14.325  23.020  0.00  0.00    -0.268 OA
BRANCH  14  15
ATOM     15  C   UNL d   1     -48.165  14.655  22.556  0.00  0.00     0.168 C 
BRANCH  15  16
ATOM     16  C   UNL d   1     -48.895  14.832  22.899  0.00  0.00     0.220 C 
ATOM     17  O   UNL d   1     -48.935  15.369  23.519  0.00  0.00    -0.284 OA
BRANCH  16  18
ATOM     18  C   UNL d   1     -49.601  14.474  22.630  0.00  0.00     0.041 A 
ATOM     19  C   UNL d   1     -49.856  14.605  21.869  0.00  0.00     0.003 A 
ATOM     20  C   UNL d   1     -50.554  14.250  21.608  0.00  0.00     0.000 A 
ATOM     21  C   UNL d   1     -51.005  13.749  22.131  0.00  0.00     0.000 A 
ATOM     22  C   UNL d   1     -50.728  13.629  22.898  0.00  0.00     0.000 A 
ATOM     23  C   UNL d   1     -50.023  13.994  23.146  0.00  0.00     0.003 A 
ENDBRANCH  16  18
ENDBRANCH  15  16
ENDBRANCH  14  15
ENDBRANCH  12  14
ENDBRANCH   1  12
BRANCH   8  24
ATOM     24  C   UNL d   1     -44.808  10.948  23.428  0.00  0.00     0.002 C 
BRANCH  24  25
ATOM     25  C   UNL d   1     -44.552  10.229  23.698  0.00  0.00     0.000 C 
ATOM     26  C   UNL d   1     -43.781   9.940  23.460  0.00  0.00     0.000 C 
ENDBRANCH  24  25
ENDBRANCH   8  24
TORSDOF 7
ENDMDL
MODEL 2
REMARK VINA RESULT:      -7.0      1.906      2.706
REMARK  7 active torsions:
REMARK  status: ('A' for Active; 'I' for Inactive)
REMARK    1  A    between atoms: C_6  and  C_1 
REMARK    2  A    between atoms: O_8  and  C_6 
REMARK    3  A    between atoms: C_13  and  O_8 
REMARK    4  A    between atoms: C_9  and  C_13 
REMARK    5  A    between atoms: C_15  and  C_9 
REMARK    6  A    between atoms: C_19  and  C_11 
REMARK    7  A    between atoms: C_16  and  C_19 
ROOT
ATOM      1  C   UNL d   1     -45.965  12.660  22.794  0.00  0.00     0.127 A 
ATOM      2  C   UNL d   1     -45.646  13.261  22.272  0.00  0.00     0.305 A 
ATOM      3  O   UNL d   1     -44.885  13.210  21.987  0.00  0.00    -0.273 OA
ATOM      4  C   UNL d   1     -45.502  12.050  22.995  0.00  0.00     0.013 A 
ATOM      5  C   UNL d   1     -44.426  12.562  22.214  0.00  0.00     0.103 A 
ATOM      6  C   UNL d   1     -44.733  11.984  22.716  0.00  0.00     0.023 A 
ATOM      7  O   UNL d   1     -46.102  13.951  22.017  0.00  0.00    -0.259 OA
ATOM      8  C   UNL d   1     -43.661  12.509  21.929  0.00  0.00     0.023 A 
ATOM      9  C   UNL d   1     -44.277  11.349  22.937  0.00  0.00     0.002 A 
ATOM     10  C   UNL d   1     -43.533  11.268  22.678  0.00  0.00     0.000 A 
ATOM     11  C   UNL d   1     -43.214  11.869  22.157  0.00  0.00     0.002 A 
ENDROOT
BRANCH   1  12
ATOM     12  C   UNL d   1     -46.739  12.684  23.102  0.00  0.00     0.305 C 
ATOM     13  O   UNL d   1     -46.938  13.244  23.691  0.00  0.00    -0.259 OA
BRANCH  12  14
ATOM     14  O   UNL d   1     -47.337  12.137  22.819  0.00  0.00    -0.268 OA
BRANCH  14  15
ATOM     15  C   UNL d   1     -48.071  12.201  23.153  0.00  0.00     0.168 C 
BRANCH  15  16
ATOM     16  C   UNL d   1     -48.692  11.770  22.822  0.00  0.00     0.220 C 
ATOM     17  O   UNL d   1     -48.532  11.094  22.383  0.00  0.00    -0.284 OA
BRANCH  16  18
ATOM     18  C   UNL d   1     -49.488  12.005  22.923  0.00  0.00     0.041 A 
ATOM     19  C   UNL d   1     -49.905  11.753  23.574  0.00  0.00     0.003 A 
ATOM     20  C   UNL d   1     -50.691  11.988  23.669  0.00  0.00     0.000 A 
ATOM     21  C   UNL d   1     -51.064  12.490  23.090  0.00  0.00     0.000 A 
ATOM     22  C   UNL d   1     -50.623  12.733  22.437  0.00  0.00     0.000 A 
ATOM     23  C   UNL d   1     -49.833  12.489  22.355  0.00  0.00     0.003 A 
ENDBRANCH  16  18
ENDBRANCH  15  16
ENDBRANCH  14  15
ENDBRANCH  12  14
ENDBRANCH   1  12
BRANCH   8  24
ATOM     24  C   UNL d   1     -43.330  13.074  21.426  0.00  0.00     0.002 C 
BRANCH  24  25
ATOM     25  C   UNL d   1     -42.536  13.047  21.275  0.00  0.00     0.000 C 
ATOM     26  C   UNL d   1     -42.152  13.724  20.915  0.00  0.00     0.000 C 
ENDBRANCH  24  25
ENDBRANCH   8  24
TORSDOF 7
ENDMDL
MODEL 3
REMARK VINA RESULT:      -7.0      1.782      5.131
REMARK  7 active torsions:
REMARK  status: ('A' for Active; 'I' for Inactive)
REMARK    1  A    between atoms: C_6  and  C_1 
REMARK    2  A    between atoms: O_8  and  C_6 
REMARK    3  A    between atoms: C_13  and  O_8 
REMARK    4  A    between atoms: C_9  and  C_13 
REMARK    5  A    between atoms: C_15  and  C_9 
REMARK    6  A    between atoms: C_19  and  C_11 
REMARK    7  A    between atoms: C_16  and  C_19 
ROOT
ATOM      1  C   UNL d   1     -47.018  13.577  22.987  0.00  0.00     0.127 A 
ATOM      2  C   UNL d   1     -47.427  12.925  23.363  0.00  0.00     0.305 A 
ATOM      3  O   UNL d   1     -48.237  12.922  23.434  0.00  0.00    -0.273 OA
ATOM      4  C   UNL d   1     -47.446  14.182  22.707  0.00  0.00     0.013 A 
ATOM      5  C   UNL d   1     -48.659  13.566  23.133  0.00  0.00     0.103 A 
ATOM      6  C   UNL d   1     -48.264  14.193  22.771  0.00  0.00     0.023 A 
ATOM      7  O   UNL d   1     -47.014  12.237  23.687  0.00  0.00    -0.259 OA
ATOM      8  C   UNL d   1     -49.473  13.565  23.204  0.00  0.00     0.023 A 
ATOM      9  C   UNL d   1     -48.682  14.825  22.477  0.00  0.00     0.002 A 
ATOM     10  C   UNL d   1     -49.472  14.854  22.529  0.00  0.00     0.000 A 
ATOM     11  C   UNL d   1     -49.881  14.202  22.905  0.00  0.00     0.002 A 
ENDROOT
BRANCH   1  12
ATOM     12  C   UNL d   1     -46.189  13.609  22.899  0.00  0.00     0.305 C 
ATOM     13  O   UNL d   1     -45.724  14.017  23.462  0.00  0.00    -0.259 OA
BRANCH  12  14
ATOM     14  O   UNL d   1     -45.807  13.227  22.232  0.00  0.00    -0.268 OA
BRANCH  14  15
ATOM     15  C   UNL d   1     -45.006  13.323  22.172  0.00  0.00     0.168 C 
BRANCH  15  16
ATOM     16  C   UNL d   1     -44.612  12.952  21.549  0.00  0.00     0.220 C 
ATOM     17  O   UNL d   1     -45.042  12.580  20.957  0.00  0.00    -0.284 OA
BRANCH  16  18
ATOM     18  C   UNL d   1     -43.776  12.945  21.505  0.00  0.00     0.041 A 
ATOM     19  C   UNL d   1     -43.359  12.333  21.839  0.00  0.00     0.003 A 
ATOM     20  C   UNL d   1     -42.534  12.330  21.793  0.00  0.00     0.000 A 
ATOM     21  C   UNL d   1     -42.123  12.964  21.397  0.00  0.00     0.000 A 
ATOM     22  C   UNL d   1     -42.566  13.575  21.065  0.00  0.00     0.000 A 
ATOM     23  C   UNL d   1     -43.396  13.564  21.120  0.00  0.00     0.003 A 
ENDBRANCH  16  18
ENDBRANCH  15  16
ENDBRANCH  14  15
ENDBRANCH  12  14
ENDBRANCH   1  12
BRANCH   8  24
ATOM     24  C   UNL d   1     -49.891  12.949  23.561  0.00  0.00     0.002 C 
BRANCH  24  25
ATOM     25  C   UNL d   1     -50.621  12.751  23.273  0.00  0.00     0.000 C 
ATOM     26  C   UNL d   1     -51.064  12.119  23.646  0.00  0.00     0.000 C 
ENDBRANCH  24  25
ENDBRANCH   8  24
TORSDOF 7
ENDMDL
MODEL 4
REMARK VINA RESULT:      -6.9      3.334      5.844
REMARK  7 active torsions:
REMARK  status: ('A' for Active; 'I' for Inactive)
REMARK    1  A    between atoms: C_6  and  C_1 
REMARK    2  A    between atoms: O_8  and  C_6 
REMARK    3  A    between atoms: C_13  and  O_8 
REMARK    4  A    between atoms: C_9  and  C_13 
REMARK    5  A    between atoms: C_15  and  C_9 
REMARK    6  A    between atoms: C_19  and  C_11 
REMARK    7  A    between atoms: C_16  and  C_19 
ROOT
ATOM      1  C   UNL d   1     -44.197  12.839  21.828  0.00  0.00     0.127 A 
ATOM      2  C   UNL d   1     -44.393  12.160  22.315  0.00  0.00     0.305 A 
ATOM      3  O   UNL d   1     -45.079  12.138  22.750  0.00  0.00    -0.273 OA
ATOM      4  C   UNL d   1     -44.702  13.449  21.811  0.00  0.00     0.013 A 
ATOM      5  C   UNL d   1     -45.587  12.789  22.712  0.00  0.00     0.103 A 
ATOM      6  C   UNL d   1     -45.399  13.442  22.244  0.00  0.00     0.023 A 
ATOM      7  O   UNL d   1     -43.882  11.464  22.375  0.00  0.00    -0.259 OA
ATOM      8  C   UNL d   1     -46.278  12.769  23.149  0.00  0.00     0.023 A 
ATOM      9  C   UNL d   1     -45.901  14.080  22.210  0.00  0.00     0.002 A 
ATOM     10  C   UNL d   1     -46.578  14.091  22.621  0.00  0.00     0.000 A 
ATOM     11  C   UNL d   1     -46.773  13.413  23.107  0.00  0.00     0.002 A 
ENDROOT
BRANCH   1  12
ATOM     12  C   UNL d   1     -43.502  12.891  21.371  0.00  0.00     0.305 C 
ATOM     13  O   UNL d   1     -43.447  12.482  20.644  0.00  0.00    -0.259 OA
BRANCH  12  14
ATOM     14  O   UNL d   1     -42.838  13.363  21.642  0.00  0.00    -0.268 OA
BRANCH  14  15
ATOM     15  C   UNL d   1     -42.320  13.616  21.074  0.00  0.00     0.168 C 
BRANCH  15  16
ATOM     16  C   UNL d   1     -41.600  13.938  21.315  0.00  0.00     0.220 C 
ATOM     17  O   UNL d   1     -41.250  13.681  22.012  0.00  0.00    -0.284 OA
BRANCH  16  18
ATOM     18  C   UNL d   1     -41.212  14.526  20.863  0.00  0.00     0.041 A 
ATOM     19  C   UNL d   1     -41.222  15.299  21.113  0.00  0.00     0.003 A 
ATOM     20  C   UNL d   1     -40.837  15.876  20.663  0.00  0.00     0.000 A 
ATOM     21  C   UNL d   1     -40.434  15.663  19.942  0.00  0.00     0.000 A 
ATOM     22  C   UNL d   1     -40.438  14.872  19.707  0.00  0.00     0.000 A 
ATOM     23  C   UNL d   1     -40.829  14.303  20.171  0.00  0.00     0.003 A 
ENDBRANCH  16  18
ENDBRANCH  15  16
ENDBRANCH  14  15
ENDBRANCH  12  14
ENDBRANCH   1  12
BRANCH   8  24
ATOM     24  C   UNL d   1     -46.489  12.128  23.624  0.00  0.00     0.002 C 
BRANCH  24  25
ATOM     25  C   UNL d   1     -47.271  11.935  23.697  0.00  0.00     0.000 C 
ATOM     26  C   UNL d   1     -47.504  11.110  23.692  0.00  0.00     0.000 C 
ENDBRANCH  24  25
ENDBRANCH   8  24
TORSDOF 7
ENDMDL
MODEL 5
REMARK VINA RESULT:      -6.2      7.630      9.120
REMARK  7 active torsions:
REMARK  status: ('A' for Active; 'I' for Inactive)
REMARK    1  A    between atoms: C_6  and  C_1 
REMARK    2  A    between atoms: O_8  and  C_6 
REMARK    3  A    between atoms: C_13  and  O_8 
REMARK    4  A    between atoms: C_9  and  C_13 
REMARK    5  A    between atoms: C_15  and  C_9 
REMARK    6  A    between atoms: C_19  and  C_11 
REMARK    7  A    between atoms: C_16  and  C_19 
ROOT
ATOM      1  C   UNL d   1     -40.300  15.094  20.554  0.00  0.00     0.127 A 
ATOM      2  C   UNL d   1     -40.442  14.437  21.085  0.00  0.00     0.305 A 
ATOM      3  O   UNL d   1     -39.949  14.291  21.715  0.00  0.00    -0.273 OA
ATOM      4  C   UNL d   1     -39.674  15.561  20.689  0.00  0.00     0.013 A 
ATOM      5  C   UNL d   1     -39.304  14.795  21.832  0.00  0.00     0.103 A 
ATOM      6  C   UNL d   1     -39.167  15.427  21.320  0.00  0.00     0.023 A 
ATOM      7  O   UNL d   1     -41.108  13.892  20.989  0.00  0.00    -0.259 OA
ATOM      8  C   UNL d   1     -38.807  14.650  22.465  0.00  0.00     0.023 A 
ATOM      9  C   UNL d   1     -38.533  15.920  21.438  0.00  0.00     0.002 A 
ATOM     10  C   UNL d   1     -38.033  15.807  22.042  0.00  0.00     0.000 A 
ATOM     11  C   UNL d   1     -38.175  15.150  22.573  0.00  0.00     0.002 A 
ENDROOT
BRANCH   1  12
ATOM     12  C   UNL d   1     -40.786  15.269  19.900  0.00  0.00     0.305 C 
ATOM     13  O   UNL d   1     -41.319  15.913  19.935  0.00  0.00    -0.259 OA
BRANCH  12  14
ATOM     14  O   UNL d   1     -40.746  14.793  19.187  0.00  0.00    -0.268 OA
BRANCH  14  15
ATOM     15  C   UNL d   1     -40.434  15.151  18.532  0.00  0.00     0.168 C 
BRANCH  15  16
ATOM     16  C   UNL d   1     -40.530  14.782  17.800  0.00  0.00     0.220 C 
ATOM     17  O   UNL d   1     -41.278  14.541  17.560  0.00  0.00    -0.284 OA
BRANCH  16  18
ATOM     18  C   UNL d   1     -39.881  14.647  17.290  0.00  0.00     0.041 A 
ATOM     19  C   UNL d   1     -39.501  13.928  17.302  0.00  0.00     0.003 A 
ATOM     20  C   UNL d   1     -38.860  13.800  16.797  0.00  0.00     0.000 A 
ATOM     21  C   UNL d   1     -38.598  14.414  16.268  0.00  0.00     0.000 A 
ATOM     22  C   UNL d   1     -38.998  15.136  16.272  0.00  0.00     0.000 A 
ATOM     23  C   UNL d   1     -39.641  15.250  16.786  0.00  0.00     0.003 A 
ENDBRANCH  16  18
ENDBRANCH  15  16
ENDBRANCH  14  15
ENDBRANCH  12  14
ENDBRANCH   1  12
BRANCH   8  24
ATOM     24  C   UNL d   1     -38.922  14.024  22.990  0.00  0.00     0.002 C 
BRANCH  24  25
ATOM     25  C   UNL d   1     -38.342  13.853  23.529  0.00  0.00     0.000 C 
ATOM     26  C   UNL d   1     -38.149  13.035  23.696  0.00  0.00     0.000 C 
ENDBRANCH  24  25
ENDBRANCH   8  24
TORSDOF 7
ENDMDL
MODEL 6
REMARK VINA RESULT:      -5.9      2.312      5.108
REMARK  7 active torsions:
REMARK  status: ('A' for Active; 'I' for Inactive)
REMARK    1  A    between atoms: C_6  and  C_1 
REMARK    2  A    between atoms: O_8  and  C_6 
REMARK    3  A    between atoms: C_13  and  O_8 
REMARK    4  A    between atoms: C_9  and  C_13 
REMARK    5  A    between atoms: C_15  and  C_9 
REMARK    6  A    between atoms: C_19  and  C_11 
REMARK    7  A    between atoms: C_16  and  C_19 
ROOT
ATOM      1  C   UNL d   1     -46.091  13.240  22.573  0.00  0.00     0.127 A 
ATOM      2  C   UNL d   1     -46.847  13.625  22.451  0.00  0.00     0.305 A 
ATOM      3  O   UNL d   1     -47.543  13.266  22.670  0.00  0.00    -0.273 OA
ATOM      4  C   UNL d   1     -46.083  12.521  22.906  0.00  0.00     0.013 A 
ATOM      5  C   UNL d   1     -47.504  12.516  23.016  0.00  0.00     0.103 A 
ATOM      6  C   UNL d   1     -46.776  12.145  23.133  0.00  0.00     0.023 A 
ATOM      7  O   UNL d   1     -46.921  14.410  22.092  0.00  0.00    -0.259 OA
ATOM      8  C   UNL d   1     -48.202  12.153  23.237  0.00  0.00     0.023 A 
ATOM      9  C   UNL d   1     -46.742  11.408  23.473  0.00  0.00     0.002 A 
ATOM     10  C   UNL d   1     -47.400  11.030  23.698  0.00  0.00     0.000 A 
ATOM     11  C   UNL d   1     -48.156  11.415  23.576  0.00  0.00     0.002 A 
ENDROOT
BRANCH   1  12
ATOM     12  C   UNL d   1     -45.362  13.582  22.359  0.00  0.00     0.305 C 
ATOM     13  O   UNL d   1     -45.182  14.365  22.592  0.00  0.00    -0.259 OA
BRANCH  12  14
ATOM     14  O   UNL d   1     -44.790  13.137  21.900  0.00  0.00    -0.268 OA
BRANCH  14  15
ATOM     15  C   UNL d   1     -44.067  13.483  21.789  0.00  0.00     0.168 C 
BRANCH  15  16
ATOM     16  C   UNL d   1     -43.496  13.072  21.359  0.00  0.00     0.220 C 
ATOM     17  O   UNL d   1     -43.683  12.347  21.020  0.00  0.00    -0.284 OA
BRANCH  16  18
ATOM     18  C   UNL d   1     -42.724  13.376  21.258  0.00  0.00     0.041 A 
ATOM     19  C   UNL d   1     -42.086  12.968  21.555  0.00  0.00     0.003 A 
ATOM     20  C   UNL d   1     -41.325  13.273  21.452  0.00  0.00     0.000 A 
ATOM     21  C   UNL d   1     -41.208  14.009  21.038  0.00  0.00     0.000 A 
ATOM     22  C   UNL d   1     -41.868  14.406  20.745  0.00  0.00     0.000 A 
ATOM     23  C   UNL d   1     -42.628  14.087  20.856  0.00  0.00     0.003 A 
ENDBRANCH  16  18
ENDBRANCH  15  16
ENDBRANCH  14  15
ENDBRANCH  12  14
ENDBRANCH   1  12
BRANCH   8  24
ATOM     24  C   UNL d   1     -48.942  12.503  23.130  0.00  0.00     0.002 C 
BRANCH  24  25
ATOM     25  C   UNL d   1     -49.607  12.074  23.302  0.00  0.00     0.000 C 
ATOM     26  C   UNL d   1     -50.355  12.296  22.949  0.00  0.00     0.000 C 
ENDBRANCH  24  25
ENDBRANCH   8  24
TORSDOF 7
ENDMDL
MODEL 7
REMARK VINA RESULT:      -5.9      8.553     10.274
REMARK  7 active torsions:
REMARK  status: ('A' for Active; 'I' for Inactive)
REMARK    1  A    between atoms: C_6  and  C_1 
REMARK    2  A    between atoms: O_8  and  C_6 
REMARK    3  A    between atoms: C_13  and  O_8 
REMARK    4  A    between atoms: C_9  and  C_13 
REMARK    5  A    between atoms: C_15  and  C_9 
REMARK    6  A    between atoms: C_19  and  C_11 
REMARK    7  A    between atoms: C_16  and  C_19 
ROOT
ATOM      1  C   UNL d   1     -38.614  14.698  18.584  0.00  0.00     0.127 A 
ATOM      2  C   UNL d   1     -38.677  15.082  17.821  0.00  0.00     0.305 A 
ATOM      3  O   UNL d   1     -38.542  14.672  17.131  0.00  0.00    -0.273 OA
ATOM      4  C   UNL d   1     -38.420  13.931  18.607  0.00  0.00     0.013 A 
ATOM      5  C   UNL d   1     -38.341  13.872  17.185  0.00  0.00     0.103 A 
ATOM      6  C   UNL d   1     -38.281  13.503  17.921  0.00  0.00     0.023 A 
ATOM      7  O   UNL d   1     -38.886  15.917  17.731  0.00  0.00    -0.259 OA
ATOM      8  C   UNL d   1     -38.205  13.458  16.494  0.00  0.00     0.023 A 
ATOM      9  C   UNL d   1     -38.083  12.717  17.970  0.00  0.00     0.002 A 
ATOM     10  C   UNL d   1     -37.945  12.287  17.319  0.00  0.00     0.000 A 
ATOM     11  C   UNL d   1     -38.008  12.671  16.555  0.00  0.00     0.002 A 
ENDROOT
BRANCH   1  12
ATOM     12  C   UNL d   1     -38.746  15.091  19.308  0.00  0.00     0.305 C 
ATOM     13  O   UNL d   1     -38.471  15.874  19.416  0.00  0.00    -0.259 OA
BRANCH  12  14
ATOM     14  O   UNL d   1     -39.165  14.698  19.947  0.00  0.00    -0.268 OA
BRANCH  14  15
ATOM     15  C   UNL d   1     -38.903  14.852  20.697  0.00  0.00     0.168 C 
BRANCH  15  16
ATOM     16  C   UNL d   1     -39.395  14.660  21.331  0.00  0.00     0.220 C 
ATOM     17  O   UNL d   1     -40.153  14.376  21.189  0.00  0.00    -0.284 OA
BRANCH  16  18
ATOM     18  C   UNL d   1     -39.139  14.747  22.122  0.00  0.00     0.041 A 
ATOM     19  C   UNL d   1     -38.803  14.117  22.510  0.00  0.00     0.003 A 
ATOM     20  C   UNL d   1     -38.553  14.208  23.292  0.00  0.00     0.000 A 
ATOM     21  C   UNL d   1     -38.645  14.956  23.690  0.00  0.00     0.000 A 
ATOM     22  C   UNL d   1     -38.989  15.582  23.278  0.00  0.00     0.000 A 
ATOM     23  C   UNL d   1     -39.236  15.475  22.491  0.00  0.00     0.003 A 
ENDBRANCH  16  18
ENDBRANCH  15  16
ENDBRANCH  14  15
ENDBRANCH  12  14
ENDBRANCH   1  12
BRANCH   8  24
ATOM     24  C   UNL d   1     -38.259  13.804  15.746  0.00  0.00     0.002 C 
BRANCH  24  25
ATOM     25  C   UNL d   1     -37.941  13.416  15.111  0.00  0.00     0.000 C 
ATOM     26  C   UNL d   1     -37.997  13.768  14.331  0.00  0.00     0.000 C 
ENDBRANCH  24  25
ENDBRANCH   8  24
TORSDOF 7
ENDMDL
MODEL 8
REMARK VINA RESULT:      -5.7      3.603      4.877
REMARK  7 active torsions:
REMARK  status: ('A' for Active; 'I' for Inactive)
REMARK    1  A    between atoms: C_6  and  C_1 
REMARK    2  A    between atoms: O_8  and  C_6 
REMARK    3  A    between atoms: C_13  and  O_8 
REMARK    4  A    between atoms: C_9  and  C_13 
REMARK    5  A    between atoms: C_15  and  C_9 
REMARK    6  A    between atoms: C_19  and  C_11 
REMARK    7  A    between atoms: C_16  and  C_19 
ROOT
ATOM      1  C   UNL d   1     -42.991  13.244  21.357  0.00  0.00     0.127 A 
ATOM      2  C   UNL d   1     -42.340  12.767  21.646  0.00  0.00     0.305 A 
ATOM      3  O   UNL d   1     -41.577  13.048  21.639  0.00  0.00    -0.273 OA
ATOM      4  C   UNL d   1     -42.835  13.970  21.081  0.00  0.00     0.013 A 
ATOM      5  C   UNL d   1     -41.444  13.809  21.345  0.00  0.00     0.103 A 
ATOM      6  C   UNL d   1     -42.070  14.268  21.067  0.00  0.00     0.023 A 
ATOM      7  O   UNL d   1     -42.448  11.967  21.960  0.00  0.00    -0.259 OA
ATOM      8  C   UNL d   1     -40.677  14.094  21.337  0.00  0.00     0.023 A 
ATOM      9  C   UNL d   1     -41.935  15.015  20.779  0.00  0.00     0.002 A 
ATOM     10  C   UNL d   1     -41.204  15.320  20.758  0.00  0.00     0.000 A 
ATOM     11  C   UNL d   1     -40.553  14.843  21.046  0.00  0.00     0.002 A 
ENDROOT
BRANCH   1  12
ATOM     12  C   UNL d   1     -43.783  12.985  21.351  0.00  0.00     0.305 C 
ATOM     13  O   UNL d   1     -44.093  12.601  20.675  0.00  0.00    -0.259 OA
BRANCH  12  14
ATOM     14  O   UNL d   1     -44.287  13.108  22.035  0.00  0.00    -0.268 OA
BRANCH  14  15
ATOM     15  C   UNL d   1     -45.085  13.122  21.898  0.00  0.00     0.168 C 
BRANCH  15  16
ATOM     16  C   UNL d   1     -45.595  13.059  22.543  0.00  0.00     0.220 C 
ATOM     17  O   UNL d   1     -45.382  12.597  23.189  0.00  0.00    -0.284 OA
BRANCH  16  18
ATOM     18  C   UNL d   1     -46.331  13.457  22.557  0.00  0.00     0.041 A 
ATOM     19  C   UNL d   1     -46.373  14.220  22.835  0.00  0.00     0.003 A 
ATOM     20  C   UNL d   1     -47.102  14.608  22.847  0.00  0.00     0.000 A 
ATOM     21  C   UNL d   1     -47.805  14.213  22.571  0.00  0.00     0.000 A 
ATOM     22  C   UNL d   1     -47.740  13.439  22.293  0.00  0.00     0.000 A 
ATOM     23  C   UNL d   1     -46.999  13.062  22.287  0.00  0.00     0.003 A 
ENDBRANCH  16  18
ENDBRANCH  15  16
ENDBRANCH  14  15
ENDBRANCH  12  14
ENDBRANCH   1  12
BRANCH   8  24
ATOM     24  C   UNL d   1     -40.033  13.654  21.610  0.00  0.00     0.002 C 
BRANCH  24  25
ATOM     25  C   UNL d   1     -39.305  14.006  21.644  0.00  0.00     0.000 C 
ATOM     26  C   UNL d   1     -38.635  13.559  21.937  0.00  0.00     0.000 C 
ENDBRANCH  24  25
ENDBRANCH   8  24
TORSDOF 7
ENDMDL
MODEL 9
REMARK VINA RESULT:      -4.7      8.226     10.203
REMARK  7 active torsions:
REMARK  status: ('A' for Active; 'I' for Inactive)
REMARK    1  A    between atoms: C_6  and  C_1 
REMARK    2  A    between atoms: O_8  and  C_6 
REMARK    3  A    between atoms: C_13  and  O_8 
REMARK    4  A    between atoms: C_9  and  C_13 
REMARK    5  A    between atoms: C_15  and  C_9 
REMARK    6  A    between atoms: C_19  and  C_11 
REMARK    7  A    between atoms: C_16  and  C_19 
ROOT
ATOM      1  C   UNL d   1     -39.352  14.684  18.702  0.00  0.00     0.127 A 
ATOM      2  C   UNL d   1     -39.773  13.947  18.820  0.00  0.00     0.305 A 
ATOM      3  O   UNL d   1     -40.365  13.883  19.375  0.00  0.00    -0.273 OA
ATOM      4  C   UNL d   1     -39.552  15.308  19.147  0.00  0.00     0.013 A 
ATOM      5  C   UNL d   1     -40.551  14.551  19.825  0.00  0.00     0.103 A 
ATOM      6  C   UNL d   1     -40.146  15.261  19.711  0.00  0.00     0.023 A 
ATOM      7  O   UNL d   1     -39.600  13.231  18.365  0.00  0.00    -0.259 OA
ATOM      8  C   UNL d   1     -41.145  14.490  20.383  0.00  0.00     0.023 A 
ATOM      9  C   UNL d   1     -40.333  15.915  20.155  0.00  0.00     0.002 A 
ATOM     10  C   UNL d   1     -40.903  15.888  20.704  0.00  0.00     0.000 A 
ATOM     11  C   UNL d   1     -41.324  15.151  20.822  0.00  0.00     0.002 A 
ENDROOT
BRANCH   1  12
ATOM     12  C   UNL d   1     -38.742  14.780  18.142  0.00  0.00     0.305 C 
ATOM     13  O   UNL d   1     -37.946  14.649  18.364  0.00  0.00    -0.259 OA
BRANCH  12  14
ATOM     14  O   UNL d   1     -38.924  15.014  17.336  0.00  0.00    -0.268 OA
BRANCH  14  15
ATOM     15  C   UNL d   1     -38.455  14.701  16.756  0.00  0.00     0.168 C 
BRANCH  15  16
ATOM     16  C   UNL d   1     -38.466  15.053  16.010  0.00  0.00     0.220 C 
ATOM     17  O   UNL d   1     -38.651  15.850  15.937  0.00  0.00    -0.284 OA
BRANCH  16  18
ATOM     18  C   UNL d   1     -38.292  14.615  15.319  0.00  0.00     0.041 A 
ATOM     19  C   UNL d   1     -38.265  13.803  15.351  0.00  0.00     0.003 A 
ATOM     20  C   UNL d   1     -38.093  13.375  14.666  0.00  0.00     0.000 A 
ATOM     21  C   UNL d   1     -37.945  13.780  13.930  0.00  0.00     0.000 A 
ATOM     22  C   UNL d   1     -37.978  14.604  13.920  0.00  0.00     0.000 A 
ATOM     23  C   UNL d   1     -38.153  15.021  14.618  0.00  0.00     0.003 A 
ENDBRANCH  16  18
ENDBRANCH  15  16
ENDBRANCH  14  15
ENDBRANCH  12  14
ENDBRANCH   1  12
BRANCH   8  24
ATOM     24  C   UNL d   1     -41.565  13.791  20.515  0.00  0.00     0.002 C 
BRANCH  24  25
ATOM     25  C   UNL d   1     -42.235  13.817  20.969  0.00  0.00     0.000 C 
ATOM     26  C   UNL d   1     -42.494  13.109  21.378  0.00  0.00     0.000 C 
ENDBRANCH  24  25
ENDBRANCH   8  24
TORSDOF 7
ENDMDL
