MODEL 1
REMARK VINA RESULT:      -4.8      0.000      0.000
REMARK  5 active torsions:
REMARK  status: ('A' for Active; 'I' for Inactive)
REMARK       I    between atoms: N_3  and  C_1 
REMARK    1  A    between atoms: C_4  and  C_1 
REMARK    2  A    between atoms: C_2  and  C_6 
REMARK    3  A    between atoms: O_5  and  C_2 
REMARK    4  A    between atoms: C_11  and  N_3 
REMARK    5  A    between atoms: C_14  and  O_5 
ROOT
ATOM      1  C   UNL d   1      57.048  -0.064  32.055  0.00  0.00     0.064 A 
ATOM      2  C   UNL d   1      56.922  -0.711  31.556  0.00  0.00     0.008 A 
ATOM      3  C   UNL d   1      57.551   0.551  31.816  0.00  0.00     0.008 A 
ATOM      4  C   UNL d   1      57.798  -0.130  30.584  0.00  0.00     0.135 A 
ATOM      5  C   UNL d   1      57.295  -0.745  30.823  0.00  0.00     0.032 A 
ATOM      6  C   UNL d   1      57.925   0.514  31.079  0.00  0.00     0.032 A 
ENDROOT
BRANCH   1   7
ATOM      7  C   UNL d   1      56.670  -0.036  32.791  0.00  0.00     0.300 C 
ATOM      8  O   UNL d   1      56.592  -0.725  33.232  0.00  0.00    -0.259 OA
BRANCH   7   9
ATOM      9  O   UNL d   1      56.375   0.679  33.077  0.00  0.00    -0.273 OA
BRANCH   9  10
ATOM     10  C   UNL d   1      55.779   0.677  33.646  0.00  0.00     0.103 A 
ATOM     11  C   UNL d   1      55.976   0.682  34.446  0.00  0.00     0.025 A 
ATOM     12  C   UNL d   1      55.382   0.679  35.007  0.00  0.00     0.002 A 
ATOM     13  C   UNL d   1      54.588   0.672  34.783  0.00  0.00     0.000 A 
ATOM     14  C   UNL d   1      54.395   0.666  33.976  0.00  0.00     0.002 A 
ATOM     15  C   UNL d   1      54.989   0.669  33.408  0.00  0.00     0.025 A 
ENDBRANCH   9  10
ENDBRANCH   7   9
ENDBRANCH   1   7
BRANCH   4  16
ATOM     16  N   UNL d   1      58.172  -0.168  29.843  0.00  0.00    -0.368 NA
ATOM     17  C   UNL d   1      58.544  -0.207  29.112  0.00  0.00     0.303 C 
ATOM     18  O   UNL d   1      58.223   0.189  28.465  0.00  0.00    -0.256 OA
BRANCH  17  19
ATOM     19  C   UNL d   1      59.237  -0.644  29.027  0.00  0.00     0.085 C 
ATOM     20  C   UNL d   1      59.939  -0.385  29.376  0.00  0.00     0.011 C 
ATOM     21  C   UNL d   1      58.665  -1.071  28.608  0.00  0.00     0.011 C 
ATOM     22  C   UNL d   1      59.234  -1.343  28.591  0.00  0.00     0.011 C 
ENDBRANCH  17  19
ENDBRANCH   4  16
TORSDOF 5
ENDMDL
MODEL 2
REMARK VINA RESULT:      -4.8      1.229      5.284
REMARK  5 active torsions:
REMARK  status: ('A' for Active; 'I' for Inactive)
REMARK       I    between atoms: N_3  and  C_1 
REMARK    1  A    between atoms: C_4  and  C_1 
REMARK    2  A    between atoms: C_2  and  C_6 
REMARK    3  A    between atoms: O_5  and  C_2 
REMARK    4  A    between atoms: C_11  and  N_3 
REMARK    5  A    between atoms: C_14  and  O_5 
ROOT
ATOM      1  C   UNL d   1      57.659  -0.049  30.807  0.00  0.00     0.064 A 
ATOM      2  C   UNL d   1      57.408  -0.764  31.138  0.00  0.00     0.008 A 
ATOM      3  C   UNL d   1      57.382   0.670  31.117  0.00  0.00     0.008 A 
ATOM      4  C   UNL d   1      56.606  -0.045  32.081  0.00  0.00     0.135 A 
ATOM      5  C   UNL d   1      56.884  -0.763  31.772  0.00  0.00     0.032 A 
ATOM      6  C   UNL d   1      56.855   0.668  31.754  0.00  0.00     0.032 A 
ENDROOT
BRANCH   1   7
ATOM      7  C   UNL d   1      58.186  -0.056  30.169  0.00  0.00     0.300 C 
ATOM      8  O   UNL d   1      57.991  -0.473  29.488  0.00  0.00    -0.259 OA
BRANCH   7   9
ATOM      9  O   UNL d   1      58.901   0.353  30.218  0.00  0.00    -0.273 OA
BRANCH   9  10
ATOM     10  C   UNL d   1      59.534   0.127  29.742  0.00  0.00     0.103 A 
ATOM     11  C   UNL d   1      59.520   0.293  28.935  0.00  0.00     0.025 A 
ATOM     12  C   UNL d   1      60.149   0.067  28.467  0.00  0.00     0.002 A 
ATOM     13  C   UNL d   1      60.799  -0.325  28.790  0.00  0.00     0.000 A 
ATOM     14  C   UNL d   1      60.809  -0.490  29.604  0.00  0.00     0.002 A 
ATOM     15  C   UNL d   1      60.177  -0.265  30.079  0.00  0.00     0.025 A 
ENDBRANCH   9  10
ENDBRANCH   7   9
ENDBRANCH   1   7
BRANCH   4  16
ATOM     16  N   UNL d   1      56.077  -0.049  32.722  0.00  0.00    -0.368 NA
ATOM     17  C   UNL d   1      55.556  -0.051  33.356  0.00  0.00     0.303 C 
ATOM     18  O   UNL d   1      54.834  -0.445  33.295  0.00  0.00    -0.256 OA
BRANCH  17  19
ATOM     19  C   UNL d   1      55.755   0.340  34.053  0.00  0.00     0.085 C 
ATOM     20  C   UNL d   1      56.544   0.394  34.290  0.00  0.00     0.011 C 
ATOM     21  C   UNL d   1      54.931   0.401  34.004  0.00  0.00     0.011 C 
ATOM     22  C   UNL d   1      55.166   0.680  34.518  0.00  0.00     0.011 C 
ENDBRANCH  17  19
ENDBRANCH   4  16
TORSDOF 5
ENDMDL
