MODEL 1
REMARK VINA RESULT:      39.1      0.000      0.000
REMARK  3 active torsions:
REMARK  status: ('A' for Active; 'I' for Inactive)
REMARK    1  A    between atoms: C_10  and  C_2 
REMARK    2  A    between atoms: C_4  and  C_10 
REMARK    3  A    between atoms: C_27  and  N_13 
ROOT
ATOM      1  C   UNL d   1      45.010 -16.982  44.653  0.00  0.00     0.093 A 
ATOM      2  C   UNL d   1      46.096 -18.124  44.125  0.00  0.00     0.035 A 
ATOM      3  C   UNL d   1      45.688 -16.739  44.356  0.00  0.00    -0.012 A 
ATOM      4  C   UNL d   1      45.435 -14.535  44.546  0.00  0.00     0.056 A 
ATOM      5  C   UNL d   1      45.413 -18.380  44.424  0.00  0.00     0.180 A 
ATOM      6  C   UNL d   1      46.106 -14.294  44.252  0.00  0.00    -0.012 A 
ATOM      7  C   UNL d   1      45.288 -15.350  44.584  0.00  0.00    -0.016 A 
ATOM      8  C   UNL d   1      45.826 -15.918  44.322  0.00  0.00    -0.007 A 
ATOM      9  C   UNL d   1      46.226 -17.307  44.094  0.00  0.00    -0.001 A 
ATOM     10  C   UNL d   1      46.646 -14.870  43.989  0.00  0.00    -0.004 A 
ATOM     11  C   UNL d   1      44.470 -16.406  44.917  0.00  0.00    -0.016 A 
ATOM     12  C   UNL d   1      46.506 -15.682  44.024  0.00  0.00    -0.001 A 
ATOM     13  C   UNL d   1      44.610 -15.594  44.881  0.00  0.00    -0.007 A 
ATOM     14  C   UNL d   1      44.898 -13.967  44.808  0.00  0.00    -0.015 A 
ATOM     15  C   UNL d   1      46.256 -13.459  44.213  0.00  0.00     0.038 A 
ATOM     16  O   UNL d   1      45.129 -19.099  44.527  0.00  0.00    -0.291 OA
ATOM     17  C   UNL d   1      44.325 -17.229  44.954  0.00  0.00     0.017 C 
ATOM     18  C   UNL d   1      45.024 -13.133  44.780  0.00  0.00     0.038 A 
ATOM     19  C   UNL d   1      45.709 -12.886  44.479  0.00  0.00     0.195 A 
ATOM     20  C   UNL d   1      44.507 -14.860  44.953  0.00  0.00     0.013 C 
ATOM     21  O   UNL d   1      45.853 -12.090  44.442  0.00  0.00    -0.287 OA
ENDROOT
BRANCH   2  22
ATOM     22  C   UNL d   1      46.647 -18.652  43.858  0.00  0.00     0.006 C 
BRANCH  22  23
ATOM     23  C   UNL d   1      46.580 -19.036  43.135  0.00  0.00     0.039 A 
ATOM     24  C   UNL d   1      46.561 -18.825  42.359  0.00  0.00     0.085 A 
ATOM     25  N   UNL d   1      46.481 -19.530  41.906  0.00  0.00    -0.228 N 
ATOM     26  C   UNL d   1      46.619 -18.012  42.150  0.00  0.00     0.021 C 
ATOM     27  N   UNL d   1      46.450 -20.180  42.404  0.00  0.00    -0.164 NA
ATOM     28  C   UNL d   1      46.512 -19.872  43.172  0.00  0.00     0.122 A 
BRANCH  25  29
ATOM     29  C   UNL d   1      46.439 -19.554  41.068  0.00  0.00     0.101 C 
ATOM     30  C   UNL d   1      46.646 -20.266  40.653  0.00  0.00     0.022 C 
ENDBRANCH  25  29
ENDBRANCH  22  23
ENDBRANCH   2  22
TORSDOF 3
ENDMDL
