MODEL 1
REMARK VINA RESULT:      89.3      0.000      0.000
REMARK  7 active torsions:
REMARK  status: ('A' for Active; 'I' for Inactive)
REMARK    1  A    between atoms: N_2  and  S_1 
REMARK    2  A    between atoms: C_6  and  S_1 
REMARK    3  A    between atoms: C_3  and  N_2 
REMARK       I    between atoms: C_7  and  N_10 
REMARK    4  A    between atoms: C_17  and  C_7 
REMARK    5  A    between atoms: N_10  and  C_18 
REMARK    6  A    between atoms: C_19  and  C_17 
REMARK    7  A    between atoms: O_27  and  C_20 
ROOT
ATOM      1  C   UNL d   1      60.718  48.290  50.668  0.00  0.00     0.106 A 
ATOM      2  C   UNL d   1      60.912  47.791  51.305  0.00  0.00     0.015 A 
ATOM      3  C   UNL d   1      60.934  48.103  49.902  0.00  0.00     0.015 A 
ATOM      4  C   UNL d   1      61.554  46.898  50.375  0.00  0.00     0.085 A 
ATOM      5  C   UNL d   1      61.327  47.103  51.141  0.00  0.00     0.020 A 
ATOM      6  C   UNL d   1      61.353  47.403  49.759  0.00  0.00     0.020 A 
ENDROOT
BRANCH   1   7
ATOM      7  S   UNL d   1      60.290  49.003  50.818  0.00  0.00     0.300 S 
ATOM      8  O   UNL d   1      60.257  49.135  49.978  0.00  0.00    -0.198 OA
ATOM      9  O   UNL d   1      60.336  48.853  51.635  0.00  0.00    -0.198 OA
BRANCH   7  10
ATOM     10  N   UNL d   1      59.869  49.707  50.941  0.00  0.00     0.034 NA
BRANCH  10  11
ATOM     11  C   UNL d   1      59.030  49.707  50.755  0.00  0.00     0.760 A 
ATOM     12  N   UNL d   1      58.800  49.707  49.959  0.00  0.00    -0.059 NA
ATOM     13  C   UNL d   1      57.990  49.707  49.775  0.00  0.00     0.101 A 
ATOM     14  C   UNL d   1      57.726  49.708  48.956  0.00  0.00     0.021 C 
ATOM     15  C   UNL d   1      57.435  49.708  50.375  0.00  0.00     0.040 A 
ATOM     16  C   UNL d   1      57.691  49.707  51.145  0.00  0.00     0.101 A 
ATOM     17  N   UNL d   1      58.484  49.707  51.343  0.00  0.00    -0.059 NA
ATOM     18  C   UNL d   1      57.098  49.707  51.748  0.00  0.00     0.021 C 
ENDBRANCH  10  11
ENDBRANCH   7  10
ENDBRANCH   1   7
BRANCH   4  19
ATOM     19  N   UNL d   1      61.973  46.204  50.205  0.00  0.00    -0.208 NA
ATOM     20  C   UNL d   1      61.807  45.772  49.509  0.00  0.00     0.279 C 
ATOM     21  O   UNL d   1      61.209  46.040  48.974  0.00  0.00    -0.265 OA
BRANCH  20  22
ATOM     22  C   UNL d   1      62.229  45.085  49.349  0.00  0.00     0.062 C 
BRANCH  22  23
ATOM     23  C   UNL d   1      62.244  44.440  49.918  0.00  0.00     0.005 A 
ATOM     24  C   UNL d   1      62.911  43.955  49.967  0.00  0.00     0.002 A 
ATOM     25  C   UNL d   1      62.924  43.340  50.510  0.00  0.00     0.024 A 
ATOM     26  C   UNL d   1      62.284  43.195  51.009  0.00  0.00     0.094 A 
ATOM     27  C   UNL d   1      61.628  43.664  50.968  0.00  0.00     0.024 A 
ATOM     28  C   UNL d   1      61.600  44.283  50.430  0.00  0.00     0.002 A 
BRANCH  26  29
ATOM     29  O   UNL d   1      62.336  42.548  51.558  0.00  0.00    -0.328 OA
ATOM     30  C   UNL d   1      62.523  41.779  51.320  0.00  0.00     0.181 C 
ENDBRANCH  26  29
ENDBRANCH  22  23
ENDBRANCH  20  22
ENDBRANCH   4  19
TORSDOF 7
ENDMDL
