MODEL 1
REMARK VINA RESULT:      70.7      0.000      0.000
REMARK  8 active torsions:
REMARK  status: ('A' for Active; 'I' for Inactive)
REMARK    1  A    between atoms: C_6  and  N_1 
REMARK    2  A    between atoms: C_7  and  C_2 
REMARK    3  A    between atoms: C_3  and  C_9 
REMARK    4  A    between atoms: O_5  and  C_3 
REMARK    5  A    between atoms: C_4  and  O_5 
REMARK    6  A    between atoms: C_8  and  C_7 
REMARK    7  A    between atoms: C_12  and  C_8 
REMARK    8  A    between atoms: C_10  and  C_12 
ROOT
ATOM      1  C   UNL d   1     -50.581  26.727  34.394  0.00  0.00     0.064 A 
ATOM      2  C   UNL d   1     -50.390  26.911  35.176  0.00  0.00     0.106 A 
ATOM      3  C   UNL d   1     -50.176  27.101  33.769  0.00  0.00     0.035 A 
ATOM      4  C   UNL d   1     -49.792  27.470  35.335  0.00  0.00     0.027 A 
ATOM      5  C   UNL d   1     -49.585  27.653  33.931  0.00  0.00     0.140 A 
ATOM      6  C   UNL d   1     -49.393  27.837  34.713  0.00  0.00     0.032 A 
ATOM      7  F   UNL d   1     -49.186  28.021  33.309  0.00  0.00    -0.204 F 
ENDROOT
BRANCH   2   8
ATOM      8  O   UNL d   1     -50.788  26.544  35.801  0.00  0.00    -0.273 OA
BRANCH   8   9
ATOM      9  C   UNL d   1     -50.738  26.863  36.563  0.00  0.00     0.300 C 
ATOM     10  O   UNL d   1     -50.312  27.555  36.698  0.00  0.00    -0.259 OA
BRANCH   9  11
ATOM     11  C   UNL d   1     -51.119  26.483  37.187  0.00  0.00     0.065 A 
ATOM     12  C   UNL d   1     -51.923  26.316  37.134  0.00  0.00     0.029 A 
ATOM     13  C   UNL d   1     -52.308  25.937  37.752  0.00  0.00     0.127 A 
ATOM     14  C   UNL d   1     -51.857  25.727  38.438  0.00  0.00     0.024 A 
ATOM     15  C   UNL d   1     -51.082  25.890  38.486  0.00  0.00     0.002 A 
ATOM     16  C   UNL d   1     -50.693  26.272  37.861  0.00  0.00     0.005 A 
BRANCH  13  17
ATOM     17  N   UNL d   1     -53.123  25.761  37.713  0.00  0.00    -0.114 N 
ATOM     18  O   UNL d   1     -53.647  26.119  38.231  0.00  0.00    -0.532 OA
ATOM     19  O   UNL d   1     -53.393  25.224  37.147  0.00  0.00    -0.532 OA
ENDBRANCH  13  17
ENDBRANCH   9  11
ENDBRANCH   8   9
ENDBRANCH   2   8
BRANCH   1  20
ATOM     20  C   UNL d   1     -51.175  26.172  34.233  0.00  0.00     0.198 C 
ATOM     21  O   UNL d   1     -51.970  26.381  34.321  0.00  0.00    -0.286 OA
BRANCH  20  22
ATOM     22  C   UNL d   1     -50.972  25.412  33.985  0.00  0.00     0.043 C 
BRANCH  22  23
ATOM     23  C   UNL d   1     -51.319  25.095  33.306  0.00  0.00     0.010 C 
BRANCH  23  24
ATOM     24  C   UNL d   1     -51.827  24.448  33.368  0.00  0.00     0.030 A 
ATOM     25  S   UNL d   1     -52.653  24.470  33.398  0.00  0.00    -0.086 SA
ATOM     26  C   UNL d   1     -52.936  23.697  33.461  0.00  0.00     0.035 A 
ATOM     27  C   UNL d   1     -52.286  23.188  33.470  0.00  0.00     0.007 A 
ATOM     28  C   UNL d   1     -51.601  23.650  33.413  0.00  0.00     0.007 A 
ENDBRANCH  23  24
ENDBRANCH  22  23
ENDBRANCH  20  22
ENDBRANCH   1  20
TORSDOF 8
ENDMDL
MODEL 2
REMARK VINA RESULT:      71.5      2.963      4.051
REMARK  8 active torsions:
REMARK  status: ('A' for Active; 'I' for Inactive)
REMARK    1  A    between atoms: C_6  and  N_1 
REMARK    2  A    between atoms: C_7  and  C_2 
REMARK    3  A    between atoms: C_3  and  C_9 
REMARK    4  A    between atoms: O_5  and  C_3 
REMARK    5  A    between atoms: C_4  and  O_5 
REMARK    6  A    between atoms: C_8  and  C_7 
REMARK    7  A    between atoms: C_12  and  C_8 
REMARK    8  A    between atoms: C_10  and  C_12 
ROOT
ATOM      1  C   UNL d   1     -50.630  27.070  33.977  0.00  0.00     0.064 A 
ATOM      2  C   UNL d   1     -50.257  27.798  33.864  0.00  0.00     0.106 A 
ATOM      3  C   UNL d   1     -51.437  26.984  33.790  0.00  0.00     0.035 A 
ATOM      4  C   UNL d   1     -50.692  28.443  33.563  0.00  0.00     0.027 A 
ATOM      5  C   UNL d   1     -51.863  27.625  33.492  0.00  0.00     0.140 A 
ATOM      6  C   UNL d   1     -51.491  28.353  33.379  0.00  0.00     0.032 A 
ATOM      7  F   UNL d   1     -52.663  27.535  33.308  0.00  0.00    -0.204 F 
ENDROOT
BRANCH   2   8
ATOM      8  O   UNL d   1     -49.456  27.891  34.048  0.00  0.00    -0.273 OA
BRANCH   8   9
ATOM      9  C   UNL d   1     -49.123  28.648  34.060  0.00  0.00     0.300 C 
ATOM     10  O   UNL d   1     -49.396  29.232  33.548  0.00  0.00    -0.259 OA
BRANCH   9  11
ATOM     11  C   UNL d   1     -48.514  28.815  34.590  0.00  0.00     0.065 A 
ATOM     12  C   UNL d   1     -48.336  29.597  34.775  0.00  0.00     0.029 A 
ATOM     13  C   UNL d   1     -47.731  29.769  35.302  0.00  0.00     0.127 A 
ATOM     14  C   UNL d   1     -47.301  29.125  35.646  0.00  0.00     0.024 A 
ATOM     15  C   UNL d   1     -47.476  28.372  35.465  0.00  0.00     0.002 A 
ATOM     16  C   UNL d   1     -48.087  28.198  34.933  0.00  0.00     0.005 A 
BRANCH  13  17
ATOM     17  N   UNL d   1     -47.538  30.558  35.499  0.00  0.00    -0.114 N 
ATOM     18  O   UNL d   1     -47.447  31.119  34.910  0.00  0.00    -0.532 OA
ATOM     19  O   UNL d   1     -47.442  30.763  36.293  0.00  0.00    -0.532 OA
ENDBRANCH  13  17
ENDBRANCH   9  11
ENDBRANCH   8   9
ENDBRANCH   2   8
BRANCH   1  20
ATOM     20  C   UNL d   1     -50.200  26.427  34.276  0.00  0.00     0.198 C 
ATOM     21  O   UNL d   1     -49.458  26.550  34.618  0.00  0.00    -0.286 OA
BRANCH  20  22
ATOM     22  C   UNL d   1     -50.514  25.665  34.232  0.00  0.00     0.043 C 
BRANCH  22  23
ATOM     23  C   UNL d   1     -50.655  25.322  33.494  0.00  0.00     0.010 C 
BRANCH  23  24
ATOM     24  C   UNL d   1     -50.868  24.526  33.446  0.00  0.00     0.030 A 
ATOM     25  S   UNL d   1     -51.629  24.214  33.521  0.00  0.00    -0.086 SA
ATOM     26  C   UNL d   1     -51.588  23.394  33.435  0.00  0.00     0.035 A 
ATOM     27  C   UNL d   1     -50.799  23.191  33.307  0.00  0.00     0.007 A 
ATOM     28  C   UNL d   1     -50.352  23.889  33.313  0.00  0.00     0.007 A 
ENDBRANCH  23  24
ENDBRANCH  22  23
ENDBRANCH  20  22
ENDBRANCH   1  20
TORSDOF 8
ENDMDL
MODEL 3
REMARK VINA RESULT:      71.7      1.747      3.968
REMARK  8 active torsions:
REMARK  status: ('A' for Active; 'I' for Inactive)
REMARK    1  A    between atoms: C_6  and  N_1 
REMARK    2  A    between atoms: C_7  and  C_2 
REMARK    3  A    between atoms: C_3  and  C_9 
REMARK    4  A    between atoms: O_5  and  C_3 
REMARK    5  A    between atoms: C_4  and  O_5 
REMARK    6  A    between atoms: C_8  and  C_7 
REMARK    7  A    between atoms: C_12  and  C_8 
REMARK    8  A    between atoms: C_10  and  C_12 
ROOT
ATOM      1  C   UNL d   1     -50.006  27.307  35.221  0.00  0.00     0.064 A 
ATOM      2  C   UNL d   1     -50.069  26.810  34.564  0.00  0.00     0.106 A 
ATOM      3  C   UNL d   1     -49.435  27.914  35.228  0.00  0.00     0.035 A 
ATOM      4  C   UNL d   1     -49.562  26.919  33.912  0.00  0.00     0.027 A 
ATOM      5  C   UNL d   1     -48.935  28.018  34.580  0.00  0.00     0.140 A 
ATOM      6  C   UNL d   1     -48.998  27.522  33.923  0.00  0.00     0.032 A 
ATOM      7  F   UNL d   1     -48.371  28.621  34.591  0.00  0.00    -0.204 F 
ENDROOT
BRANCH   2   8
ATOM      8  O   UNL d   1     -50.634  26.205  34.550  0.00  0.00    -0.273 OA
BRANCH   8   9
ATOM      9  C   UNL d   1     -51.021  26.022  33.843  0.00  0.00     0.300 C 
ATOM     10  O   UNL d   1     -51.214  26.617  33.307  0.00  0.00    -0.259 OA
BRANCH   9  11
ATOM     11  C   UNL d   1     -51.213  25.237  33.677  0.00  0.00     0.065 A 
ATOM     12  C   UNL d   1     -52.000  24.999  33.684  0.00  0.00     0.029 A 
ATOM     13  C   UNL d   1     -52.198  24.220  33.520  0.00  0.00     0.127 A 
ATOM     14  C   UNL d   1     -51.573  23.674  33.345  0.00  0.00     0.024 A 
ATOM     15  C   UNL d   1     -50.814  23.908  33.339  0.00  0.00     0.002 A 
ATOM     16  C   UNL d   1     -50.615  24.696  33.505  0.00  0.00     0.005 A 
BRANCH  13  17
ATOM     17  N   UNL d   1     -52.993  23.963  33.523  0.00  0.00    -0.114 N 
ATOM     18  O   UNL d   1     -53.175  23.188  33.332  0.00  0.00    -0.532 OA
ATOM     19  O   UNL d   1     -53.589  24.498  33.721  0.00  0.00    -0.532 OA
ENDBRANCH  13  17
ENDBRANCH   9  11
ENDBRANCH   8   9
ENDBRANCH   2   8
BRANCH   1  20
ATOM     20  C   UNL d   1     -50.510  27.200  35.871  0.00  0.00     0.198 C 
ATOM     21  O   UNL d   1     -51.311  27.043  35.750  0.00  0.00    -0.286 OA
BRANCH  20  22
ATOM     22  C   UNL d   1     -50.209  27.251  36.638  0.00  0.00     0.043 C 
BRANCH  22  23
ATOM     23  C   UNL d   1     -50.286  26.610  37.151  0.00  0.00     0.010 C 
BRANCH  23  24
ATOM     24  C   UNL d   1     -50.776  26.671  37.812  0.00  0.00     0.030 A 
ATOM     25  S   UNL d   1     -51.419  26.184  37.997  0.00  0.00    -0.086 SA
ATOM     26  C   UNL d   1     -51.751  26.443  38.706  0.00  0.00     0.035 A 
ATOM     27  C   UNL d   1     -51.317  27.093  38.969  0.00  0.00     0.007 A 
ATOM     28  C   UNL d   1     -50.714  27.236  38.418  0.00  0.00     0.007 A 
ENDBRANCH  23  24
ENDBRANCH  22  23
ENDBRANCH  20  22
ENDBRANCH   1  20
TORSDOF 8
ENDMDL
