MODEL 1
REMARK VINA RESULT:      14.6      0.000      0.000
REMARK  3 active torsions:
REMARK  status: ('A' for Active; 'I' for Inactive)
REMARK       I    between atoms: C_6  and  N_1 
REMARK    1  A    between atoms: C_7  and  C_3 
REMARK    2  A    between atoms: C_8  and  C_4 
REMARK    3  A    between atoms: C_20  and  C_18 
ROOT
ATOM      1  N   UNL d   1      46.136 -17.954  43.226  0.00  0.00    -0.193 N 
ATOM      2  N   UNL d   1      46.025 -17.147  43.209  0.00  0.00    -0.163 NA
ATOM      3  C   UNL d   1      46.092 -18.208  44.011  0.00  0.00     0.110 A 
ATOM      4  C   UNL d   1      45.912 -16.899  43.987  0.00  0.00     0.103 A 
ATOM      5  C   UNL d   1      45.953 -17.549  44.469  0.00  0.00     0.042 A 
ATOM      6  C   UNL d   1      46.274 -18.455  42.552  0.00  0.00     0.281 C 
ATOM      7  O   UNL d   1      46.375 -19.247  42.650  0.00  0.00    -0.265 OA
ATOM      8  C   UNL d   1      46.303 -18.112  41.802  0.00  0.00     0.068 C 
ENDROOT
BRANCH   4   9
ATOM      9  C   UNL d   1      45.779 -16.123  44.228  0.00  0.00     0.019 A 
ATOM     10  C   UNL d   1      45.090 -15.925  44.639  0.00  0.00     0.002 A 
ATOM     11  C   UNL d   1      44.957 -15.149  44.880  0.00  0.00     0.000 A 
ATOM     12  C   UNL d   1      45.518 -14.563  44.710  0.00  0.00     0.000 A 
ATOM     13  C   UNL d   1      46.206 -14.758  44.301  0.00  0.00     0.000 A 
ATOM     14  C   UNL d   1      46.340 -15.536  44.058  0.00  0.00     0.002 A 
BRANCH  12  15
ATOM     15  C   UNL d   1      45.385 -13.785  44.952  0.00  0.00     0.000 C 
ATOM     16  C   UNL d   1      45.958 -13.206  44.824  0.00  0.00     0.000 C 
ENDBRANCH  12  15
ENDBRANCH   4   9
BRANCH   3  17
ATOM     17  C   UNL d   1      46.175 -18.992  44.270  0.00  0.00     0.118 A 
ATOM     18  O   UNL d   1      45.790 -19.644  43.954  0.00  0.00    -0.304 OA
ATOM     19  C   UNL d   1      46.027 -20.330  44.374  0.00  0.00     0.123 A 
ATOM     20  C   UNL d   1      46.566 -20.088  44.954  0.00  0.00     0.029 A 
ATOM     21  C   UNL d   1      46.647 -19.253  44.877  0.00  0.00     0.028 A 
ENDBRANCH   3  17
TORSDOF 3
ENDMDL
MODEL 2
REMARK VINA RESULT:      14.8      0.822      1.748
REMARK  3 active torsions:
REMARK  status: ('A' for Active; 'I' for Inactive)
REMARK       I    between atoms: C_6  and  N_1 
REMARK    1  A    between atoms: C_7  and  C_3 
REMARK    2  A    between atoms: C_8  and  C_4 
REMARK    3  A    between atoms: C_20  and  C_18 
ROOT
ATOM      1  N   UNL d   1      46.329 -18.570  43.895  0.00  0.00    -0.193 N 
ATOM      2  N   UNL d   1      46.181 -17.936  44.385  0.00  0.00    -0.163 NA
ATOM      3  C   UNL d   1      46.273 -18.315  43.112  0.00  0.00     0.110 A 
ATOM      4  C   UNL d   1      46.032 -17.284  43.903  0.00  0.00     0.103 A 
ATOM      5  C   UNL d   1      46.090 -17.521  43.131  0.00  0.00     0.042 A 
ATOM      6  C   UNL d   1      46.512 -19.364  44.144  0.00  0.00     0.281 C 
ATOM      7  O   UNL d   1      46.646 -19.939  43.598  0.00  0.00    -0.265 OA
ATOM      8  C   UNL d   1      46.547 -19.528  44.952  0.00  0.00     0.068 C 
ENDROOT
BRANCH   4   9
ATOM      9  C   UNL d   1      45.856 -16.524  44.166  0.00  0.00     0.019 A 
ATOM     10  C   UNL d   1      45.221 -16.396  44.678  0.00  0.00     0.002 A 
ATOM     11  C   UNL d   1      45.044 -15.636  44.941  0.00  0.00     0.000 A 
ATOM     12  C   UNL d   1      45.507 -14.995  44.691  0.00  0.00     0.000 A 
ATOM     13  C   UNL d   1      46.141 -15.120  44.180  0.00  0.00     0.000 A 
ATOM     14  C   UNL d   1      46.318 -15.883  43.916  0.00  0.00     0.002 A 
BRANCH  12  15
ATOM     15  C   UNL d   1      45.330 -14.233  44.955  0.00  0.00     0.000 C 
ATOM     16  C   UNL d   1      45.684 -13.578  44.600  0.00  0.00     0.000 C 
ENDBRANCH  12  15
ENDBRANCH   4   9
BRANCH   3  17
ATOM     17  C   UNL d   1      46.385 -18.789  42.440  0.00  0.00     0.118 A 
ATOM     18  O   UNL d   1      46.590 -18.521  41.693  0.00  0.00    -0.304 OA
ATOM     19  C   UNL d   1      46.647 -19.178  41.174  0.00  0.00     0.123 A 
ATOM     20  C   UNL d   1      46.473 -19.855  41.616  0.00  0.00     0.029 A 
ATOM     21  C   UNL d   1      46.312 -19.597  42.402  0.00  0.00     0.028 A 
ENDBRANCH   3  17
TORSDOF 3
ENDMDL
