MODEL 1
REMARK VINA RESULT:      -9.6      0.000      0.000
REMARK  1 active torsions:
REMARK  status: ('A' for Active; 'I' for Inactive)
REMARK    1  A    between atoms: N_3  and  C_1 
ROOT
ATOM      1  C   UNL d   1      52.976  32.035  53.441  0.00  0.00     0.110 A 
ATOM      2  C   UNL d   1      52.222  32.345  53.255  0.00  0.00     0.212 A 
ATOM      3  C   UNL d   1      52.128  33.160  53.165  0.00  0.00     0.046 A 
ATOM      4  C   UNL d   1      53.621  32.548  53.534  0.00  0.00     0.056 A 
ATOM      5  S   UNL d   1      53.513  33.370  53.441  0.00  0.00    -0.085 SA
ATOM      6  C   UNL d   1      52.771  33.670  53.258  0.00  0.00     0.033 A 
ATOM      7  C   UNL d   1      51.387  33.469  52.981  0.00  0.00     0.004 A 
ATOM      8  O   UNL d   1      51.580  31.839  53.162  0.00  0.00    -0.285 OA
ATOM      9  C   UNL d   1      52.669  34.483  53.166  0.00  0.00     0.007 A 
ATOM     10  C   UNL d   1      51.284  34.272  52.891  0.00  0.00     0.000 A 
ATOM     11  C   UNL d   1      51.935  34.789  52.984  0.00  0.00     0.001 A 
ATOM     12  C   UNL d   1      50.548  34.586  52.708  0.00  0.00     0.000 C 
ENDROOT
BRANCH   1  13
ATOM     13  N   UNL d   1      53.079  31.220  53.533  0.00  0.00    -0.301 N 
ATOM     14  C   UNL d   1      53.140  30.896  54.278  0.00  0.00     0.080 A 
ATOM     15  C   UNL d   1      53.244  30.080  54.376  0.00  0.00     0.018 A 
ATOM     16  C   UNL d   1      53.304  29.755  55.126  0.00  0.00     0.002 A 
ATOM     17  C   UNL d   1      53.286  29.594  53.714  0.00  0.00     0.003 A 
ATOM     18  C   UNL d   1      53.408  28.942  55.221  0.00  0.00     0.000 A 
ATOM     19  C   UNL d   1      53.451  28.454  54.556  0.00  0.00     0.000 A 
ATOM     20  C   UNL d   1      53.389  28.782  53.798  0.00  0.00     0.000 A 
ATOM     21  C   UNL d   1      53.225  29.919  52.945  0.00  0.00     0.019 A 
ATOM     22  C   UNL d   1      53.122  30.730  52.866  0.00  0.00     0.080 A 
ENDBRANCH   1  13
TORSDOF 1
ENDMDL
MODEL 2
REMARK VINA RESULT:      -9.2      1.285      4.447
REMARK  1 active torsions:
REMARK  status: ('A' for Active; 'I' for Inactive)
REMARK    1  A    between atoms: N_3  and  C_1 
ROOT
ATOM      1  C   UNL d   1      53.291  31.987  53.686  0.00  0.00     0.110 A 
ATOM      2  C   UNL d   1      53.408  31.380  54.248  0.00  0.00     0.212 A 
ATOM      3  C   UNL d   1      53.289  30.594  54.028  0.00  0.00     0.046 A 
ATOM      4  C   UNL d   1      53.058  31.795  52.913  0.00  0.00     0.056 A 
ATOM      5  S   UNL d   1      52.941  30.996  52.703  0.00  0.00    -0.085 SA
ATOM      6  C   UNL d   1      53.056  30.403  53.259  0.00  0.00     0.033 A 
ATOM      7  C   UNL d   1      53.402  29.992  54.579  0.00  0.00     0.004 A 
ATOM      8  O   UNL d   1      53.639  31.567  55.015  0.00  0.00    -0.285 OA
ATOM      9  C   UNL d   1      52.939  29.615  53.046  0.00  0.00     0.007 A 
ATOM     10  C   UNL d   1      53.287  29.213  54.372  0.00  0.00     0.000 A 
ATOM     11  C   UNL d   1      53.052  29.019  53.592  0.00  0.00     0.001 A 
ATOM     12  C   UNL d   1      53.399  28.609  54.916  0.00  0.00     0.000 C 
ENDROOT
BRANCH   1  13
ATOM     13  N   UNL d   1      53.408  32.779  53.898  0.00  0.00    -0.301 N 
ATOM     14  C   UNL d   1      52.797  33.313  53.836  0.00  0.00     0.080 A 
ATOM     15  C   UNL d   1      52.909  34.107  54.047  0.00  0.00     0.018 A 
ATOM     16  C   UNL d   1      52.294  34.644  53.985  0.00  0.00     0.002 A 
ATOM     17  C   UNL d   1      53.644  34.354  54.320  0.00  0.00     0.003 A 
ATOM     18  C   UNL d   1      52.407  35.435  54.195  0.00  0.00     0.000 A 
ATOM     19  C   UNL d   1      53.146  35.683  54.470  0.00  0.00     0.000 A 
ATOM     20  C   UNL d   1      53.767  35.140  54.532  0.00  0.00     0.000 A 
ATOM     21  C   UNL d   1      54.277  33.811  54.386  0.00  0.00     0.019 A 
ATOM     22  C   UNL d   1      54.149  33.028  54.173  0.00  0.00     0.080 A 
ENDBRANCH   1  13
TORSDOF 1
ENDMDL
MODEL 3
REMARK VINA RESULT:      -9.0      2.184      4.531
REMARK  1 active torsions:
REMARK  status: ('A' for Active; 'I' for Inactive)
REMARK    1  A    between atoms: N_3  and  C_1 
ROOT
ATOM      1  C   UNL d   1      52.181  33.404  53.211  0.00  0.00     0.110 A 
ATOM      2  C   UNL d   1      52.716  33.876  53.646  0.00  0.00     0.212 A 
ATOM      3  C   UNL d   1      53.347  33.519  54.039  0.00  0.00     0.046 A 
ATOM      4  C   UNL d   1      52.289  32.582  53.177  0.00  0.00     0.056 A 
ATOM      5  S   UNL d   1      52.931  32.233  53.578  0.00  0.00    -0.085 SA
ATOM      6  C   UNL d   1      53.455  32.700  54.005  0.00  0.00     0.033 A 
ATOM      7  C   UNL d   1      53.877  33.980  54.470  0.00  0.00     0.004 A 
ATOM      8  O   UNL d   1      52.612  34.691  53.682  0.00  0.00    -0.285 OA
ATOM      9  C   UNL d   1      54.088  32.350  54.400  0.00  0.00     0.007 A 
ATOM     10  C   UNL d   1      54.504  33.636  54.860  0.00  0.00     0.000 A 
ATOM     11  C   UNL d   1      54.612  32.807  54.826  0.00  0.00     0.001 A 
ATOM     12  C   UNL d   1      55.034  34.090  55.291  0.00  0.00     0.000 C 
ENDROOT
BRANCH   1  13
ATOM     13  N   UNL d   1      51.545  33.754  52.814  0.00  0.00    -0.301 N 
ATOM     14  C   UNL d   1      50.899  34.021  53.232  0.00  0.00     0.080 A 
ATOM     15  C   UNL d   1      50.259  34.372  52.839  0.00  0.00     0.018 A 
ATOM     16  C   UNL d   1      49.609  34.640  53.260  0.00  0.00     0.002 A 
ATOM     17  C   UNL d   1      50.279  34.451  52.021  0.00  0.00     0.003 A 
ATOM     18  C   UNL d   1      48.973  34.990  52.867  0.00  0.00     0.000 A 
ATOM     19  C   UNL d   1      48.993  35.069  52.045  0.00  0.00     0.000 A 
ATOM     20  C   UNL d   1      49.650  34.799  51.620  0.00  0.00     0.000 A 
ATOM     21  C   UNL d   1      50.939  34.180  51.585  0.00  0.00     0.019 A 
ATOM     22  C   UNL d   1      51.565  33.834  51.989  0.00  0.00     0.080 A 
ENDBRANCH   1  13
TORSDOF 1
ENDMDL
MODEL 4
REMARK VINA RESULT:      -8.6      1.496      4.757
REMARK  1 active torsions:
REMARK  status: ('A' for Active; 'I' for Inactive)
REMARK    1  A    between atoms: N_3  and  C_1 
ROOT
ATOM      1  C   UNL d   1      51.822  33.977  53.106  0.00  0.00     0.110 A 
ATOM      2  C   UNL d   1      51.962  33.160  53.217  0.00  0.00     0.212 A 
ATOM      3  C   UNL d   1      52.727  32.897  53.378  0.00  0.00     0.046 A 
ATOM      4  C   UNL d   1      52.452  34.515  53.159  0.00  0.00     0.056 A 
ATOM      5  S   UNL d   1      53.221  34.236  53.323  0.00  0.00    -0.085 SA
ATOM      6  C   UNL d   1      53.354  33.432  53.430  0.00  0.00     0.033 A 
ATOM      7  C   UNL d   1      52.870  32.093  53.487  0.00  0.00     0.004 A 
ATOM      8  O   UNL d   1      51.341  32.625  53.165  0.00  0.00    -0.285 OA
ATOM      9  C   UNL d   1      54.116  33.163  53.591  0.00  0.00     0.007 A 
ATOM     10  C   UNL d   1      53.622  31.824  53.646  0.00  0.00     0.000 A 
ATOM     11  C   UNL d   1      54.257  32.366  53.700  0.00  0.00     0.001 A 
ATOM     12  C   UNL d   1      53.771  31.024  53.756  0.00  0.00     0.000 C 
ENDROOT
BRANCH   1  13
ATOM     13  N   UNL d   1      51.058  34.250  52.945  0.00  0.00    -0.301 N 
ATOM     14  C   UNL d   1      50.751  34.184  52.193  0.00  0.00     0.080 A 
ATOM     15  C   UNL d   1      49.986  34.456  52.026  0.00  0.00     0.018 A 
ATOM     16  C   UNL d   1      49.677  34.390  51.270  0.00  0.00     0.002 A 
ATOM     17  C   UNL d   1      49.535  34.794  52.625  0.00  0.00     0.003 A 
ATOM     18  C   UNL d   1      48.915  34.662  51.105  0.00  0.00     0.000 A 
ATOM     19  C   UNL d   1      48.463  35.001  51.707  0.00  0.00     0.000 A 
ATOM     20  C   UNL d   1      48.774  35.068  52.471  0.00  0.00     0.000 A 
ATOM     21  C   UNL d   1      49.844  34.865  53.399  0.00  0.00     0.019 A 
ATOM     22  C   UNL d   1      50.604  34.590  53.549  0.00  0.00     0.080 A 
ENDBRANCH   1  13
TORSDOF 1
ENDMDL
MODEL 5
REMARK VINA RESULT:      -8.3      2.442      3.449
REMARK  1 active torsions:
REMARK  status: ('A' for Active; 'I' for Inactive)
REMARK    1  A    between atoms: N_3  and  C_1 
ROOT
ATOM      1  C   UNL d   1      51.697  34.217  53.015  0.00  0.00     0.110 A 
ATOM      2  C   UNL d   1      51.013  34.612  53.289  0.00  0.00     0.212 A 
ATOM      3  C   UNL d   1      50.347  34.655  52.805  0.00  0.00     0.046 A 
ATOM      4  C   UNL d   1      51.700  33.871  52.260  0.00  0.00     0.056 A 
ATOM      5  S   UNL d   1      51.019  33.922  51.781  0.00  0.00    -0.085 SA
ATOM      6  C   UNL d   1      50.349  34.311  52.054  0.00  0.00     0.033 A 
ATOM      7  C   UNL d   1      49.671  35.044  53.071  0.00  0.00     0.004 A 
ATOM      8  O   UNL d   1      51.008  34.955  54.036  0.00  0.00    -0.285 OA
ATOM      9  C   UNL d   1      49.680  34.358  51.576  0.00  0.00     0.007 A 
ATOM     10  C   UNL d   1      49.008  35.091  52.601  0.00  0.00     0.000 A 
ATOM     11  C   UNL d   1      49.010  34.743  51.840  0.00  0.00     0.001 A 
ATOM     12  C   UNL d   1      48.332  35.477  52.860  0.00  0.00     0.000 C 
ENDROOT
BRANCH   1  13
ATOM     13  N   UNL d   1      52.370  34.169  53.494  0.00  0.00    -0.301 N 
ATOM     14  C   UNL d   1      52.608  33.451  53.794  0.00  0.00     0.080 A 
ATOM     15  C   UNL d   1      53.282  33.397  54.274  0.00  0.00     0.018 A 
ATOM     16  C   UNL d   1      53.521  32.674  54.576  0.00  0.00     0.002 A 
ATOM     17  C   UNL d   1      53.712  34.076  54.447  0.00  0.00     0.003 A 
ATOM     18  C   UNL d   1      54.192  32.623  55.054  0.00  0.00     0.000 A 
ATOM     19  C   UNL d   1      54.624  33.305  55.228  0.00  0.00     0.000 A 
ATOM     20  C   UNL d   1      54.383  34.036  54.922  0.00  0.00     0.000 A 
ATOM     21  C   UNL d   1      53.474  34.818  54.142  0.00  0.00     0.019 A 
ATOM     22  C   UNL d   1      52.804  34.854  53.668  0.00  0.00     0.080 A 
ENDBRANCH   1  13
TORSDOF 1
ENDMDL
MODEL 6
REMARK VINA RESULT:      -7.7      3.034      4.629
REMARK  1 active torsions:
REMARK  status: ('A' for Active; 'I' for Inactive)
REMARK    1  A    between atoms: N_3  and  C_1 
ROOT
ATOM      1  C   UNL d   1      49.768  34.557  52.386  0.00  0.00     0.110 A 
ATOM      2  C   UNL d   1      49.282  35.070  52.832  0.00  0.00     0.212 A 
ATOM      3  C   UNL d   1      48.599  35.382  52.490  0.00  0.00     0.046 A 
ATOM      4  C   UNL d   1      49.562  34.366  51.606  0.00  0.00     0.056 A 
ATOM      5  S   UNL d   1      48.868  34.688  51.271  0.00  0.00    -0.085 SA
ATOM      6  C   UNL d   1      48.393  35.192  51.713  0.00  0.00     0.033 A 
ATOM      7  C   UNL d   1      48.116  35.889  52.925  0.00  0.00     0.004 A 
ATOM      8  O   UNL d   1      49.484  35.262  53.605  0.00  0.00    -0.285 OA
ATOM      9  C   UNL d   1      47.710  35.507  51.378  0.00  0.00     0.007 A 
ATOM     10  C   UNL d   1      47.440  36.201  52.596  0.00  0.00     0.000 A 
ATOM     11  C   UNL d   1      47.232  36.009  51.809  0.00  0.00     0.001 A 
ATOM     12  C   UNL d   1      46.956  36.706  53.025  0.00  0.00     0.000 C 
ENDROOT
BRANCH   1  13
ATOM     13  N   UNL d   1      50.455  34.240  52.721  0.00  0.00    -0.301 N 
ATOM     14  C   UNL d   1      51.151  34.662  52.705  0.00  0.00     0.080 A 
ATOM     15  C   UNL d   1      51.842  34.348  53.039  0.00  0.00     0.018 A 
ATOM     16  C   UNL d   1      52.542  34.773  53.021  0.00  0.00     0.002 A 
ATOM     17  C   UNL d   1      51.822  33.605  53.389  0.00  0.00     0.003 A 
ATOM     18  C   UNL d   1      53.229  34.459  53.355  0.00  0.00     0.000 A 
ATOM     19  C   UNL d   1      53.209  33.712  53.707  0.00  0.00     0.000 A 
ATOM     20  C   UNL d   1      52.502  33.283  53.725  0.00  0.00     0.000 A 
ATOM     21  C   UNL d   1      51.110  33.165  53.411  0.00  0.00     0.019 A 
ATOM     22  C   UNL d   1      50.435  33.490  53.075  0.00  0.00     0.080 A 
ENDBRANCH   1  13
TORSDOF 1
ENDMDL
