MODEL 1
REMARK VINA RESULT:      -4.6      0.000      0.000
REMARK  7 active torsions:
REMARK  status: ('A' for Active; 'I' for Inactive)
REMARK    1  A    between atoms: C_3  and  C_1 
REMARK    2  A    between atoms: C_4  and  C_1 
REMARK    3  A    between atoms: C_2  and  C_5 
REMARK    4  A    between atoms: O_14  and  C_2 
REMARK    5  A    between atoms: C_6  and  C_3 
REMARK    6  A    between atoms: C_13  and  C_4 
REMARK    7  A    between atoms: O_20  and  C_15 
ROOT
ATOM      1  C   UNL d   1      58.259  -0.761  30.119  0.00  0.00     0.042 C 
ENDROOT
BRANCH   1   2
ATOM      2  C   UNL d   1      58.586  -0.828  29.364  0.00  0.00     0.196 C 
ATOM      3  O   UNL d   1      58.334  -0.337  28.752  0.00  0.00    -0.287 OA
BRANCH   2   4
ATOM      4  C   UNL d   1      59.170  -1.391  29.226  0.00  0.00     0.039 A 
ATOM      5  C   UNL d   1      58.962  -2.191  29.131  0.00  0.00     0.005 A 
ATOM      6  C   UNL d   1      59.550  -2.755  28.992  0.00  0.00     0.024 A 
ATOM      7  C   UNL d   1      60.341  -2.519  28.949  0.00  0.00     0.094 A 
ATOM      8  C   UNL d   1      60.546  -1.726  29.044  0.00  0.00     0.024 A 
ATOM      9  C   UNL d   1      59.963  -1.163  29.182  0.00  0.00     0.005 A 
BRANCH   7  10
ATOM     10  O   UNL d   1      60.923  -3.082  28.811  0.00  0.00    -0.328 OA
ATOM     11  C   UNL d   1      61.016  -3.720  29.332  0.00  0.00     0.181 C 
ENDBRANCH   7  10
ENDBRANCH   2   4
ENDBRANCH   1   2
BRANCH   1  12
ATOM     12  C   UNL d   1      57.758  -0.123  30.294  0.00  0.00     0.003 C 
BRANCH  12  13
ATOM     13  C   UNL d   1      57.387  -0.077  31.027  0.00  0.00     0.000 A 
ATOM     14  C   UNL d   1      57.391   0.629  31.436  0.00  0.00     0.000 A 
ATOM     15  C   UNL d   1      57.021   0.681  32.172  0.00  0.00     0.005 A 
ATOM     16  C   UNL d   1      56.644   0.012  32.494  0.00  0.00     0.063 A 
ATOM     17  C   UNL d   1      56.644  -0.697  32.075  0.00  0.00     0.005 A 
ATOM     18  C   UNL d   1      57.014  -0.743  31.343  0.00  0.00     0.000 A 
BRANCH  16  19
ATOM     19  C   UNL d   1      56.273   0.058  33.227  0.00  0.00     0.296 C 
ATOM     20  O   UNL d   1      56.719   0.185  33.908  0.00  0.00    -0.259 OA
BRANCH  19  21
ATOM     21  O   UNL d   1      55.456  -0.024  33.279  0.00  0.00    -0.296 OA
ATOM     22  C   UNL d   1      55.053   0.208  33.959  0.00  0.00     0.185 C 
ENDBRANCH  19  21
ENDBRANCH  16  19
ENDBRANCH  12  13
ENDBRANCH   1  12
TORSDOF 7
ENDMDL
MODEL 2
REMARK VINA RESULT:      -3.9      0.687      5.290
REMARK  7 active torsions:
REMARK  status: ('A' for Active; 'I' for Inactive)
REMARK    1  A    between atoms: C_3  and  C_1 
REMARK    2  A    between atoms: C_4  and  C_1 
REMARK    3  A    between atoms: C_2  and  C_5 
REMARK    4  A    between atoms: O_14  and  C_2 
REMARK    5  A    between atoms: C_6  and  C_3 
REMARK    6  A    between atoms: C_13  and  C_4 
REMARK    7  A    between atoms: O_20  and  C_15 
ROOT
ATOM      1  C   UNL d   1      57.999  -0.612  30.386  0.00  0.00     0.042 C 
ENDROOT
BRANCH   1   2
ATOM      2  C   UNL d   1      57.528   0.026  30.619  0.00  0.00     0.196 C 
ATOM      3  O   UNL d   1      57.414   0.667  30.114  0.00  0.00    -0.287 OA
BRANCH   2   4
ATOM      4  C   UNL d   1      57.173   0.016  31.361  0.00  0.00     0.039 A 
ATOM      5  C   UNL d   1      57.396   0.574  31.936  0.00  0.00     0.005 A 
ATOM      6  C   UNL d   1      57.038   0.563  32.681  0.00  0.00     0.024 A 
ATOM      7  C   UNL d   1      56.461  -0.004  32.847  0.00  0.00     0.094 A 
ATOM      8  C   UNL d   1      56.240  -0.557  32.277  0.00  0.00     0.024 A 
ATOM      9  C   UNL d   1      56.595  -0.548  31.535  0.00  0.00     0.005 A 
BRANCH   7  10
ATOM     10  O   UNL d   1      56.106  -0.013  33.589  0.00  0.00    -0.328 OA
ATOM     11  C   UNL d   1      55.285   0.078  33.659  0.00  0.00     0.181 C 
ENDBRANCH   7  10
ENDBRANCH   2   4
ENDBRANCH   1   2
BRANCH   1  12
ATOM     12  C   UNL d   1      58.339  -0.618  29.630  0.00  0.00     0.003 C 
BRANCH  12  13
ATOM     13  C   UNL d   1      58.847  -1.226  29.409  0.00  0.00     0.000 A 
ATOM     14  C   UNL d   1      59.642  -1.069  29.313  0.00  0.00     0.000 A 
ATOM     15  C   UNL d   1      60.158  -1.675  29.091  0.00  0.00     0.005 A 
ATOM     16  C   UNL d   1      59.864  -2.445  28.967  0.00  0.00     0.063 A 
ATOM     17  C   UNL d   1      59.060  -2.594  29.067  0.00  0.00     0.005 A 
ATOM     18  C   UNL d   1      58.552  -1.987  29.287  0.00  0.00     0.000 A 
BRANCH  16  19
ATOM     19  C   UNL d   1      60.372  -3.053  28.747  0.00  0.00     0.296 C 
ATOM     20  O   UNL d   1      61.123  -2.878  28.455  0.00  0.00    -0.259 OA
BRANCH  19  21
ATOM     21  O   UNL d   1      60.130  -3.835  28.818  0.00  0.00    -0.296 OA
ATOM     22  C   UNL d   1      60.586  -4.446  28.505  0.00  0.00     0.185 C 
ENDBRANCH  19  21
ENDBRANCH  16  19
ENDBRANCH  12  13
ENDBRANCH   1  12
TORSDOF 7
ENDMDL
MODEL 3
REMARK VINA RESULT:      -2.1      1.500      2.033
REMARK  7 active torsions:
REMARK  status: ('A' for Active; 'I' for Inactive)
REMARK    1  A    between atoms: C_3  and  C_1 
REMARK    2  A    between atoms: C_4  and  C_1 
REMARK    3  A    between atoms: C_2  and  C_5 
REMARK    4  A    between atoms: O_14  and  C_2 
REMARK    5  A    between atoms: C_6  and  C_3 
REMARK    6  A    between atoms: C_13  and  C_4 
REMARK    7  A    between atoms: O_20  and  C_15 
ROOT
ATOM      1  C   UNL d   1      57.666  -0.063  31.092  0.00  0.00     0.042 C 
ENDROOT
BRANCH   1   2
ATOM      2  C   UNL d   1      57.852  -0.363  30.345  0.00  0.00     0.196 C 
ATOM      3  O   UNL d   1      57.316  -0.841  29.941  0.00  0.00    -0.287 OA
BRANCH   2   4
ATOM      4  C   UNL d   1      58.578  -0.180  30.006  0.00  0.00     0.039 A 
ATOM      5  C   UNL d   1      58.994   0.498  30.251  0.00  0.00     0.005 A 
ATOM      6  C   UNL d   1      59.723   0.680  29.909  0.00  0.00     0.024 A 
ATOM      7  C   UNL d   1      60.035   0.185  29.325  0.00  0.00     0.094 A 
ATOM      8  C   UNL d   1      59.623  -0.486  29.082  0.00  0.00     0.024 A 
ATOM      9  C   UNL d   1      58.896  -0.669  29.422  0.00  0.00     0.005 A 
BRANCH   7  10
ATOM     10  O   UNL d   1      60.761   0.368  28.986  0.00  0.00    -0.328 OA
ATOM     11  C   UNL d   1      61.130  -0.172  28.477  0.00  0.00     0.181 C 
ENDBRANCH   7  10
ENDBRANCH   2   4
ENDBRANCH   1   2
BRANCH   1  12
ATOM     12  C   UNL d   1      57.464  -0.584  31.705  0.00  0.00     0.003 C 
BRANCH  12  13
ATOM     13  C   UNL d   1      56.927  -0.353  32.284  0.00  0.00     0.000 A 
ATOM     14  C   UNL d   1      57.148   0.204  32.838  0.00  0.00     0.000 A 
ATOM     15  C   UNL d   1      56.614   0.441  33.422  0.00  0.00     0.005 A 
ATOM     16  C   UNL d   1      55.850   0.109  33.443  0.00  0.00     0.063 A 
ATOM     17  C   UNL d   1      55.634  -0.453  32.880  0.00  0.00     0.005 A 
ATOM     18  C   UNL d   1      56.170  -0.684  32.301  0.00  0.00     0.000 A 
BRANCH  16  19
ATOM     19  C   UNL d   1      55.313   0.340  34.021  0.00  0.00     0.296 C 
ATOM     20  O   UNL d   1      54.505   0.230  33.902  0.00  0.00    -0.259 OA
BRANCH  19  21
ATOM     21  O   UNL d   1      55.584   0.682  34.719  0.00  0.00    -0.296 OA
ATOM     22  C   UNL d   1      55.188   0.553  35.430  0.00  0.00     0.185 C 
ENDBRANCH  19  21
ENDBRANCH  16  19
ENDBRANCH  12  13
ENDBRANCH   1  12
TORSDOF 7
ENDMDL
MODEL 4
REMARK VINA RESULT:      -1.6      1.072      5.671
REMARK  7 active torsions:
REMARK  status: ('A' for Active; 'I' for Inactive)
REMARK    1  A    between atoms: C_3  and  C_1 
REMARK    2  A    between atoms: C_4  and  C_1 
REMARK    3  A    between atoms: C_2  and  C_5 
REMARK    4  A    between atoms: O_14  and  C_2 
REMARK    5  A    between atoms: C_6  and  C_3 
REMARK    6  A    between atoms: C_13  and  C_4 
REMARK    7  A    between atoms: O_20  and  C_15 
ROOT
ATOM      1  C   UNL d   1      56.940   0.235  32.100  0.00  0.00     0.042 C 
ENDROOT
BRANCH   1   2
ATOM      2  C   UNL d   1      56.982   0.436  32.900  0.00  0.00     0.196 C 
ATOM      3  O   UNL d   1      57.710   0.574  33.260  0.00  0.00    -0.287 OA
BRANCH   2   4
ATOM      4  C   UNL d   1      56.288   0.497  33.337  0.00  0.00     0.039 A 
ATOM      5  C   UNL d   1      56.323   0.604  34.162  0.00  0.00     0.005 A 
ATOM      6  C   UNL d   1      55.625   0.665  34.599  0.00  0.00     0.024 A 
ATOM      7  C   UNL d   1      54.896   0.620  34.212  0.00  0.00     0.094 A 
ATOM      8  C   UNL d   1      54.861   0.515  33.395  0.00  0.00     0.024 A 
ATOM      9  C   UNL d   1      55.555   0.454  32.958  0.00  0.00     0.005 A 
BRANCH   7  10
ATOM     10  O   UNL d   1      54.202   0.682  34.649  0.00  0.00    -0.328 OA
ATOM     11  C   UNL d   1      53.466   0.588  34.278  0.00  0.00     0.181 C 
ENDBRANCH   7  10
ENDBRANCH   2   4
ENDBRANCH   1   2
BRANCH   1  12
ATOM     12  C   UNL d   1      57.458   0.593  31.559  0.00  0.00     0.003 C 
BRANCH  12  13
ATOM     13  C   UNL d   1      57.804   0.147  30.961  0.00  0.00     0.000 A 
ATOM     14  C   UNL d   1      58.424   0.461  30.533  0.00  0.00     0.000 A 
ATOM     15  C   UNL d   1      58.776   0.019  29.931  0.00  0.00     0.005 A 
ATOM     16  C   UNL d   1      58.496  -0.748  29.763  0.00  0.00     0.063 A 
ATOM     17  C   UNL d   1      57.870  -1.058  30.200  0.00  0.00     0.005 A 
ATOM     18  C   UNL d   1      57.524  -0.613  30.797  0.00  0.00     0.000 A 
BRANCH  16  19
ATOM     19  C   UNL d   1      58.842  -1.194  29.165  0.00  0.00     0.296 C 
ATOM     20  O   UNL d   1      58.441  -1.314  28.455  0.00  0.00    -0.259 OA
BRANCH  19  21
ATOM     21  O   UNL d   1      59.589  -1.520  29.276  0.00  0.00    -0.296 OA
ATOM     22  C   UNL d   1      60.115  -1.590  28.646  0.00  0.00     0.185 C 
ENDBRANCH  19  21
ENDBRANCH  16  19
ENDBRANCH  12  13
ENDBRANCH   1  12
TORSDOF 7
ENDMDL
