MODEL 1
REMARK VINA RESULT:      21.4      0.000      0.000
REMARK  1 active torsions:
REMARK  status: ('A' for Active; 'I' for Inactive)
REMARK    1  A    between atoms: C_8  and  C_1 
ROOT
ATOM      1  C   UNL d   1      46.258 -18.503  43.813  0.00  0.00     0.010 A 
ATOM      2  C   UNL d   1      46.348 -18.775  43.037  0.00  0.00     0.062 A 
ATOM      3  C   UNL d   1      46.535 -19.572  42.901  0.00  0.00     0.106 A 
ATOM      4  C   UNL d   1      46.255 -18.263  42.400  0.00  0.00     0.198 A 
ATOM      5  O   UNL d   1      46.629 -20.087  43.536  0.00  0.00    -0.273 OA
ATOM      6  C   UNL d   1      46.352 -19.015  44.449  0.00  0.00     0.069 A 
ATOM      7  C   UNL d   1      46.537 -19.808  44.314  0.00  0.00     0.300 A 
ATOM      8  C   UNL d   1      46.626 -19.848  42.131  0.00  0.00     0.025 A 
ATOM      9  C   UNL d   1      46.345 -18.536  41.628  0.00  0.00     0.042 A 
ATOM     10  O   UNL d   1      46.632 -20.327  44.953  0.00  0.00    -0.259 OA
ATOM     11  C   UNL d   1      46.531 -19.329  41.493  0.00  0.00     0.005 A 
ATOM     12  O   UNL d   1      46.068 -17.467  42.536  0.00  0.00    -0.286 OA
ATOM     13  C   UNL d   1      46.623 -19.610  40.726  0.00  0.00     0.000 C 
ENDROOT
BRANCH   1  14
ATOM     14  C   UNL d   1      46.072 -17.707  43.949  0.00  0.00     0.000 A 
ATOM     15  C   UNL d   1      45.333 -17.505  44.269  0.00  0.00     0.000 A 
ATOM     16  C   UNL d   1      45.145 -16.700  44.406  0.00  0.00     0.000 A 
ATOM     17  C   UNL d   1      45.691 -16.112  44.223  0.00  0.00     0.000 A 
ATOM     18  C   UNL d   1      46.433 -16.326  43.901  0.00  0.00     0.000 A 
ATOM     19  C   UNL d   1      46.619 -17.119  43.766  0.00  0.00     0.000 A 
ENDBRANCH   1  14
TORSDOF 1
ENDMDL
MODEL 2
REMARK VINA RESULT:      24.2      6.035      7.319
REMARK  1 active torsions:
REMARK  status: ('A' for Active; 'I' for Inactive)
REMARK    1  A    between atoms: C_8  and  C_1 
ROOT
ATOM      1  C   UNL d   1      44.910 -15.786  37.368  0.00  0.00     0.010 A 
ATOM      2  C   UNL d   1      44.128 -15.712  37.106  0.00  0.00     0.062 A 
ATOM      3  C   UNL d   1      43.557 -16.258  37.359  0.00  0.00     0.106 A 
ATOM      4  C   UNL d   1      43.913 -15.102  36.598  0.00  0.00     0.198 A 
ATOM      5  O   UNL d   1      43.769 -16.869  37.867  0.00  0.00    -0.273 OA
ATOM      6  C   UNL d   1      45.124 -16.396  37.876  0.00  0.00     0.069 A 
ATOM      7  C   UNL d   1      44.557 -16.939  38.127  0.00  0.00     0.300 A 
ATOM      8  C   UNL d   1      42.778 -16.189  37.101  0.00  0.00     0.025 A 
ATOM      9  C   UNL d   1      43.134 -15.030  36.338  0.00  0.00     0.042 A 
ATOM     10  O   UNL d   1      44.769 -17.556  38.640  0.00  0.00    -0.259 OA
ATOM     11  C   UNL d   1      42.567 -15.573  36.589  0.00  0.00     0.005 A 
ATOM     12  O   UNL d   1      44.484 -14.556  36.345  0.00  0.00    -0.286 OA
ATOM     13  C   UNL d   1      41.788 -15.509  36.335  0.00  0.00     0.000 C 
ENDROOT
BRANCH   1  14
ATOM     14  C   UNL d   1      45.480 -15.240  37.115  0.00  0.00     0.000 A 
ATOM     15  C   UNL d   1      45.452 -14.458  37.390  0.00  0.00     0.000 A 
ATOM     16  C   UNL d   1      46.028 -13.906  37.135  0.00  0.00     0.000 A 
ATOM     17  C   UNL d   1      46.620 -14.140  36.613  0.00  0.00     0.000 A 
ATOM     18  C   UNL d   1      46.639 -14.931  36.341  0.00  0.00     0.000 A 
ATOM     19  C   UNL d   1      46.072 -15.475  36.593  0.00  0.00     0.000 A 
ENDBRANCH   1  14
TORSDOF 1
ENDMDL
