MODEL 1
REMARK VINA RESULT:      49.3      0.000      0.000
REMARK  8 active torsions:
REMARK  status: ('A' for Active; 'I' for Inactive)
REMARK    1  A    between atoms: O_18  and  C_5 
REMARK    2  A    between atoms: C_7  and  C_15 
REMARK       I    between atoms: N_14  and  C_7 
REMARK    3  A    between atoms: O_10  and  C_8 
REMARK    4  A    between atoms: O_19  and  C_9 
REMARK    5  A    between atoms: C_15  and  O_10 
REMARK    6  A    between atoms: C_20  and  N_14 
REMARK    7  A    between atoms: C_16  and  C_26 
REMARK    8  A    between atoms: C_26  and  C_20 
ROOT
ATOM      1  C   UNL d   1     -49.016  27.974  34.928  0.00  0.00     0.304 C 
ATOM      2  O   UNL d   1     -49.420  27.713  35.602  0.00  0.00    -0.263 OA
ATOM      3  N   UNL d   1     -49.223  27.707  34.180  0.00  0.00    -0.205 NA
ENDROOT
BRANCH   1   4
ATOM      4  C   UNL d   1     -48.394  28.512  35.012  0.00  0.00     0.185 C 
BRANCH   4   5
ATOM      5  O   UNL d   1     -48.545  29.271  35.292  0.00  0.00    -0.298 OA
BRANCH   5   6
ATOM      6  C   UNL d   1     -47.926  29.740  35.547  0.00  0.00     0.122 A 
ATOM      7  C   UNL d   1     -47.801  30.483  35.208  0.00  0.00     0.117 A 
ATOM      8  O   UNL d   1     -48.209  30.889  34.608  0.00  0.00    -0.330 OA
ATOM      9  C   UNL d   1     -47.176  30.957  35.467  0.00  0.00     0.022 A 
ATOM     10  C   UNL d   1     -47.830  31.620  34.498  0.00  0.00     0.117 A 
ATOM     11  C   UNL d   1     -48.425  31.691  33.936  0.00  0.00     0.035 C 
ATOM     12  C   UNL d   1     -47.402  32.307  34.455  0.00  0.00     0.035 C 
ATOM     13  C   UNL d   1     -47.195  31.658  35.027  0.00  0.00     0.003 A 
ATOM     14  C   UNL d   1     -46.678  30.687  36.063  0.00  0.00     0.002 A 
ATOM     15  C   UNL d   1     -46.801  29.956  36.396  0.00  0.00     0.002 A 
ATOM     16  C   UNL d   1     -47.427  29.482  36.138  0.00  0.00     0.027 A 
ENDBRANCH   5   6
ENDBRANCH   4   5
ENDBRANCH   1   4
BRANCH   3  17
ATOM     17  C   UNL d   1     -49.839  27.175  34.097  0.00  0.00     0.102 C 
BRANCH  17  18
ATOM     18  C   UNL d   1     -49.888  26.701  33.423  0.00  0.00     0.021 C 
BRANCH  18  19
ATOM     19  C   UNL d   1     -50.429  26.076  33.393  0.00  0.00     0.004 A 
ATOM     20  C   UNL d   1     -50.164  25.306  33.364  0.00  0.00     0.026 A 
ATOM     21  C   UNL d   1     -50.697  24.676  33.335  0.00  0.00     0.116 A 
ATOM     22  C   UNL d   1     -51.508  24.831  33.335  0.00  0.00     0.116 A 
ATOM     23  C   UNL d   1     -51.780  25.607  33.364  0.00  0.00     0.026 A 
ATOM     24  C   UNL d   1     -51.249  26.240  33.394  0.00  0.00     0.002 A 
BRANCH  21  25
ATOM     25  O   UNL d   1     -50.430  23.909  33.306  0.00  0.00    -0.326 OA
ATOM     26  C   UNL d   1     -49.628  23.736  33.462  0.00  0.00     0.181 C 
ENDBRANCH  21  25
BRANCH  22  27
ATOM     27  O   UNL d   1     -52.049  24.206  33.306  0.00  0.00    -0.326 OA
ATOM     28  C   UNL d   1     -52.804  24.298  33.626  0.00  0.00     0.181 C 
ENDBRANCH  22  27
ENDBRANCH  18  19
ENDBRANCH  17  18
ENDBRANCH   3  17
TORSDOF 8
ENDMDL
MODEL 2
REMARK VINA RESULT:      52.1      0.406      1.059
REMARK  8 active torsions:
REMARK  status: ('A' for Active; 'I' for Inactive)
REMARK    1  A    between atoms: O_18  and  C_5 
REMARK    2  A    between atoms: C_7  and  C_15 
REMARK       I    between atoms: N_14  and  C_7 
REMARK    3  A    between atoms: O_10  and  C_8 
REMARK    4  A    between atoms: O_19  and  C_9 
REMARK    5  A    between atoms: C_15  and  O_10 
REMARK    6  A    between atoms: C_20  and  N_14 
REMARK    7  A    between atoms: C_16  and  C_26 
REMARK    8  A    between atoms: C_26  and  C_20 
ROOT
ATOM      1  C   UNL d   1     -49.001  27.956  34.875  0.00  0.00     0.304 C 
ATOM      2  O   UNL d   1     -49.506  27.777  35.506  0.00  0.00    -0.263 OA
ATOM      3  N   UNL d   1     -49.096  27.602  34.140  0.00  0.00    -0.205 NA
ENDROOT
BRANCH   1   4
ATOM      4  C   UNL d   1     -48.390  28.501  34.988  0.00  0.00     0.185 C 
BRANCH   4   5
ATOM      5  O   UNL d   1     -48.568  29.291  35.134  0.00  0.00    -0.298 OA
BRANCH   5   6
ATOM      6  C   UNL d   1     -47.989  29.793  35.420  0.00  0.00     0.122 A 
ATOM      7  C   UNL d   1     -47.915  30.556  35.115  0.00  0.00     0.117 A 
ATOM      8  O   UNL d   1     -48.343  30.958  34.526  0.00  0.00    -0.330 OA
ATOM      9  C   UNL d   1     -47.330  31.063  35.404  0.00  0.00     0.022 A 
ATOM     10  C   UNL d   1     -48.017  31.718  34.453  0.00  0.00     0.117 A 
ATOM     11  C   UNL d   1     -48.609  31.771  33.885  0.00  0.00     0.035 C 
ATOM     12  C   UNL d   1     -47.641  32.437  34.447  0.00  0.00     0.035 C 
ATOM     13  C   UNL d   1     -47.395  31.780  34.994  0.00  0.00     0.003 A 
ATOM     14  C   UNL d   1     -46.821  30.805  35.996  0.00  0.00     0.002 A 
ATOM     15  C   UNL d   1     -46.895  30.053  36.296  0.00  0.00     0.002 A 
ATOM     16  C   UNL d   1     -47.480  29.546  36.007  0.00  0.00     0.027 A 
ENDBRANCH   5   6
ENDBRANCH   4   5
ENDBRANCH   1   4
BRANCH   3  17
ATOM     17  C   UNL d   1     -49.701  27.062  34.028  0.00  0.00     0.102 C 
BRANCH  17  18
ATOM     18  C   UNL d   1     -49.657  26.513  33.414  0.00  0.00     0.021 C 
BRANCH  18  19
ATOM     19  C   UNL d   1     -50.180  25.873  33.391  0.00  0.00     0.004 A 
ATOM     20  C   UNL d   1     -50.984  26.001  33.417  0.00  0.00     0.026 A 
ATOM     21  C   UNL d   1     -51.514  25.367  33.395  0.00  0.00     0.116 A 
ATOM     22  C   UNL d   1     -51.223  24.596  33.346  0.00  0.00     0.116 A 
ATOM     23  C   UNL d   1     -50.411  24.463  33.320  0.00  0.00     0.026 A 
ATOM     24  C   UNL d   1     -49.878  25.095  33.342  0.00  0.00     0.002 A 
BRANCH  21  25
ATOM     25  O   UNL d   1     -52.316  25.497  33.421  0.00  0.00    -0.326 OA
ATOM     26  C   UNL d   1     -52.622  26.267  33.313  0.00  0.00     0.181 C 
ENDBRANCH  21  25
BRANCH  22  27
ATOM     27  O   UNL d   1     -51.746  23.956  33.324  0.00  0.00    -0.326 OA
ATOM     28  C   UNL d   1     -52.497  24.024  33.658  0.00  0.00     0.181 C 
ENDBRANCH  22  27
ENDBRANCH  18  19
ENDBRANCH  17  18
ENDBRANCH   3  17
TORSDOF 8
ENDMDL
