MODEL 1
REMARK VINA RESULT:       0.7      0.000      0.000
REMARK  5 active torsions:
REMARK  status: ('A' for Active; 'I' for Inactive)
REMARK    1  A    between atoms: C_7  and  C_1 
REMARK    2  A    between atoms: C_8  and  C_2 
REMARK    3  A    between atoms: O_16  and  C_8 
REMARK    4  A    between atoms: O_17  and  C_12 
REMARK    5  A    between atoms: C_21  and  O_16 
ROOT
ATOM      1  C   UNL d   1     -41.593-122.464 -51.469  0.00  0.00     0.069 A 
ATOM      2  C   UNL d   1     -41.328-121.730 -51.738  0.00  0.00     0.166 A 
ATOM      3  C   UNL d   1     -41.715-123.081 -52.006  0.00  0.00     0.200 A 
ATOM      4  O   UNL d   1     -41.182-121.601 -52.544  0.00  0.00    -0.301 OA
ATOM      5  C   UNL d   1     -41.571-122.958 -52.810  0.00  0.00     0.062 A 
ATOM      6  C   UNL d   1     -41.306-122.224 -53.074  0.00  0.00     0.106 A 
ATOM      7  C   UNL d   1     -41.161-122.102 -53.891  0.00  0.00     0.067 A 
ATOM      8  C   UNL d   1     -41.693-123.577 -53.351  0.00  0.00     0.009 A 
ATOM      9  O   UNL d   1     -41.979-123.817 -51.745  0.00  0.00    -0.286 OA
ATOM     10  C   UNL d   1     -41.283-122.717 -54.424  0.00  0.00     0.198 A 
ATOM     11  C   UNL d   1     -41.550-123.458 -54.152  0.00  0.00     0.042 A 
ATOM     12  O   UNL d   1     -41.141-122.599 -55.226  0.00  0.00    -0.286 OA
ENDROOT
BRANCH   1  13
ATOM     13  C   UNL d   1     -41.735-122.582 -50.666  0.00  0.00     0.028 A 
ATOM     14  C   UNL d   1     -42.487-122.424 -50.365  0.00  0.00     0.094 A 
ATOM     15  C   UNL d   1     -42.630-122.542 -49.562  0.00  0.00     0.024 A 
ATOM     16  C   UNL d   1     -42.029-122.815 -49.060  0.00  0.00     0.002 A 
ATOM     17  C   UNL d   1     -41.281-122.969 -49.373  0.00  0.00     0.000 A 
ATOM     18  C   UNL d   1     -41.131-122.853 -50.178  0.00  0.00     0.002 A 
BRANCH  14  19
ATOM     19  O   UNL d   1     -43.080-122.155 -50.857  0.00  0.00    -0.328 OA
ATOM     20  C   UNL d   1     -43.799-121.910 -50.536  0.00  0.00     0.181 C 
ENDBRANCH  14  19
ENDBRANCH   1  13
BRANCH   2  21
ATOM     21  C   UNL d   1     -41.206-121.112 -51.197  0.00  0.00     0.323 C 
ATOM     22  O   UNL d   1     -41.168-121.278 -50.387  0.00  0.00    -0.257 OA
BRANCH  21  23
ATOM     23  O   UNL d   1     -41.124-120.337 -51.467  0.00  0.00    -0.270 OA
BRANCH  23  24
ATOM     24  C   UNL d   1     -41.221-119.715 -50.946  0.00  0.00     0.126 C 
ATOM     25  C   UNL d   1     -41.123-118.939 -51.203  0.00  0.00     0.029 C 
ENDBRANCH  23  24
ENDBRANCH  21  23
ENDBRANCH   2  21
TORSDOF 5
ENDMDL
