MODEL 1
REMARK VINA RESULT:      -5.5      0.000      0.000
REMARK  6 active torsions:
REMARK  status: ('A' for Active; 'I' for Inactive)
REMARK    1  A    between atoms: C_9  and  N_1 
REMARK    2  A    between atoms: S_14  and  C_3 
REMARK    3  A    between atoms: N_8  and  C_10 
REMARK    4  A    between atoms: C_18  and  C_9 
REMARK    5  A    between atoms: C_19  and  S_14 
REMARK    6  A    between atoms: C_20  and  C_18 
ROOT
ATOM      1  N   UNL d   1     -50.632  11.098  23.684  0.00  0.00    -0.195 NA
ATOM      2  C   UNL d   1     -49.808  11.248  23.691  0.00  0.00     0.086 C 
ATOM      3  C   UNL d   1     -49.007  11.403  23.697  0.00  0.00     0.170 C 
ENDROOT
BRANCH   3   4
ATOM      4  S   UNL d   1     -48.734  12.182  23.652  0.00  0.00    -0.060 SA
BRANCH   4   5
ATOM      5  C   UNL d   1     -47.992  12.346  23.319  0.00  0.00     0.178 A 
ATOM      6  N   UNL d   1     -47.887  13.013  22.843  0.00  0.00    -0.253 N 
ATOM      7  C   UNL d   1     -47.146  13.174  22.512  0.00  0.00     0.268 A 
ATOM      8  C   UNL d   1     -46.519  12.661  22.664  0.00  0.00     0.076 A 
ATOM      9  O   UNL d   1     -47.043  13.837  22.039  0.00  0.00    -0.267 OA
ATOM     10  C   UNL d   1     -45.790  12.826  22.335  0.00  0.00     0.024 A 
ATOM     11  C   UNL d   1     -46.622  12.001  23.135  0.00  0.00     0.088 A 
ATOM     12  C   UNL d   1     -45.148  12.322  22.476  0.00  0.00     0.065 A 
ATOM     13  C   UNL d   1     -45.264  11.655  22.956  0.00  0.00     0.019 A 
ATOM     14  C   UNL d   1     -45.993  11.494  23.283  0.00  0.00     0.021 A 
ATOM     15  N   UNL d   1     -47.355  11.838  23.465  0.00  0.00    -0.222 NA
BRANCH   6  16
ATOM     16  C   UNL d   1     -48.525  13.515  22.702  0.00  0.00     0.085 C 
BRANCH  16  17
ATOM     17  C   UNL d   1     -48.487  14.302  22.948  0.00  0.00     0.019 C 
BRANCH  17  18
ATOM     18  C   UNL d   1     -49.164  14.778  22.922  0.00  0.00     0.002 A 
ATOM     19  C   UNL d   1     -49.742  14.642  22.354  0.00  0.00     0.000 A 
ATOM     20  C   UNL d   1     -50.416  15.114  22.327  0.00  0.00     0.000 A 
ATOM     21  C   UNL d   1     -50.512  15.732  22.876  0.00  0.00     0.000 A 
ATOM     22  C   UNL d   1     -49.926  15.865  23.447  0.00  0.00     0.000 A 
ATOM     23  C   UNL d   1     -49.252  15.393  23.475  0.00  0.00     0.000 A 
ENDBRANCH  17  18
ENDBRANCH  16  17
ENDBRANCH   6  16
BRANCH  12  24
ATOM     24  N   UNL d   1     -44.412  12.478  22.150  0.00  0.00    -0.300 N 
ATOM     25  C   UNL d   1     -44.303  13.142  21.666  0.00  0.00     0.107 A 
ATOM     26  C   UNL d   1     -43.563  13.291  21.344  0.00  0.00     0.142 A 
ATOM     27  O   UNL d   1     -42.927  12.782  21.500  0.00  0.00    -0.300 OA
ATOM     28  C   UNL d   1     -43.036  12.119  21.983  0.00  0.00     0.142 A 
ATOM     29  C   UNL d   1     -43.781  11.965  22.311  0.00  0.00     0.107 A 
ENDBRANCH  12  24
ENDBRANCH   4   5
ENDBRANCH   3   4
TORSDOF 6
ENDMDL
MODEL 2
REMARK VINA RESULT:      -3.8      6.075      8.910
REMARK  6 active torsions:
REMARK  status: ('A' for Active; 'I' for Inactive)
REMARK    1  A    between atoms: C_9  and  N_1 
REMARK    2  A    between atoms: S_14  and  C_3 
REMARK    3  A    between atoms: N_8  and  C_10 
REMARK    4  A    between atoms: C_18  and  C_9 
REMARK    5  A    between atoms: C_19  and  S_14 
REMARK    6  A    between atoms: C_20  and  C_18 
ROOT
ATOM      1  N   UNL d   1     -39.124  15.820  23.502  0.00  0.00    -0.195 NA
ATOM      2  C   UNL d   1     -39.065  15.825  22.665  0.00  0.00     0.086 C 
ATOM      3  C   UNL d   1     -39.015  15.826  21.852  0.00  0.00     0.170 C 
ENDROOT
BRANCH   3   4
ATOM      4  S   UNL d   1     -39.622  15.498  21.397  0.00  0.00    -0.060 SA
BRANCH   4   5
ATOM      5  C   UNL d   1     -39.526  15.399  20.579  0.00  0.00     0.178 A 
ATOM      6  N   UNL d   1     -40.117  15.036  20.131  0.00  0.00    -0.253 N 
ATOM      7  C   UNL d   1     -40.018  14.938  19.315  0.00  0.00     0.268 A 
ATOM      8  C   UNL d   1     -39.325  15.209  18.960  0.00  0.00     0.076 A 
ATOM      9  O   UNL d   1     -40.606  14.577  18.870  0.00  0.00    -0.267 OA
ATOM     10  C   UNL d   1     -39.233  15.110  18.155  0.00  0.00     0.024 A 
ATOM     11  C   UNL d   1     -38.740  15.568  19.404  0.00  0.00     0.088 A 
ATOM     12  C   UNL d   1     -38.543  15.374  17.780  0.00  0.00     0.065 A 
ATOM     13  C   UNL d   1     -37.956  15.738  18.240  0.00  0.00     0.019 A 
ATOM     14  C   UNL d   1     -38.052  15.835  19.043  0.00  0.00     0.021 A 
ATOM     15  N   UNL d   1     -38.834  15.667  20.213  0.00  0.00    -0.222 NA
BRANCH   6  16
ATOM     16  C   UNL d   1     -40.804  14.772  20.502  0.00  0.00     0.085 C 
BRANCH  16  17
ATOM     17  C   UNL d   1     -40.931  13.962  20.595  0.00  0.00     0.019 C 
BRANCH  17  18
ATOM     18  C   UNL d   1     -41.646  13.687  20.911  0.00  0.00     0.002 A 
ATOM     19  C   UNL d   1     -42.342  14.101  20.774  0.00  0.00     0.000 A 
ATOM     20  C   UNL d   1     -43.054  13.830  21.088  0.00  0.00     0.000 A 
ATOM     21  C   UNL d   1     -43.067  13.134  21.544  0.00  0.00     0.000 A 
ATOM     22  C   UNL d   1     -42.362  12.720  21.680  0.00  0.00     0.000 A 
ATOM     23  C   UNL d   1     -41.650  12.991  21.366  0.00  0.00     0.000 A 
ENDBRANCH  17  18
ENDBRANCH  16  17
ENDBRANCH   6  16
BRANCH  12  24
ATOM     24  N   UNL d   1     -38.442  15.280  16.972  0.00  0.00    -0.300 N 
ATOM     25  C   UNL d   1     -38.197  14.550  16.666  0.00  0.00     0.107 A 
ATOM     26  C   UNL d   1     -38.097  14.464  15.856  0.00  0.00     0.142 A 
ATOM     27  O   UNL d   1     -38.240  15.101  15.346  0.00  0.00    -0.300 OA
ATOM     28  C   UNL d   1     -38.485  15.831  15.651  0.00  0.00     0.142 A 
ATOM     29  C   UNL d   1     -38.587  15.922  16.468  0.00  0.00     0.107 A 
ENDBRANCH  12  24
ENDBRANCH   4   5
ENDBRANCH   3   4
TORSDOF 6
ENDMDL
