MODEL 1
REMARK VINA RESULT:      -3.4      0.000      0.000
REMARK  4 active torsions:
REMARK  status: ('A' for Active; 'I' for Inactive)
REMARK       I    between atoms: C_7  and  N_9 
REMARK    1  A    between atoms: C_15  and  C_7 
REMARK    2  A    between atoms: N_9  and  C_12 
REMARK    3  A    between atoms: C_16  and  C_15 
REMARK    4  A    between atoms: C_17  and  C_16 
ROOT
ATOM      1  N   UNL d   1      59.662  -3.796  29.038  0.00  0.00    -0.169 NA
ATOM      2  C   UNL d   1      59.023  -3.356  28.769  0.00  0.00     0.282 A 
ATOM      3  C   UNL d   1      60.260  -3.276  29.246  0.00  0.00     0.282 A 
ATOM      4  C   UNL d   1      59.231  -2.554  28.811  0.00  0.00     0.064 A 
ATOM      5  C   UNL d   1      59.993  -2.514  29.106  0.00  0.00     0.063 A 
ATOM      6  C   UNL d   1      60.349  -1.777  29.209  0.00  0.00     0.006 A 
ATOM      7  C   UNL d   1      58.813  -1.870  28.617  0.00  0.00     0.024 A 
ATOM      8  O   UNL d   1      58.312  -3.674  28.508  0.00  0.00    -0.265 OA
ATOM      9  O   UNL d   1      61.001  -3.476  29.543  0.00  0.00    -0.265 OA
ATOM     10  C   UNL d   1      59.168  -1.139  28.720  0.00  0.00     0.085 A 
ATOM     11  C   UNL d   1      59.940  -1.088  29.017  0.00  0.00     0.019 A 
ENDROOT
BRANCH  10  12
ATOM     12  N   UNL d   1      58.750  -0.455  28.525  0.00  0.00    -0.208 NA
ATOM     13  C   UNL d   1      58.301  -0.074  29.096  0.00  0.00     0.279 C 
ATOM     14  O   UNL d   1      57.887   0.606  28.898  0.00  0.00    -0.265 OA
BRANCH  13  15
ATOM     15  C   UNL d   1      58.262  -0.366  29.855  0.00  0.00     0.062 C 
BRANCH  15  16
ATOM     16  C   UNL d   1      57.804   0.029  30.417  0.00  0.00     0.005 C 
BRANCH  16  17
ATOM     17  C   UNL d   1      57.537  -0.374  31.088  0.00  0.00     0.000 C 
ATOM     18  C   UNL d   1      57.110   0.026  31.669  0.00  0.00     0.000 C 
ENDBRANCH  16  17
ENDBRANCH  15  16
ENDBRANCH  13  15
ENDBRANCH  10  12
TORSDOF 4
ENDMDL
MODEL 2
REMARK VINA RESULT:      -3.4      2.748      4.610
REMARK  4 active torsions:
REMARK  status: ('A' for Active; 'I' for Inactive)
REMARK       I    between atoms: C_7  and  N_9 
REMARK    1  A    between atoms: C_15  and  C_7 
REMARK    2  A    between atoms: N_9  and  C_12 
REMARK    3  A    between atoms: C_16  and  C_15 
REMARK    4  A    between atoms: C_17  and  C_16 
ROOT
ATOM      1  N   UNL d   1      55.852  -0.731  33.719  0.00  0.00    -0.169 NA
ATOM      2  C   UNL d   1      56.018  -1.174  33.048  0.00  0.00     0.282 A 
ATOM      3  C   UNL d   1      56.119   0.032  33.593  0.00  0.00     0.282 A 
ATOM      4  C   UNL d   1      56.392  -0.676  32.501  0.00  0.00     0.064 A 
ATOM      5  C   UNL d   1      56.451   0.064  32.844  0.00  0.00     0.063 A 
ATOM      6  C   UNL d   1      56.804   0.680  32.423  0.00  0.00     0.006 A 
ATOM      7  C   UNL d   1      56.681  -0.817  31.741  0.00  0.00     0.024 A 
ATOM      8  O   UNL d   1      55.836  -1.970  32.955  0.00  0.00    -0.265 OA
ATOM      9  O   UNL d   1      56.067   0.662  34.120  0.00  0.00    -0.265 OA
ATOM     10  C   UNL d   1      57.031  -0.205  31.324  0.00  0.00     0.085 A 
ATOM     11  C   UNL d   1      57.095   0.548  31.663  0.00  0.00     0.019 A 
ENDROOT
BRANCH  10  12
ATOM     12  N   UNL d   1      57.320  -0.346  30.564  0.00  0.00    -0.208 NA
ATOM     13  C   UNL d   1      58.088  -0.131  30.372  0.00  0.00     0.279 C 
ATOM     14  O   UNL d   1      58.371  -0.273  29.615  0.00  0.00    -0.265 OA
BRANCH  13  15
ATOM     15  C   UNL d   1      58.570   0.222  30.927  0.00  0.00     0.062 C 
BRANCH  15  16
ATOM     16  C   UNL d   1      59.323   0.476  30.703  0.00  0.00     0.005 C 
BRANCH  16  17
ATOM     17  C   UNL d   1      59.876   0.682  31.282  0.00  0.00     0.000 C 
ATOM     18  C   UNL d   1      60.683   0.658  31.112  0.00  0.00     0.000 C 
ENDBRANCH  16  17
ENDBRANCH  15  16
ENDBRANCH  13  15
ENDBRANCH  10  12
TORSDOF 4
ENDMDL
MODEL 3
REMARK VINA RESULT:      -3.3      8.329      9.085
REMARK  4 active torsions:
REMARK  status: ('A' for Active; 'I' for Inactive)
REMARK       I    between atoms: C_7  and  N_9 
REMARK    1  A    between atoms: C_15  and  C_7 
REMARK    2  A    between atoms: N_9  and  C_12 
REMARK    3  A    between atoms: C_16  and  C_15 
REMARK    4  A    between atoms: C_17  and  C_16 
ROOT
ATOM      1  N   UNL d   1      59.365  -9.781  31.608  0.00  0.00    -0.169 NA
ATOM      2  C   UNL d   1      58.803  -9.794  32.206  0.00  0.00     0.282 A 
ATOM      3  C   UNL d   1      60.106  -9.776  31.955  0.00  0.00     0.282 A 
ATOM      4  C   UNL d   1      59.204  -9.796  32.932  0.00  0.00     0.064 A 
ATOM      5  C   UNL d   1      60.005  -9.785  32.768  0.00  0.00     0.063 A 
ATOM      6  C   UNL d   1      60.546  -9.785  33.391  0.00  0.00     0.006 A 
ATOM      7  C   UNL d   1      58.928  -9.807  33.709  0.00  0.00     0.024 A 
ATOM      8  O   UNL d   1      57.990  -9.802  32.086  0.00  0.00    -0.265 OA
ATOM      9  O   UNL d   1      60.830  -9.764  31.563  0.00  0.00    -0.265 OA
ATOM     10  C   UNL d   1      59.467  -9.807  34.326  0.00  0.00     0.085 A 
ATOM     11  C   UNL d   1      60.281  -9.796  34.171  0.00  0.00     0.019 A 
ENDROOT
BRANCH  10  12
ATOM     12  N   UNL d   1      59.191  -9.818  35.104  0.00  0.00    -0.208 NA
ATOM     13  C   UNL d   1      59.210  -9.132  35.554  0.00  0.00     0.279 C 
ATOM     14  O   UNL d   1      58.935  -9.147  36.327  0.00  0.00    -0.265 OA
BRANCH  13  15
ATOM     15  C   UNL d   1      59.498  -8.438  35.239  0.00  0.00     0.062 C 
BRANCH  15  16
ATOM     16  C   UNL d   1      59.672  -7.808  35.743  0.00  0.00     0.005 C 
BRANCH  16  17
ATOM     17  C   UNL d   1      59.547  -7.031  35.489  0.00  0.00     0.000 C 
ATOM     18  C   UNL d   1      59.805  -6.397  35.949  0.00  0.00     0.000 C 
ENDBRANCH  16  17
ENDBRANCH  15  16
ENDBRANCH  13  15
ENDBRANCH  10  12
TORSDOF 4
ENDMDL
MODEL 4
REMARK VINA RESULT:      -2.9      2.249      4.279
REMARK  4 active torsions:
REMARK  status: ('A' for Active; 'I' for Inactive)
REMARK       I    between atoms: C_7  and  N_9 
REMARK    1  A    between atoms: C_15  and  C_7 
REMARK    2  A    between atoms: N_9  and  C_12 
REMARK    3  A    between atoms: C_16  and  C_15 
REMARK    4  A    between atoms: C_17  and  C_16 
ROOT
ATOM      1  N   UNL d   1      56.650  -0.009  33.425  0.00  0.00    -0.169 NA
ATOM      2  C   UNL d   1      56.311  -0.092  32.682  0.00  0.00     0.282 A 
ATOM      3  C   UNL d   1      57.410   0.280  33.327  0.00  0.00     0.282 A 
ATOM      4  C   UNL d   1      56.870   0.148  32.119  0.00  0.00     0.064 A 
ATOM      5  C   UNL d   1      57.543   0.375  32.524  0.00  0.00     0.063 A 
ATOM      6  C   UNL d   1      58.200   0.644  32.103  0.00  0.00     0.006 A 
ATOM      7  C   UNL d   1      56.838   0.183  31.295  0.00  0.00     0.024 A 
ATOM      8  O   UNL d   1      55.550  -0.368  32.543  0.00  0.00    -0.265 OA
ATOM      9  O   UNL d   1      57.951   0.447  33.925  0.00  0.00    -0.265 OA
ATOM     10  C   UNL d   1      57.490   0.449  30.878  0.00  0.00     0.085 A 
ATOM     11  C   UNL d   1      58.176   0.682  31.280  0.00  0.00     0.019 A 
ENDROOT
BRANCH  10  12
ATOM     12  N   UNL d   1      57.457   0.484  30.055  0.00  0.00    -0.208 NA
ATOM     13  C   UNL d   1      57.877  -0.058  29.605  0.00  0.00     0.279 C 
ATOM     14  O   UNL d   1      57.842  -0.020  28.786  0.00  0.00    -0.265 OA
BRANCH  13  15
ATOM     15  C   UNL d   1      58.329  -0.633  29.966  0.00  0.00     0.062 C 
BRANCH  15  16
ATOM     16  C   UNL d   1      58.837  -1.094  29.507  0.00  0.00     0.005 C 
BRANCH  16  17
ATOM     17  C   UNL d   1      58.844  -1.916  29.599  0.00  0.00     0.000 C 
ATOM     18  C   UNL d   1      59.483  -2.359  29.322  0.00  0.00     0.000 C 
ENDBRANCH  16  17
ENDBRANCH  15  16
ENDBRANCH  13  15
ENDBRANCH  10  12
TORSDOF 4
ENDMDL
MODEL 5
REMARK VINA RESULT:      -1.9      3.253      5.462
REMARK  4 active torsions:
REMARK  status: ('A' for Active; 'I' for Inactive)
REMARK       I    between atoms: C_7  and  N_9 
REMARK    1  A    between atoms: C_15  and  C_7 
REMARK    2  A    between atoms: N_9  and  C_12 
REMARK    3  A    between atoms: C_16  and  C_15 
REMARK    4  A    between atoms: C_17  and  C_16 
ROOT
ATOM      1  N   UNL d   1      55.141   0.530  34.419  0.00  0.00    -0.169 NA
ATOM      2  C   UNL d   1      54.945   0.190  33.697  0.00  0.00     0.282 A 
ATOM      3  C   UNL d   1      55.944   0.428  34.539  0.00  0.00     0.282 A 
ATOM      4  C   UNL d   1      55.638  -0.126  33.369  0.00  0.00     0.064 A 
ATOM      5  C   UNL d   1      56.247   0.024  33.894  0.00  0.00     0.063 A 
ATOM      6  C   UNL d   1      57.011  -0.230  33.712  0.00  0.00     0.006 A 
ATOM      7  C   UNL d   1      55.774  -0.527  32.662  0.00  0.00     0.024 A 
ATOM      8  O   UNL d   1      54.189   0.177  33.375  0.00  0.00    -0.265 OA
ATOM      9  O   UNL d   1      56.377   0.682  35.192  0.00  0.00    -0.265 OA
ATOM     10  C   UNL d   1      56.533  -0.779  32.482  0.00  0.00     0.085 A 
ATOM     11  C   UNL d   1      57.157  -0.631  33.007  0.00  0.00     0.019 A 
ENDROOT
BRANCH  10  12
ATOM     12  N   UNL d   1      56.670  -1.180  31.775  0.00  0.00    -0.208 NA
ATOM     13  C   UNL d   1      57.115  -0.827  31.183  0.00  0.00     0.279 C 
ATOM     14  O   UNL d   1      57.248  -1.229  30.481  0.00  0.00    -0.265 OA
BRANCH  13  15
ATOM     15  C   UNL d   1      57.424  -0.080  31.289  0.00  0.00     0.062 C 
BRANCH  15  16
ATOM     16  C   UNL d   1      57.823   0.283  30.663  0.00  0.00     0.005 C 
BRANCH  16  17
ATOM     17  C   UNL d   1      58.537   0.677  30.804  0.00  0.00     0.000 C 
ATOM     18  C   UNL d   1      59.158   0.615  30.264  0.00  0.00     0.000 C 
ENDBRANCH  16  17
ENDBRANCH  15  16
ENDBRANCH  13  15
ENDBRANCH  10  12
TORSDOF 4
ENDMDL
MODEL 6
REMARK VINA RESULT:      -1.8      1.281      1.786
REMARK  4 active torsions:
REMARK  status: ('A' for Active; 'I' for Inactive)
REMARK       I    between atoms: C_7  and  N_9 
REMARK    1  A    between atoms: C_15  and  C_7 
REMARK    2  A    between atoms: N_9  and  C_12 
REMARK    3  A    between atoms: C_16  and  C_15 
REMARK    4  A    between atoms: C_17  and  C_16 
ROOT
ATOM      1  N   UNL d   1      59.511  -2.322  29.045  0.00  0.00    -0.169 NA
ATOM      2  C   UNL d   1      58.720  -2.142  29.172  0.00  0.00     0.282 A 
ATOM      3  C   UNL d   1      59.955  -1.657  29.223  0.00  0.00     0.282 A 
ATOM      4  C   UNL d   1      58.676  -1.356  29.432  0.00  0.00     0.064 A 
ATOM      5  C   UNL d   1      59.440  -1.065  29.461  0.00  0.00     0.063 A 
ATOM      6  C   UNL d   1      59.569  -0.287  29.703  0.00  0.00     0.006 A 
ATOM      7  C   UNL d   1      58.033  -0.883  29.641  0.00  0.00     0.024 A 
ATOM      8  O   UNL d   1      58.096  -2.664  29.055  0.00  0.00    -0.265 OA
ATOM      9  O   UNL d   1      60.774  -1.589  29.175  0.00  0.00    -0.265 OA
ATOM     10  C   UNL d   1      58.163  -0.111  29.881  0.00  0.00     0.085 A 
ATOM     11  C   UNL d   1      58.933   0.192  29.914  0.00  0.00     0.019 A 
ENDROOT
BRANCH  10  12
ATOM     12  N   UNL d   1      57.520   0.361  30.090  0.00  0.00    -0.208 NA
ATOM     13  C   UNL d   1      57.109   0.209  30.784  0.00  0.00     0.279 C 
ATOM     14  O   UNL d   1      56.470   0.681  30.989  0.00  0.00    -0.265 OA
BRANCH  13  15
ATOM     15  C   UNL d   1      57.332  -0.406  31.270  0.00  0.00     0.062 C 
BRANCH  15  16
ATOM     16  C   UNL d   1      57.009  -0.458  32.029  0.00  0.00     0.005 C 
BRANCH  16  17
ATOM     17  C   UNL d   1      56.656  -1.163  32.278  0.00  0.00     0.000 C 
ATOM     18  C   UNL d   1      56.099  -1.156  32.887  0.00  0.00     0.000 C 
ENDBRANCH  16  17
ENDBRANCH  15  16
ENDBRANCH  13  15
ENDBRANCH  10  12
TORSDOF 4
ENDMDL
MODEL 7
REMARK VINA RESULT:      -0.6      1.945      2.097
REMARK  4 active torsions:
REMARK  status: ('A' for Active; 'I' for Inactive)
REMARK       I    between atoms: C_7  and  N_9 
REMARK    1  A    between atoms: C_15  and  C_7 
REMARK    2  A    between atoms: N_9  and  C_12 
REMARK    3  A    between atoms: C_16  and  C_15 
REMARK    4  A    between atoms: C_17  and  C_16 
ROOT
ATOM      1  N   UNL d   1      58.896  -3.534  29.002  0.00  0.00    -0.169 NA
ATOM      2  C   UNL d   1      58.770  -2.742  28.824  0.00  0.00     0.282 A 
ATOM      3  C   UNL d   1      59.703  -3.654  29.069  0.00  0.00     0.282 A 
ATOM      4  C   UNL d   1      59.509  -2.370  28.780  0.00  0.00     0.064 A 
ATOM      5  C   UNL d   1      60.078  -2.938  28.932  0.00  0.00     0.063 A 
ATOM      6  C   UNL d   1      60.875  -2.725  28.926  0.00  0.00     0.006 A 
ATOM      7  C   UNL d   1      59.720  -1.589  28.621  0.00  0.00     0.024 A 
ATOM      8  O   UNL d   1      58.031  -2.399  28.712  0.00  0.00    -0.265 OA
ATOM      9  O   UNL d   1      60.079  -4.365  29.243  0.00  0.00    -0.265 OA
ATOM     10  C   UNL d   1      60.512  -1.379  28.615  0.00  0.00     0.085 A 
ATOM     11  C   UNL d   1      61.095  -1.947  28.768  0.00  0.00     0.019 A 
ENDROOT
BRANCH  10  12
ATOM     12  N   UNL d   1      60.722  -0.598  28.455  0.00  0.00    -0.208 NA
ATOM     13  C   UNL d   1      60.924  -0.095  29.071  0.00  0.00     0.279 C 
ATOM     14  O   UNL d   1      61.133   0.682  28.908  0.00  0.00    -0.265 OA
BRANCH  13  15
ATOM     15  C   UNL d   1      60.918  -0.361  29.842  0.00  0.00     0.062 C 
BRANCH  15  16
ATOM     16  C   UNL d   1      60.960   0.187  30.458  0.00  0.00     0.005 C 
BRANCH  16  17
ATOM     17  C   UNL d   1      61.109  -0.072  31.229  0.00  0.00     0.000 C 
ATOM     18  C   UNL d   1      61.124   0.469  31.852  0.00  0.00     0.000 C 
ENDBRANCH  16  17
ENDBRANCH  15  16
ENDBRANCH  13  15
ENDBRANCH  10  12
TORSDOF 4
ENDMDL
