MODEL 1
REMARK VINA RESULT:      67.8      0.000      0.000
REMARK  9 active torsions:
REMARK  status: ('A' for Active; 'I' for Inactive)
REMARK       I    between atoms: C_2  and  N_1 
REMARK    1  A    between atoms: C_3  and  C_2 
REMARK    2  A    between atoms: C_15  and  C_4 
REMARK       I    between atoms: C_5  and  N_9 
REMARK    3  A    between atoms: C_6  and  C_5 
REMARK       I    between atoms: N_21  and  C_6 
REMARK    4  A    between atoms: N_9  and  C_15 
REMARK    5  A    between atoms: C_25  and  N_21 
REMARK    6  A    between atoms: N_23  and  C_26 
REMARK    7  A    between atoms: C_27  and  N_23 
REMARK    8  A    between atoms: C_28  and  N_23 
REMARK    9  A    between atoms: C_26  and  C_25 
ROOT
ATOM      1  N   UNL d   1     -56.020 -99.864 -43.882  0.00  0.00    -0.250 N 
ATOM      2  C   UNL d   1     -56.599 -99.772 -43.298  0.00  0.00     0.266 C 
ATOM      3  C   UNL d   1     -55.226-100.068 -43.769  0.00  0.00     0.190 A 
ATOM      4  O   UNL d   1     -56.400 -99.888 -42.503  0.00  0.00    -0.267 OA
ATOM      5  O   UNL d   1     -54.851-100.098 -44.498  0.00  0.00    -0.285 OA
ATOM      6  C   UNL d   1     -56.124 -99.770 -44.697  0.00  0.00     0.112 A 
ATOM      7  C   UNL d   1     -55.407 -99.914 -45.074  0.00  0.00     0.144 A 
ENDROOT
BRANCH   3   8
ATOM      8  C   UNL d   1     -54.873-100.217 -43.029  0.00  0.00     0.146 C 
BRANCH   8   9
ATOM      9  N   UNL d   1     -54.789-100.993 -42.766  0.00  0.00    -0.199 NA
ATOM     10  C   UNL d   1     -54.882-101.167 -41.970  0.00  0.00     0.337 C 
ATOM     11  O   UNL d   1     -55.060-100.569 -41.426  0.00  0.00    -0.260 OA
BRANCH  10  12
ATOM     12  C   UNL d   1     -54.798-101.943 -41.707  0.00  0.00     0.337 C 
ATOM     13  O   UNL d   1     -54.711-102.555 -42.250  0.00  0.00    -0.260 OA
ATOM     14  N   UNL d   1     -54.802-102.103 -40.903  0.00  0.00    -0.201 NA
BRANCH  14  15
ATOM     15  C   UNL d   1     -54.735-102.789 -40.434  0.00  0.00     0.121 C 
BRANCH  15  16
ATOM     16  C   UNL d   1     -54.711-102.762 -39.613  0.00  0.00     0.101 C 
BRANCH  16  17
ATOM     17  N   UNL d   1     -55.277-102.334 -39.200  0.00  0.00    -0.301 N 
BRANCH  17  18
ATOM     18  C   UNL d   1     -55.892-101.960 -39.583  0.00  0.00     0.080 C 
ATOM     19  C   UNL d   1     -56.651-101.910 -39.241  0.00  0.00     0.021 C 
ENDBRANCH  17  18
BRANCH  17  20
ATOM     20  C   UNL d   1     -55.220-102.281 -38.360  0.00  0.00     0.080 C 
ATOM     21  C   UNL d   1     -55.576-102.868 -37.885  0.00  0.00     0.021 C 
ENDBRANCH  17  20
ENDBRANCH  16  17
ENDBRANCH  15  16
ENDBRANCH  14  15
ENDBRANCH  10  12
ENDBRANCH   8   9
ENDBRANCH   3   8
BRANCH   2  22
ATOM     22  C   UNL d   1     -57.365 -99.566 -43.522  0.00  0.00     0.059 A 
ATOM     23  C   UNL d   1     -57.541 -99.340 -44.286  0.00  0.00     0.031 A 
ATOM     24  C   UNL d   1     -58.308 -99.134 -44.509  0.00  0.00     0.119 A 
ATOM     25  O   UNL d   1     -58.640 -98.891 -45.221  0.00  0.00    -0.300 OA
ATOM     26  C   UNL d   1     -58.914 -99.159 -43.933  0.00  0.00     0.119 A 
ATOM     27  C   UNL d   1     -59.452 -98.765 -45.086  0.00  0.00     0.304 A 
ATOM     28  O   UNL d   1     -59.617 -98.928 -44.303  0.00  0.00    -0.300 OA
ATOM     29  C   UNL d   1     -58.748 -99.385 -43.158  0.00  0.00     0.026 A 
ATOM     30  C   UNL d   1     -57.976 -99.588 -42.950  0.00  0.00     0.007 A 
ENDBRANCH   2  22
TORSDOF 9
ENDMDL
MODEL 2
REMARK VINA RESULT:      68.1      2.174      5.834
REMARK  9 active torsions:
REMARK  status: ('A' for Active; 'I' for Inactive)
REMARK       I    between atoms: C_2  and  N_1 
REMARK    1  A    between atoms: C_3  and  C_2 
REMARK    2  A    between atoms: C_15  and  C_4 
REMARK       I    between atoms: C_5  and  N_9 
REMARK    3  A    between atoms: C_6  and  C_5 
REMARK       I    between atoms: N_21  and  C_6 
REMARK    4  A    between atoms: N_9  and  C_15 
REMARK    5  A    between atoms: C_25  and  N_21 
REMARK    6  A    between atoms: N_23  and  C_26 
REMARK    7  A    between atoms: C_27  and  N_23 
REMARK    8  A    between atoms: C_28  and  N_23 
REMARK    9  A    between atoms: C_26  and  C_25 
ROOT
ATOM      1  N   UNL d   1     -54.943-101.775 -39.800  0.00  0.00    -0.250 N 
ATOM      2  C   UNL d   1     -55.029-101.320 -39.113  0.00  0.00     0.266 C 
ATOM      3  C   UNL d   1     -54.805-101.498 -40.567  0.00  0.00     0.190 A 
ATOM      4  O   UNL d   1     -54.977-100.495 -39.161  0.00  0.00    -0.267 OA
ATOM      5  O   UNL d   1     -54.758-102.139 -41.078  0.00  0.00    -0.285 OA
ATOM      6  C   UNL d   1     -54.979-102.599 -39.850  0.00  0.00     0.112 A 
ATOM      7  C   UNL d   1     -54.865-102.822 -40.634  0.00  0.00     0.144 A 
ENDROOT
BRANCH   3   8
ATOM      8  C   UNL d   1     -54.729-100.696 -40.778  0.00  0.00     0.146 C 
BRANCH   8   9
ATOM      9  N   UNL d   1     -54.713-100.483 -41.574  0.00  0.00    -0.199 NA
ATOM     10  C   UNL d   1     -55.107 -99.808 -41.823  0.00  0.00     0.337 C 
ATOM     11  O   UNL d   1     -55.521 -99.337 -41.284  0.00  0.00    -0.260 OA
BRANCH  10  12
ATOM     12  C   UNL d   1     -55.091 -99.595 -42.619  0.00  0.00     0.337 C 
ATOM     13  O   UNL d   1     -54.749 -98.883 -42.848  0.00  0.00    -0.260 OA
ATOM     14  N   UNL d   1     -55.415-100.095 -43.181  0.00  0.00    -0.201 NA
BRANCH  14  15
ATOM     15  C   UNL d   1     -55.505-100.079 -44.010  0.00  0.00     0.121 C 
BRANCH  15  16
ATOM     16  C   UNL d   1     -55.031-100.524 -44.514  0.00  0.00     0.101 C 
BRANCH  16  17
ATOM     17  N   UNL d   1     -55.033-101.343 -44.463  0.00  0.00    -0.301 N 
BRANCH  17  18
ATOM     18  C   UNL d   1     -55.269-101.809 -45.088  0.00  0.00     0.080 C 
ATOM     19  C   UNL d   1     -54.862-101.800 -45.815  0.00  0.00     0.021 C 
ENDBRANCH  17  18
BRANCH  17  20
ATOM     20  C   UNL d   1     -54.783-101.710 -43.746  0.00  0.00     0.080 C 
ATOM     21  C   UNL d   1     -54.824-102.541 -43.673  0.00  0.00     0.021 C 
ENDBRANCH  17  20
ENDBRANCH  16  17
ENDBRANCH  15  16
ENDBRANCH  14  15
ENDBRANCH  10  12
ENDBRANCH   8   9
ENDBRANCH   3   8
BRANCH   2  22
ATOM     22  C   UNL d   1     -55.164-101.700 -38.394  0.00  0.00     0.059 A 
ATOM     23  C   UNL d   1     -55.714-101.419 -37.860  0.00  0.00     0.031 A 
ATOM     24  C   UNL d   1     -55.850-101.798 -37.141  0.00  0.00     0.119 A 
ATOM     25  O   UNL d   1     -56.356-101.646 -36.511  0.00  0.00    -0.300 OA
ATOM     26  C   UNL d   1     -55.409-102.487 -36.961  0.00  0.00     0.119 A 
ATOM     27  C   UNL d   1     -56.229-102.239 -35.941  0.00  0.00     0.304 A 
ATOM     28  O   UNL d   1     -55.654-102.750 -36.216  0.00  0.00    -0.300 OA
ATOM     29  C   UNL d   1     -54.852-102.780 -37.493  0.00  0.00     0.026 A 
ATOM     30  C   UNL d   1     -54.727-102.389 -38.209  0.00  0.00     0.007 A 
ENDBRANCH   2  22
TORSDOF 9
ENDMDL
