MODEL 1
REMARK VINA RESULT:      24.0      0.000      0.000
REMARK  5 active torsions:
REMARK  status: ('A' for Active; 'I' for Inactive)
REMARK    1  A    between atoms: C_6  and  C_1 
REMARK    2  A    between atoms: N_7  and  C_2 
REMARK    3  A    between atoms: O_11  and  C_6 
REMARK       I    between atoms: C_8  and  N_7 
REMARK    4  A    between atoms: C_14  and  C_8 
REMARK    5  A    between atoms: C_15  and  O_11 
ROOT
ATOM      1  C   UNL d   1      13.637  12.470  -3.187  0.00  0.00     0.162 A 
ATOM      2  C   UNL d   1      14.142  13.054  -2.894  0.00  0.00     0.109 A 
ATOM      3  N   UNL d   1      13.539  11.898  -2.604  0.00  0.00    -0.239 NA
ATOM      4  C   UNL d   1      14.354  12.841  -2.130  0.00  0.00     0.037 A 
ATOM      5  C   UNL d   1      13.985  12.128  -1.945  0.00  0.00     0.083 A 
ATOM      6  C   UNL d   1      14.842  13.211  -1.574  0.00  0.00     0.003 A 
ATOM      7  C   UNL d   1      14.099  11.779  -1.205  0.00  0.00     0.019 A 
ATOM      8  C   UNL d   1      14.957  12.862  -0.834  0.00  0.00     0.000 A 
ATOM      9  C   UNL d   1      14.586  12.150  -0.653  0.00  0.00     0.002 A 
ENDROOT
BRANCH   1  10
ATOM     10  C   UNL d   1      13.294  12.466  -3.938  0.00  0.00     0.320 C 
ATOM     11  O   UNL d   1      12.855  13.113  -4.194  0.00  0.00    -0.257 OA
BRANCH  10  12
ATOM     12  O   UNL d   1      13.385  11.817  -4.437  0.00  0.00    -0.270 OA
BRANCH  12  13
ATOM     13  C   UNL d   1      12.947  11.779  -5.135  0.00  0.00     0.126 C 
ATOM     14  C   UNL d   1      13.334  11.813  -5.856  0.00  0.00     0.029 C 
ENDBRANCH  12  13
ENDBRANCH  10  12
ENDBRANCH   1  10
BRANCH   2  15
ATOM     15  N   UNL d   1      14.390  13.732  -3.298  0.00  0.00    -0.206 NA
ATOM     16  C   UNL d   1      13.910  14.416  -3.287  0.00  0.00     0.279 C 
ATOM     17  O   UNL d   1      13.194  14.407  -2.872  0.00  0.00    -0.265 OA
BRANCH  16  18
ATOM     18  C   UNL d   1      14.159  15.090  -3.690  0.00  0.00     0.062 C 
ATOM     19  C   UNL d   1      14.544  15.694  -3.275  0.00  0.00     0.005 C 
ENDBRANCH  16  18
ENDBRANCH   2  15
TORSDOF 5
ENDMDL
MODEL 2
REMARK VINA RESULT:      26.3      0.904      1.012
REMARK  5 active torsions:
REMARK  status: ('A' for Active; 'I' for Inactive)
REMARK    1  A    between atoms: C_6  and  C_1 
REMARK    2  A    between atoms: N_7  and  C_2 
REMARK    3  A    between atoms: O_11  and  C_6 
REMARK       I    between atoms: C_8  and  N_7 
REMARK    4  A    between atoms: C_14  and  C_8 
REMARK    5  A    between atoms: C_15  and  O_11 
ROOT
ATOM      1  C   UNL d   1      13.883  12.765  -2.619  0.00  0.00     0.162 A 
ATOM      2  C   UNL d   1      14.338  13.319  -2.210  0.00  0.00     0.109 A 
ATOM      3  N   UNL d   1      13.759  12.119  -2.125  0.00  0.00    -0.239 NA
ATOM      4  C   UNL d   1      14.494  13.014  -1.463  0.00  0.00     0.037 A 
ATOM      5  C   UNL d   1      14.139  12.273  -1.405  0.00  0.00     0.083 A 
ATOM      6  C   UNL d   1      14.919  13.322  -0.824  0.00  0.00     0.003 A 
ATOM      7  C   UNL d   1      14.204  11.833  -0.709  0.00  0.00     0.019 A 
ATOM      8  C   UNL d   1      14.984  12.882  -0.128  0.00  0.00     0.000 A 
ATOM      9  C   UNL d   1      14.628  12.143  -0.073  0.00  0.00     0.002 A 
ENDROOT
BRANCH   1  10
ATOM     10  C   UNL d   1      13.604  12.850  -3.391  0.00  0.00     0.320 C 
ATOM     11  O   UNL d   1      13.336  13.582  -3.655  0.00  0.00    -0.257 OA
BRANCH  10  12
ATOM     12  O   UNL d   1      13.590  12.205  -3.905  0.00  0.00    -0.270 OA
BRANCH  12  13
ATOM     13  C   UNL d   1      12.927  12.082  -4.380  0.00  0.00     0.126 C 
ATOM     14  C   UNL d   1      13.025  11.807  -5.145  0.00  0.00     0.029 C 
ENDBRANCH  12  13
ENDBRANCH  10  12
ENDBRANCH   1  10
BRANCH   2  15
ATOM     15  N   UNL d   1      14.592  14.052  -2.500  0.00  0.00    -0.206 NA
ATOM     16  C   UNL d   1      14.621  14.710  -1.987  0.00  0.00     0.279 C 
ATOM     17  O   UNL d   1      14.395  14.623  -1.196  0.00  0.00    -0.265 OA
BRANCH  16  18
ATOM     18  C   UNL d   1      14.874  15.438  -2.279  0.00  0.00     0.062 C 
ATOM     19  C   UNL d   1      14.910  16.091  -1.770  0.00  0.00     0.005 C 
ENDBRANCH  16  18
ENDBRANCH   2  15
TORSDOF 5
ENDMDL
MODEL 3
REMARK VINA RESULT:      26.4      0.783      2.546
REMARK  5 active torsions:
REMARK  status: ('A' for Active; 'I' for Inactive)
REMARK    1  A    between atoms: C_6  and  C_1 
REMARK    2  A    between atoms: N_7  and  C_2 
REMARK    3  A    between atoms: O_11  and  C_6 
REMARK       I    between atoms: C_8  and  N_7 
REMARK    4  A    between atoms: C_14  and  C_8 
REMARK    5  A    between atoms: C_15  and  O_11 
ROOT
ATOM      1  C   UNL d   1      13.952  13.873  -3.040  0.00  0.00     0.162 A 
ATOM      2  C   UNL d   1      13.656  13.105  -2.976  0.00  0.00     0.109 A 
ATOM      3  N   UNL d   1      14.501  13.988  -2.438  0.00  0.00    -0.239 NA
ATOM      4  C   UNL d   1      14.023  12.747  -2.334  0.00  0.00     0.037 A 
ATOM      5  C   UNL d   1      14.545  13.288  -1.998  0.00  0.00     0.083 A 
ATOM      6  C   UNL d   1      13.944  11.990  -2.011  0.00  0.00     0.003 A 
ATOM      7  C   UNL d   1      14.995  13.077  -1.337  0.00  0.00     0.019 A 
ATOM      8  C   UNL d   1      14.394  11.779  -1.351  0.00  0.00     0.000 A 
ATOM      9  C   UNL d   1      14.915  12.321  -1.018  0.00  0.00     0.002 A 
ENDROOT
BRANCH   1  10
ATOM     10  C   UNL d   1      13.732  14.426  -3.612  0.00  0.00     0.320 C 
ATOM     11  O   UNL d   1      12.936  14.547  -3.784  0.00  0.00    -0.257 OA
BRANCH  10  12
ATOM     12  O   UNL d   1      14.303  14.862  -4.016  0.00  0.00    -0.270 OA
BRANCH  12  13
ATOM     13  C   UNL d   1      14.147  15.646  -4.215  0.00  0.00     0.126 C 
ATOM     14  C   UNL d   1      14.705  16.075  -4.633  0.00  0.00     0.029 C 
ENDBRANCH  12  13
ENDBRANCH  10  12
ENDBRANCH   1  10
BRANCH   2  15
ATOM     15  N   UNL d   1      13.090  12.758  -3.471  0.00  0.00    -0.206 NA
ATOM     16  C   UNL d   1      13.339  12.264  -4.097  0.00  0.00     0.279 C 
ATOM     17  O   UNL d   1      14.146  12.127  -4.215  0.00  0.00    -0.265 OA
BRANCH  16  18
ATOM     18  C   UNL d   1      12.773  11.920  -4.588  0.00  0.00     0.062 C 
ATOM     19  C   UNL d   1      12.955  11.782  -5.384  0.00  0.00     0.005 C 
ENDBRANCH  16  18
ENDBRANCH   2  15
TORSDOF 5
ENDMDL
