MODEL 1
REMARK VINA RESULT:      -4.4      0.000      0.000
REMARK  11 active torsions:
REMARK  status: ('A' for Active; 'I' for Inactive)
REMARK    1  A    between atoms: C_8  and  S_1 
REMARK    2  A    between atoms: N_19  and  S_1 
REMARK    3  A    between atoms: S_2  and  C_9 
REMARK    4  A    between atoms: N_20  and  S_2 
REMARK    5  A    between atoms: N_14  and  C_5 
REMARK    6  A    between atoms: C_24  and  N_19 
REMARK    7  A    between atoms: C_25  and  N_20 
REMARK    8  A    between atoms: C_29  and  C_24 
REMARK    9  A    between atoms: C_28  and  C_25 
REMARK   10  A    between atoms: O_26  and  C_29 
REMARK   11  A    between atoms: O_27  and  C_28 
ROOT
ATOM      1  C   UNL d   1     -46.974  13.260  22.636  0.00  0.00     0.021 A 
ATOM      2  C   UNL d   1     -45.772  13.096  22.324  0.00  0.00     0.021 A 
ATOM      3  C   UNL d   1     -46.299  13.628  22.345  0.00  0.00     0.111 A 
ATOM      4  C   UNL d   1     -46.798  12.464  22.783  0.00  0.00     0.002 A 
ATOM      5  C   UNL d   1     -46.006  12.342  22.581  0.00  0.00     0.002 A 
ATOM      6  C   UNL d   1     -48.306  13.037  23.082  0.00  0.00     0.105 A 
ATOM      7  C   UNL d   1     -44.463  12.606  22.062  0.00  0.00     0.105 A 
ATOM      8  C   UNL d   1     -44.999  13.225  22.064  0.00  0.00     0.015 A 
ATOM      9  C   UNL d   1     -47.729  13.543  22.787  0.00  0.00     0.015 A 
ATOM     10  C   UNL d   1     -45.461  11.722  22.576  0.00  0.00     0.001 A 
ATOM     11  C   UNL d   1     -47.375  11.956  23.080  0.00  0.00     0.001 A 
ATOM     12  C   UNL d   1     -44.689  11.848  22.318  0.00  0.00     0.013 A 
ATOM     13  C   UNL d   1     -48.129  12.255  23.226  0.00  0.00     0.013 A 
ENDROOT
BRANCH   6  14
ATOM     14  S   UNL d   1     -49.099  13.159  23.285  0.00  0.00     0.285 S 
ATOM     15  O   UNL d   1     -48.892  13.845  23.698  0.00  0.00    -0.198 OA
ATOM     16  O   UNL d   1     -49.296  12.475  22.871  0.00  0.00    -0.198 OA
BRANCH  14  17
ATOM     17  N   UNL d   1     -49.684  13.600  23.662  0.00  0.00    -0.155 NA
BRANCH  17  18
ATOM     18  C   UNL d   1     -50.198  14.068  23.220  0.00  0.00     0.138 C 
BRANCH  18  19
ATOM     19  C   UNL d   1     -50.807  14.494  23.591  0.00  0.00     0.138 C 
BRANCH  19  20
ATOM     20  O   UNL d   1     -51.064  15.207  23.285  0.00  0.00    -0.325 OA
ATOM     21  C   UNL d   1     -50.837  15.921  23.633  0.00  0.00     0.182 C 
ENDBRANCH  19  20
ENDBRANCH  18  19
ENDBRANCH  17  18
ENDBRANCH  14  17
ENDBRANCH   6  14
BRANCH   3  22
ATOM     22  N   UNL d   1     -46.233  14.423  22.127  0.00  0.00    -0.096 NA
ATOM     23  O   UNL d   1     -46.025  14.985  22.704  0.00  0.00    -0.061 OA
ENDBRANCH   3  22
BRANCH   7  24
ATOM     24  S   UNL d   1     -43.671  12.484  21.860  0.00  0.00     0.285 S 
ATOM     25  O   UNL d   1     -43.583  11.978  22.508  0.00  0.00    -0.198 OA
ATOM     26  O   UNL d   1     -43.759  12.990  21.212  0.00  0.00    -0.198 OA
BRANCH  24  27
ATOM     27  N   UNL d   1     -43.030  12.632  21.361  0.00  0.00    -0.155 NA
BRANCH  27  28
ATOM     28  C   UNL d   1     -42.608  13.338  21.434  0.00  0.00     0.138 C 
BRANCH  28  29
ATOM     29  C   UNL d   1     -41.905  13.440  21.015  0.00  0.00     0.138 C 
BRANCH  29  30
ATOM     30  O   UNL d   1     -41.464  14.141  21.103  0.00  0.00    -0.325 OA
ATOM     31  C   UNL d   1     -40.978  14.395  20.496  0.00  0.00     0.182 C 
ENDBRANCH  29  30
ENDBRANCH  28  29
ENDBRANCH  27  28
ENDBRANCH  24  27
ENDBRANCH   7  24
TORSDOF 11
ENDMDL
MODEL 2
REMARK VINA RESULT:      -4.2      1.526      1.993
REMARK  11 active torsions:
REMARK  status: ('A' for Active; 'I' for Inactive)
REMARK    1  A    between atoms: C_8  and  S_1 
REMARK    2  A    between atoms: N_19  and  S_1 
REMARK    3  A    between atoms: S_2  and  C_9 
REMARK    4  A    between atoms: N_20  and  S_2 
REMARK    5  A    between atoms: N_14  and  C_5 
REMARK    6  A    between atoms: C_24  and  N_19 
REMARK    7  A    between atoms: C_25  and  N_20 
REMARK    8  A    between atoms: C_29  and  C_24 
REMARK    9  A    between atoms: C_28  and  C_25 
REMARK   10  A    between atoms: O_26  and  C_29 
REMARK   11  A    between atoms: O_27  and  C_28 
ROOT
ATOM      1  C   UNL d   1     -45.949  12.306  22.919  0.00  0.00     0.021 A 
ATOM      2  C   UNL d   1     -44.795  12.410  22.441  0.00  0.00     0.021 A 
ATOM      3  C   UNL d   1     -45.181  12.015  22.947  0.00  0.00     0.111 A 
ATOM      4  C   UNL d   1     -45.981  12.909  22.350  0.00  0.00     0.002 A 
ATOM      5  C   UNL d   1     -45.224  12.987  22.027  0.00  0.00     0.002 A 
ATOM      6  C   UNL d   1     -47.333  12.499  23.186  0.00  0.00     0.105 A 
ATOM      7  C   UNL d   1     -43.621  12.760  21.721  0.00  0.00     0.105 A 
ATOM      8  C   UNL d   1     -43.993  12.299  22.285  0.00  0.00     0.015 A 
ATOM      9  C   UNL d   1     -46.627  12.105  23.334  0.00  0.00     0.015 A 
ATOM     10  C   UNL d   1     -44.844  13.449  21.459  0.00  0.00     0.001 A 
ATOM     11  C   UNL d   1     -46.688  13.305  22.201  0.00  0.00     0.001 A 
ATOM     12  C   UNL d   1     -44.043  13.340  21.301  0.00  0.00     0.013 A 
ATOM     13  C   UNL d   1     -47.360  13.091  22.626  0.00  0.00     0.013 A 
ENDROOT
BRANCH   6  14
ATOM     14  S   UNL d   1     -48.090  12.420  23.510  0.00  0.00     0.285 S 
ATOM     15  O   UNL d   1     -48.091  11.615  23.322  0.00  0.00    -0.198 OA
ATOM     16  O   UNL d   1     -48.081  13.223  23.693  0.00  0.00    -0.198 OA
BRANCH  14  17
ATOM     17  N   UNL d   1     -48.746  11.958  23.698  0.00  0.00    -0.155 NA
BRANCH  17  18
ATOM     18  C   UNL d   1     -49.500  12.289  23.693  0.00  0.00     0.138 C 
BRANCH  18  19
ATOM     19  C   UNL d   1     -50.173  11.808  23.621  0.00  0.00     0.138 C 
BRANCH  19  20
ATOM     20  O   UNL d   1     -50.908  12.136  23.481  0.00  0.00    -0.325 OA
ATOM     21  C   UNL d   1     -51.064  12.533  22.773  0.00  0.00     0.182 C 
ENDBRANCH  19  20
ENDBRANCH  18  19
ENDBRANCH  17  18
ENDBRANCH  14  17
ENDBRANCH   6  14
BRANCH   3  22
ATOM     22  N   UNL d   1     -44.908  11.409  23.439  0.00  0.00    -0.096 NA
ATOM     23  O   UNL d   1     -45.040  10.618  23.219  0.00  0.00    -0.061 OA
ENDBRANCH   3  22
BRANCH   7  24
ATOM     24  S   UNL d   1     -42.864  12.838  21.397  0.00  0.00     0.285 S 
ATOM     25  O   UNL d   1     -43.140  12.537  20.678  0.00  0.00    -0.198 OA
ATOM     26  O   UNL d   1     -42.588  13.140  22.116  0.00  0.00    -0.198 OA
BRANCH  24  27
ATOM     27  N   UNL d   1     -42.072  13.057  21.478  0.00  0.00    -0.155 NA
BRANCH  27  28
ATOM     28  C   UNL d   1     -41.694  13.460  20.865  0.00  0.00     0.138 C 
BRANCH  28  29
ATOM     29  C   UNL d   1     -40.936  13.767  20.982  0.00  0.00     0.138 C 
BRANCH  29  30
ATOM     30  O   UNL d   1     -40.650  14.374  20.489  0.00  0.00    -0.325 OA
ATOM     31  C   UNL d   1     -39.984  14.794  20.707  0.00  0.00     0.182 C 
ENDBRANCH  29  30
ENDBRANCH  28  29
ENDBRANCH  27  28
ENDBRANCH  24  27
ENDBRANCH   7  24
TORSDOF 11
ENDMDL
MODEL 3
REMARK VINA RESULT:      -4.0      1.387      6.140
REMARK  11 active torsions:
REMARK  status: ('A' for Active; 'I' for Inactive)
REMARK    1  A    between atoms: C_8  and  S_1 
REMARK    2  A    between atoms: N_19  and  S_1 
REMARK    3  A    between atoms: S_2  and  C_9 
REMARK    4  A    between atoms: N_20  and  S_2 
REMARK    5  A    between atoms: N_14  and  C_5 
REMARK    6  A    between atoms: C_24  and  N_19 
REMARK    7  A    between atoms: C_25  and  N_20 
REMARK    8  A    between atoms: C_29  and  C_24 
REMARK    9  A    between atoms: C_28  and  C_25 
REMARK   10  A    between atoms: O_26  and  C_29 
REMARK   11  A    between atoms: O_27  and  C_28 
ROOT
ATOM      1  C   UNL d   1     -44.805  13.029  21.995  0.00  0.00     0.021 A 
ATOM      2  C   UNL d   1     -45.938  12.776  22.468  0.00  0.00     0.021 A 
ATOM      3  C   UNL d   1     -45.561  13.324  22.123  0.00  0.00     0.111 A 
ATOM      4  C   UNL d   1     -44.770  12.258  22.295  0.00  0.00     0.002 A 
ATOM      5  C   UNL d   1     -45.513  12.078  22.610  0.00  0.00     0.002 A 
ATOM      6  C   UNL d   1     -43.445  12.925  21.593  0.00  0.00     0.105 A 
ATOM      7  C   UNL d   1     -47.089  12.203  23.074  0.00  0.00     0.105 A 
ATOM      8  C   UNL d   1     -46.727  12.835  22.701  0.00  0.00     0.015 A 
ATOM      9  C   UNL d   1     -44.141  13.359  21.645  0.00  0.00     0.015 A 
ATOM     10  C   UNL d   1     -45.883  11.443  22.986  0.00  0.00     0.001 A 
ATOM     11  C   UNL d   1     -44.072  11.821  22.243  0.00  0.00     0.001 A 
ATOM     12  C   UNL d   1     -46.671  11.500  23.221  0.00  0.00     0.013 A 
ATOM     13  C   UNL d   1     -43.414  12.166  21.888  0.00  0.00     0.013 A 
ENDROOT
BRANCH   6  14
ATOM     14  S   UNL d   1     -42.702  13.105  21.277  0.00  0.00     0.285 S 
ATOM     15  O   UNL d   1     -42.464  13.416  22.006  0.00  0.00    -0.198 OA
ATOM     16  O   UNL d   1     -42.947  12.794  20.556  0.00  0.00    -0.198 OA
BRANCH  14  17
ATOM     17  N   UNL d   1     -41.942  13.414  21.361  0.00  0.00    -0.155 NA
BRANCH  17  18
ATOM     18  C   UNL d   1     -41.553  13.736  20.710  0.00  0.00     0.138 C 
BRANCH  18  19
ATOM     19  C   UNL d   1     -41.019  14.364  20.805  0.00  0.00     0.138 C 
BRANCH  19  20
ATOM     20  O   UNL d   1     -40.611  14.666  20.165  0.00  0.00    -0.325 OA
ATOM     21  C   UNL d   1     -39.822  14.457  20.032  0.00  0.00     0.182 C 
ENDBRANCH  19  20
ENDBRANCH  18  19
ENDBRANCH  17  18
ENDBRANCH  14  17
ENDBRANCH   6  14
BRANCH   3  22
ATOM     22  N   UNL d   1     -45.834  14.075  21.910  0.00  0.00    -0.096 NA
ATOM     23  O   UNL d   1     -45.761  14.702  22.452  0.00  0.00    -0.061 OA
ENDBRANCH   3  22
BRANCH   7  24
ATOM     24  S   UNL d   1     -47.832  12.023  23.389  0.00  0.00     0.285 S 
ATOM     25  O   UNL d   1     -47.667  11.216  23.317  0.00  0.00    -0.198 OA
ATOM     26  O   UNL d   1     -47.997  12.830  23.462  0.00  0.00    -0.198 OA
BRANCH  24  27
ATOM     27  N   UNL d   1     -48.556  12.272  23.698  0.00  0.00    -0.155 NA
BRANCH  27  28
ATOM     28  C   UNL d   1     -49.257  12.071  23.311  0.00  0.00     0.138 C 
BRANCH  28  29
ATOM     29  C   UNL d   1     -49.980  12.338  23.608  0.00  0.00     0.138 C 
BRANCH  29  30
ATOM     30  O   UNL d   1     -50.694  12.057  23.284  0.00  0.00    -0.325 OA
ATOM     31  C   UNL d   1     -51.063  12.478  22.688  0.00  0.00     0.182 C 
ENDBRANCH  29  30
ENDBRANCH  28  29
ENDBRANCH  27  28
ENDBRANCH  24  27
ENDBRANCH   7  24
TORSDOF 11
ENDMDL
MODEL 4
REMARK VINA RESULT:      -3.9      1.738      6.388
REMARK  11 active torsions:
REMARK  status: ('A' for Active; 'I' for Inactive)
REMARK    1  A    between atoms: C_8  and  S_1 
REMARK    2  A    between atoms: N_19  and  S_1 
REMARK    3  A    between atoms: S_2  and  C_9 
REMARK    4  A    between atoms: N_20  and  S_2 
REMARK    5  A    between atoms: N_14  and  C_5 
REMARK    6  A    between atoms: C_24  and  N_19 
REMARK    7  A    between atoms: C_25  and  N_20 
REMARK    8  A    between atoms: C_29  and  C_24 
REMARK    9  A    between atoms: C_28  and  C_25 
REMARK   10  A    between atoms: O_26  and  C_29 
REMARK   11  A    between atoms: O_27  and  C_28 
ROOT
ATOM      1  C   UNL d   1     -44.294  12.414  22.256  0.00  0.00     0.021 A 
ATOM      2  C   UNL d   1     -45.426  12.243  22.765  0.00  0.00     0.021 A 
ATOM      3  C   UNL d   1     -44.738  11.947  22.765  0.00  0.00     0.111 A 
ATOM      4  C   UNL d   1     -44.781  13.013  21.955  0.00  0.00     0.002 A 
ATOM      5  C   UNL d   1     -45.533  12.911  22.284  0.00  0.00     0.002 A 
ATOM      6  C   UNL d   1     -43.208  12.930  21.496  0.00  0.00     0.105 A 
ATOM      7  C   UNL d   1     -46.788  12.309  23.167  0.00  0.00     0.105 A 
ATOM      8  C   UNL d   1     -46.056  11.944  23.206  0.00  0.00     0.015 A 
ATOM      9  C   UNL d   1     -43.508  12.376  22.024  0.00  0.00     0.015 A 
ATOM     10  C   UNL d   1     -46.273  13.274  22.249  0.00  0.00     0.001 A 
ATOM     11  C   UNL d   1     -44.482  13.569  21.426  0.00  0.00     0.001 A 
ATOM     12  C   UNL d   1     -46.904  12.978  22.688  0.00  0.00     0.013 A 
ATOM     13  C   UNL d   1     -43.691  13.518  21.202  0.00  0.00     0.013 A 
ENDROOT
BRANCH   6  14
ATOM     14  S   UNL d   1     -42.456  13.032  21.168  0.00  0.00     0.285 S 
ATOM     15  O   UNL d   1     -42.195  13.393  21.865  0.00  0.00    -0.198 OA
ATOM     16  O   UNL d   1     -42.723  12.672  20.477  0.00  0.00    -0.198 OA
BRANCH  14  17
ATOM     17  N   UNL d   1     -41.677  13.297  21.224  0.00  0.00    -0.155 NA
BRANCH  17  18
ATOM     18  C   UNL d   1     -41.348  13.745  20.617  0.00  0.00     0.138 C 
BRANCH  18  19
ATOM     19  C   UNL d   1     -40.589  14.073  20.696  0.00  0.00     0.138 C 
BRANCH  19  20
ATOM     20  O   UNL d   1     -39.992  13.874  20.175  0.00  0.00    -0.325 OA
ATOM     21  C   UNL d   1     -39.704  14.428  19.633  0.00  0.00     0.182 C 
ENDBRANCH  19  20
ENDBRANCH  18  19
ENDBRANCH  17  18
ENDBRANCH  14  17
ENDBRANCH   6  14
BRANCH   3  22
ATOM     22  N   UNL d   1     -44.466  11.288  23.185  0.00  0.00    -0.096 NA
ATOM     23  O   UNL d   1     -44.168  10.634  22.763  0.00  0.00    -0.061 OA
ENDBRANCH   3  22
BRANCH   7  24
ATOM     24  S   UNL d   1     -47.540  12.207  23.495  0.00  0.00     0.285 S 
ATOM     25  O   UNL d   1     -47.576  13.016  23.663  0.00  0.00    -0.198 OA
ATOM     26  O   UNL d   1     -47.503  11.398  23.328  0.00  0.00    -0.198 OA
BRANCH  24  27
ATOM     27  N   UNL d   1     -48.171  11.714  23.696  0.00  0.00    -0.155 NA
BRANCH  27  28
ATOM     28  C   UNL d   1     -48.930  11.888  23.422  0.00  0.00     0.138 C 
BRANCH  28  29
ATOM     29  C   UNL d   1     -49.570  11.431  23.671  0.00  0.00     0.138 C 
BRANCH  29  30
ATOM     30  O   UNL d   1     -50.309  11.506  23.293  0.00  0.00    -0.325 OA
ATOM     31  C   UNL d   1     -50.904  11.941  23.646  0.00  0.00     0.182 C 
ENDBRANCH  29  30
ENDBRANCH  28  29
ENDBRANCH  27  28
ENDBRANCH  24  27
ENDBRANCH   7  24
TORSDOF 11
ENDMDL
MODEL 5
REMARK VINA RESULT:      -3.8      1.818      2.558
REMARK  11 active torsions:
REMARK  status: ('A' for Active; 'I' for Inactive)
REMARK    1  A    between atoms: C_8  and  S_1 
REMARK    2  A    between atoms: N_19  and  S_1 
REMARK    3  A    between atoms: S_2  and  C_9 
REMARK    4  A    between atoms: N_20  and  S_2 
REMARK    5  A    between atoms: N_14  and  C_5 
REMARK    6  A    between atoms: C_24  and  N_19 
REMARK    7  A    between atoms: C_25  and  N_20 
REMARK    8  A    between atoms: C_29  and  C_24 
REMARK    9  A    between atoms: C_28  and  C_25 
REMARK   10  A    between atoms: O_26  and  C_29 
REMARK   11  A    between atoms: O_27  and  C_28 
ROOT
ATOM      1  C   UNL d   1     -45.140  12.217  22.558  0.00  0.00     0.021 A 
ATOM      2  C   UNL d   1     -44.034  12.494  22.038  0.00  0.00     0.021 A 
ATOM      3  C   UNL d   1     -44.375  11.949  22.423  0.00  0.00     0.111 A 
ATOM      4  C   UNL d   1     -45.220  12.968  22.218  0.00  0.00     0.002 A 
ATOM      5  C   UNL d   1     -44.495  13.164  21.871  0.00  0.00     0.002 A 
ATOM      6  C   UNL d   1     -46.492  12.282  22.995  0.00  0.00     0.105 A 
ATOM      7  C   UNL d   1     -42.928  13.083  21.367  0.00  0.00     0.105 A 
ATOM      8  C   UNL d   1     -43.250  12.457  21.785  0.00  0.00     0.015 A 
ATOM      9  C   UNL d   1     -45.779  11.877  22.945  0.00  0.00     0.015 A 
ATOM     10  C   UNL d   1     -44.165  13.792  21.450  0.00  0.00     0.001 A 
ATOM     11  C   UNL d   1     -45.935  13.376  22.267  0.00  0.00     0.001 A 
ATOM     12  C   UNL d   1     -43.382  13.757  21.196  0.00  0.00     0.013 A 
ATOM     13  C   UNL d   1     -46.567  13.021  22.660  0.00  0.00     0.013 A 
ENDROOT
BRANCH   6  14
ATOM     14  S   UNL d   1     -47.217  12.087  23.342  0.00  0.00     0.285 S 
ATOM     15  O   UNL d   1     -47.540  12.801  23.079  0.00  0.00    -0.198 OA
ATOM     16  O   UNL d   1     -46.888  11.378  23.600  0.00  0.00    -0.198 OA
BRANCH  14  17
ATOM     17  N   UNL d   1     -48.003  12.268  23.513  0.00  0.00    -0.155 NA
BRANCH  17  18
ATOM     18  C   UNL d   1     -48.569  11.669  23.537  0.00  0.00     0.138 C 
BRANCH  18  19
ATOM     19  C   UNL d   1     -49.374  11.844  23.432  0.00  0.00     0.138 C 
BRANCH  19  20
ATOM     20  O   UNL d   1     -49.951  11.327  23.693  0.00  0.00    -0.325 OA
ATOM     21  C   UNL d   1     -50.747  11.551  23.696  0.00  0.00     0.182 C 
ENDBRANCH  19  20
ENDBRANCH  18  19
ENDBRANCH  17  18
ENDBRANCH  14  17
ENDBRANCH   6  14
BRANCH   3  22
ATOM     22  N   UNL d   1     -44.062  11.224  22.669  0.00  0.00    -0.096 NA
ATOM     23  O   UNL d   1     -43.757  11.155  23.440  0.00  0.00    -0.061 OA
ENDBRANCH   3  22
BRANCH   7  24
ATOM     24  S   UNL d   1     -42.203  13.278  21.020  0.00  0.00     0.285 S 
ATOM     25  O   UNL d   1     -42.508  13.086  20.276  0.00  0.00    -0.198 OA
ATOM     26  O   UNL d   1     -41.898  13.469  21.765  0.00  0.00    -0.198 OA
BRANCH  24  27
ATOM     27  N   UNL d   1     -41.425  13.542  21.094  0.00  0.00    -0.155 NA
BRANCH  27  28
ATOM     28  C   UNL d   1     -41.044  13.882  20.445  0.00  0.00     0.138 C 
BRANCH  28  29
ATOM     29  C   UNL d   1     -40.220  13.918  20.426  0.00  0.00     0.138 C 
BRANCH  29  30
ATOM     30  O   UNL d   1     -39.835  14.376  19.846  0.00  0.00    -0.325 OA
ATOM     31  C   UNL d   1     -39.070  14.634  19.974  0.00  0.00     0.182 C 
ENDBRANCH  29  30
ENDBRANCH  28  29
ENDBRANCH  27  28
ENDBRANCH  24  27
ENDBRANCH   7  24
TORSDOF 11
ENDMDL
MODEL 6
REMARK VINA RESULT:      -2.8      4.228      7.861
REMARK  11 active torsions:
REMARK  status: ('A' for Active; 'I' for Inactive)
REMARK    1  A    between atoms: C_8  and  S_1 
REMARK    2  A    between atoms: N_19  and  S_1 
REMARK    3  A    between atoms: S_2  and  C_9 
REMARK    4  A    between atoms: N_20  and  S_2 
REMARK    5  A    between atoms: N_14  and  C_5 
REMARK    6  A    between atoms: C_24  and  N_19 
REMARK    7  A    between atoms: C_25  and  N_20 
REMARK    8  A    between atoms: C_29  and  C_24 
REMARK    9  A    between atoms: C_28  and  C_25 
REMARK   10  A    between atoms: O_26  and  C_29 
REMARK   11  A    between atoms: O_27  and  C_28 
ROOT
ATOM      1  C   UNL d   1     -40.579  14.320  19.033  0.00  0.00     0.021 A 
ATOM      2  C   UNL d   1     -39.864  14.551  18.031  0.00  0.00     0.021 A 
ATOM      3  C   UNL d   1     -40.568  14.373  18.213  0.00  0.00     0.111 A 
ATOM      4  C   UNL d   1     -39.818  14.482  19.318  0.00  0.00     0.002 A 
ATOM      5  C   UNL d   1     -39.335  14.637  18.664  0.00  0.00     0.002 A 
ATOM      6  C   UNL d   1     -41.027  14.131  20.370  0.00  0.00     0.105 A 
ATOM      7  C   UNL d   1     -38.821  14.855  17.114  0.00  0.00     0.105 A 
ATOM      8  C   UNL d   1     -39.603  14.661  17.255  0.00  0.00     0.015 A 
ATOM      9  C   UNL d   1     -41.180  14.144  19.563  0.00  0.00     0.015 A 
ATOM     10  C   UNL d   1     -38.547  14.833  18.516  0.00  0.00     0.001 A 
ATOM     11  C   UNL d   1     -39.662  14.469  20.127  0.00  0.00     0.001 A 
ATOM     12  C   UNL d   1     -38.285  14.943  17.742  0.00  0.00     0.013 A 
ATOM     13  C   UNL d   1     -40.277  14.291  20.646  0.00  0.00     0.013 A 
ENDROOT
BRANCH   6  14
ATOM     14  S   UNL d   1     -41.510  13.976  21.023  0.00  0.00     0.285 S 
ATOM     15  O   UNL d   1     -41.275  13.183  21.014  0.00  0.00    -0.198 OA
ATOM     16  O   UNL d   1     -41.738  14.767  21.025  0.00  0.00    -0.198 OA
BRANCH  14  17
ATOM     17  N   UNL d   1     -41.813  13.453  21.585  0.00  0.00    -0.155 NA
BRANCH  17  18
ATOM     18  C   UNL d   1     -42.626  13.332  21.640  0.00  0.00     0.138 C 
BRANCH  18  19
ATOM     19  C   UNL d   1     -42.929  12.596  21.875  0.00  0.00     0.138 C 
BRANCH  19  20
ATOM     20  O   UNL d   1     -43.731  12.492  21.990  0.00  0.00    -0.325 OA
ATOM     21  C   UNL d   1     -44.272  12.703  21.401  0.00  0.00     0.182 C 
ENDBRANCH  19  20
ENDBRANCH  18  19
ENDBRANCH  17  18
ENDBRANCH  14  17
ENDBRANCH   6  14
BRANCH   3  22
ATOM     22  N   UNL d   1     -41.212  14.252  17.709  0.00  0.00    -0.096 NA
ATOM     23  O   UNL d   1     -41.517  14.896  17.279  0.00  0.00    -0.061 OA
ENDBRANCH   3  22
BRANCH   7  24
ATOM     24  S   UNL d   1     -38.338  15.010  16.460  0.00  0.00     0.285 S 
ATOM     25  O   UNL d   1     -38.295  15.806  16.681  0.00  0.00    -0.198 OA
ATOM     26  O   UNL d   1     -38.382  14.214  16.240  0.00  0.00    -0.198 OA
BRANCH  24  27
ATOM     27  N   UNL d   1     -37.943  14.745  15.786  0.00  0.00    -0.155 NA
BRANCH  27  28
ATOM     28  C   UNL d   1     -38.376  14.491  15.130  0.00  0.00     0.138 C 
BRANCH  28  29
ATOM     29  C   UNL d   1     -37.984  14.165  14.482  0.00  0.00     0.138 C 
BRANCH  29  30
ATOM     30  O   UNL d   1     -38.346  13.563  14.034  0.00  0.00    -0.325 OA
ATOM     31  C   UNL d   1     -37.940  13.216  13.416  0.00  0.00     0.182 C 
ENDBRANCH  29  30
ENDBRANCH  28  29
ENDBRANCH  27  28
ENDBRANCH  24  27
ENDBRANCH   7  24
TORSDOF 11
ENDMDL
MODEL 7
REMARK VINA RESULT:      -1.9      2.799      5.747
REMARK  11 active torsions:
REMARK  status: ('A' for Active; 'I' for Inactive)
REMARK    1  A    between atoms: C_8  and  S_1 
REMARK    2  A    between atoms: N_19  and  S_1 
REMARK    3  A    between atoms: S_2  and  C_9 
REMARK    4  A    between atoms: N_20  and  S_2 
REMARK    5  A    between atoms: N_14  and  C_5 
REMARK    6  A    between atoms: C_24  and  N_19 
REMARK    7  A    between atoms: C_25  and  N_20 
REMARK    8  A    between atoms: C_29  and  C_24 
REMARK    9  A    between atoms: C_28  and  C_25 
REMARK   10  A    between atoms: O_26  and  C_29 
REMARK   11  A    between atoms: O_27  and  C_28 
ROOT
ATOM      1  C   UNL d   1     -41.841  14.309  20.948  0.00  0.00     0.021 A 
ATOM      2  C   UNL d   1     -40.824  14.701  20.329  0.00  0.00     0.021 A 
ATOM      3  C   UNL d   1     -41.294  14.918  20.871  0.00  0.00     0.111 A 
ATOM      4  C   UNL d   1     -41.652  13.714  20.404  0.00  0.00     0.002 A 
ATOM      5  C   UNL d   1     -40.981  13.961  19.988  0.00  0.00     0.002 A 
ATOM      6  C   UNL d   1     -42.946  13.534  21.396  0.00  0.00     0.105 A 
ATOM      7  C   UNL d   1     -39.702  14.863  19.472  0.00  0.00     0.105 A 
ATOM      8  C   UNL d   1     -40.183  15.150  20.069  0.00  0.00     0.015 A 
ATOM      9  C   UNL d   1     -42.489  14.215  21.442  0.00  0.00     0.015 A 
ATOM     10  C   UNL d   1     -40.492  13.676  19.387  0.00  0.00     0.001 A 
ATOM     11  C   UNL d   1     -42.109  13.030  20.356  0.00  0.00     0.001 A 
ATOM     12  C   UNL d   1     -39.851  14.123  19.125  0.00  0.00     0.013 A 
ATOM     13  C   UNL d   1     -42.757  12.951  20.859  0.00  0.00     0.013 A 
ENDROOT
BRANCH   6  14
ATOM     14  S   UNL d   1     -43.617  13.288  21.812  0.00  0.00     0.285 S 
ATOM     15  O   UNL d   1     -43.954  14.037  21.721  0.00  0.00    -0.198 OA
ATOM     16  O   UNL d   1     -43.275  12.544  21.898  0.00  0.00    -0.198 OA
BRANCH  14  17
ATOM     17  N   UNL d   1     -44.363  13.441  22.128  0.00  0.00    -0.155 NA
BRANCH  17  18
ATOM     18  C   UNL d   1     -44.884  12.821  22.279  0.00  0.00     0.138 C 
BRANCH  18  19
ATOM     19  C   UNL d   1     -45.653  12.971  22.552  0.00  0.00     0.138 C 
BRANCH  19  20
ATOM     20  O   UNL d   1     -46.139  12.359  22.789  0.00  0.00    -0.325 OA
ATOM     21  C   UNL d   1     -46.961  12.422  22.718  0.00  0.00     0.182 C 
ENDBRANCH  19  20
ENDBRANCH  18  19
ENDBRANCH  17  18
ENDBRANCH  14  17
ENDBRANCH   6  14
BRANCH   3  22
ATOM     22  N   UNL d   1     -41.280  15.619  21.309  0.00  0.00    -0.096 NA
ATOM     23  O   UNL d   1     -40.672  15.737  21.864  0.00  0.00    -0.061 OA
ENDBRANCH   3  22
BRANCH   7  24
ATOM     24  S   UNL d   1     -39.031  15.110  19.056  0.00  0.00     0.285 S 
ATOM     25  O   UNL d   1     -38.584  14.522  19.428  0.00  0.00    -0.198 OA
ATOM     26  O   UNL d   1     -39.478  15.698  18.684  0.00  0.00    -0.198 OA
BRANCH  24  27
ATOM     27  N   UNL d   1     -38.675  15.617  18.511  0.00  0.00    -0.155 NA
BRANCH  27  28
ATOM     28  C   UNL d   1     -38.390  15.316  17.797  0.00  0.00     0.138 C 
BRANCH  28  29
ATOM     29  C   UNL d   1     -38.200  15.832  17.181  0.00  0.00     0.138 C 
BRANCH  29  30
ATOM     30  O   UNL d   1     -37.940  15.531  16.449  0.00  0.00    -0.325 OA
ATOM     31  C   UNL d   1     -38.133  15.922  15.758  0.00  0.00     0.182 C 
ENDBRANCH  29  30
ENDBRANCH  28  29
ENDBRANCH  27  28
ENDBRANCH  24  27
ENDBRANCH   7  24
TORSDOF 11
ENDMDL
