MODEL 1
REMARK VINA RESULT:      56.7      0.000      0.000
REMARK  6 active torsions:
REMARK  status: ('A' for Active; 'I' for Inactive)
REMARK    1  A    between atoms: C_16  and  N_1 
REMARK    2  A    between atoms: C_11  and  C_2 
REMARK    3  A    between atoms: S_15  and  C_3 
REMARK    4  A    between atoms: C_8  and  C_11 
REMARK    5  A    between atoms: C_13  and  C_17 
REMARK       I    between atoms: N_14  and  C_13 
REMARK    6  A    between atoms: C_17  and  S_15 
ROOT
ATOM      1  N   UNL d   1      13.705  13.373  -3.741  0.00  0.00    -0.269 N 
ATOM      2  C   UNL d   1      13.875  13.178  -2.951  0.00  0.00     0.172 A 
ATOM      3  C   UNL d   1      13.756  14.191  -3.807  0.00  0.00     0.201 A 
ATOM      4  N   UNL d   1      14.026  13.871  -2.544  0.00  0.00    -0.128 NA
ATOM      5  N   UNL d   1      13.952  14.500  -3.080  0.00  0.00    -0.121 NA
ENDROOT
BRANCH   3   6
ATOM      6  S   UNL d   1      13.631  14.641  -4.502  0.00  0.00    -0.043 SA
BRANCH   6   7
ATOM      7  C   UNL d   1      13.518  15.465  -4.447  0.00  0.00     0.099 C 
BRANCH   7   8
ATOM      8  C   UNL d   1      13.779  15.949  -5.056  0.00  0.00     0.271 C 
ATOM      9  N   UNL d   1      14.370  16.508  -4.918  0.00  0.00    -0.272 N 
ATOM     10  C   UNL d   1      14.635  16.998  -5.531  0.00  0.00     0.083 A 
ATOM     11  C   UNL d   1      14.702  16.583  -4.165  0.00  0.00     0.083 A 
ATOM     12  C   UNL d   1      15.226  17.556  -5.393  0.00  0.00     0.019 A 
ATOM     13  C   UNL d   1      15.553  17.625  -4.636  0.00  0.00     0.003 A 
ATOM     14  C   UNL d   1      15.293  17.141  -4.026  0.00  0.00     0.019 A 
ATOM     15  O   UNL d   1      13.449  15.880  -5.817  0.00  0.00    -0.266 OA
ENDBRANCH   7   8
ENDBRANCH   6   7
ENDBRANCH   3   6
BRANCH   1  16
ATOM     16  C   UNL d   1      13.519  12.871  -4.366  0.00  0.00     0.067 A 
ATOM     17  C   UNL d   1      13.911  12.966  -5.096  0.00  0.00     0.018 A 
ATOM     18  C   UNL d   1      13.729  12.463  -5.733  0.00  0.00     0.002 A 
ATOM     19  C   UNL d   1      13.157  11.877  -5.626  0.00  0.00     0.000 A 
ATOM     20  C   UNL d   1      12.770  11.779  -4.914  0.00  0.00     0.002 A 
ATOM     21  C   UNL d   1      12.953  12.282  -4.277  0.00  0.00     0.018 A 
ENDBRANCH   1  16
BRANCH   2  22
ATOM     22  C   UNL d   1      13.865  12.379  -2.716  0.00  0.00     0.059 C 
BRANCH  22  23
ATOM     23  C   UNL d   1      14.019  12.184  -1.922  0.00  0.00     0.094 A 
ATOM     24  C   UNL d   1      14.794  12.080  -1.658  0.00  0.00     0.082 A 
ATOM     25  C   UNL d   1      14.937  11.887  -0.872  0.00  0.00     0.285 A 
ATOM     26  O   UNL d   1      15.712  11.783  -0.608  0.00  0.00    -0.265 OA
ATOM     27  N   UNL d   1      14.306  11.799  -0.349  0.00  0.00    -0.152 NA
ATOM     28  C   UNL d   1      13.541  11.901  -0.602  0.00  0.00     0.371 A 
ATOM     29  N   UNL d   1      13.388  12.096  -1.399  0.00  0.00    -0.191 NA
ATOM     30  O   UNL d   1      12.914  11.806  -0.051  0.00  0.00    -0.242 OA
ENDBRANCH  22  23
ENDBRANCH   2  22
TORSDOF 6
ENDMDL
