MODEL 1
REMARK VINA RESULT:      -3.2      0.000      0.000
REMARK  5 active torsions:
REMARK  status: ('A' for Active; 'I' for Inactive)
REMARK    1  A    between atoms: C_2  and  S_1 
REMARK    2  A    between atoms: N_4  and  S_1 
REMARK    3  A    between atoms: C_11  and  N_4 
REMARK    4  A    between atoms: O_14  and  C_5 
REMARK    5  A    between atoms: O_15  and  C_7 
ROOT
ATOM      1  C   UNL d   1      58.938  -0.649  29.503  0.00  0.00     0.129 A 
ATOM      2  C   UNL d   1      58.775  -1.457  29.553  0.00  0.00     0.040 A 
ATOM      3  C   UNL d   1      59.612  -0.396  29.109  0.00  0.00     0.107 A 
ATOM      4  C   UNL d   1      60.126  -0.935  28.764  0.00  0.00     0.034 A 
ATOM      5  C   UNL d   1      59.287  -2.005  29.208  0.00  0.00     0.101 A 
ATOM      6  C   UNL d   1      59.962  -1.743  28.814  0.00  0.00     0.059 A 
ATOM      7 BR   UNL d   1      60.473  -2.299  28.470  0.00  0.00    -0.047 Br
ENDROOT
BRANCH   1   8
ATOM      8  S   UNL d   1      58.424  -0.110  29.848  0.00  0.00     0.287 S 
ATOM      9  O   UNL d   1      57.943  -0.129  29.188  0.00  0.00    -0.198 OA
ATOM     10  O   UNL d   1      58.907  -0.088  30.517  0.00  0.00    -0.198 OA
BRANCH   8  11
ATOM     11  N   UNL d   1      57.912   0.432  30.202  0.00  0.00    -0.157 NA
BRANCH  11  12
ATOM     12  C   UNL d   1      57.637   0.297  30.968  0.00  0.00     0.113 A 
ATOM     13  C   UNL d   1      57.982   0.682  31.602  0.00  0.00     0.119 A 
ATOM     14  N   UNL d   1      57.706   0.546  32.367  0.00  0.00    -0.241 NA
ATOM     15  C   UNL d   1      57.077   0.018  32.498  0.00  0.00     0.099 A 
ATOM     16  C   UNL d   1      56.733  -0.368  31.852  0.00  0.00     0.022 A 
ATOM     17  C   UNL d   1      57.009  -0.232  31.086  0.00  0.00     0.023 A 
ENDBRANCH  11  12
ENDBRANCH   8  11
ENDBRANCH   1   8
BRANCH   3  18
ATOM     18  O   UNL d   1      59.776   0.413  29.059  0.00  0.00    -0.327 OA
ATOM     19  C   UNL d   1      60.388   0.682  28.577  0.00  0.00     0.181 C 
ENDBRANCH   3  18
BRANCH   5  20
ATOM     20  O   UNL d   1      59.123  -2.814  29.258  0.00  0.00    -0.328 OA
ATOM     21  C   UNL d   1      58.483  -3.132  28.846  0.00  0.00     0.181 C 
ENDBRANCH   5  20
TORSDOF 5
ENDMDL
MODEL 2
REMARK VINA RESULT:      -2.8      1.336      2.160
REMARK  5 active torsions:
REMARK  status: ('A' for Active; 'I' for Inactive)
REMARK    1  A    between atoms: C_2  and  S_1 
REMARK    2  A    between atoms: N_4  and  S_1 
REMARK    3  A    between atoms: C_11  and  N_4 
REMARK    4  A    between atoms: O_14  and  C_5 
REMARK    5  A    between atoms: O_15  and  C_7 
ROOT
ATOM      1  C   UNL d   1      58.602  -0.085  30.420  0.00  0.00     0.129 A 
ATOM      2  C   UNL d   1      59.180   0.254  30.903  0.00  0.00     0.040 A 
ATOM      3  C   UNL d   1      58.821  -0.432  29.709  0.00  0.00     0.107 A 
ATOM      4  C   UNL d   1      59.607  -0.447  29.471  0.00  0.00     0.034 A 
ATOM      5  C   UNL d   1      59.972   0.243  30.671  0.00  0.00     0.101 A 
ATOM      6  C   UNL d   1      60.185  -0.108  29.955  0.00  0.00     0.059 A 
ATOM      7 BR   UNL d   1      60.983  -0.115  29.727  0.00  0.00    -0.047 Br
ENDROOT
BRANCH   1   8
ATOM      8  S   UNL d   1      57.817  -0.071  30.657  0.00  0.00     0.287 S 
ATOM      9  O   UNL d   1      57.890  -0.816  30.984  0.00  0.00    -0.198 OA
ATOM     10  O   UNL d   1      57.739   0.682  30.328  0.00  0.00    -0.198 OA
BRANCH   8  11
ATOM     11  N   UNL d   1      57.026  -0.049  30.892  0.00  0.00    -0.157 NA
BRANCH  11  12
ATOM     12  C   UNL d   1      56.836  -0.079  31.695  0.00  0.00     0.113 A 
ATOM     13  C   UNL d   1      57.097   0.508  32.201  0.00  0.00     0.119 A 
ATOM     14  N   UNL d   1      56.907   0.476  33.003  0.00  0.00    -0.241 NA
ATOM     15  C   UNL d   1      56.449  -0.152  33.300  0.00  0.00     0.099 A 
ATOM     16  C   UNL d   1      56.189  -0.741  32.782  0.00  0.00     0.022 A 
ATOM     17  C   UNL d   1      56.379  -0.710  31.980  0.00  0.00     0.023 A 
ENDBRANCH  11  12
ENDBRANCH   8  11
ENDBRANCH   1   8
BRANCH   3  18
ATOM     18  O   UNL d   1      58.243  -0.771  29.225  0.00  0.00    -0.327 OA
ATOM     19  C   UNL d   1      58.461  -1.164  28.533  0.00  0.00     0.181 C 
ENDBRANCH   3  18
BRANCH   5  20
ATOM     20  O   UNL d   1      60.551   0.582  31.155  0.00  0.00    -0.328 OA
ATOM     21  C   UNL d   1      60.410   0.679  31.962  0.00  0.00     0.181 C 
ENDBRANCH   5  20
TORSDOF 5
ENDMDL
MODEL 3
REMARK VINA RESULT:      -2.1      1.957      3.562
REMARK  5 active torsions:
REMARK  status: ('A' for Active; 'I' for Inactive)
REMARK    1  A    between atoms: C_2  and  S_1 
REMARK    2  A    between atoms: N_4  and  S_1 
REMARK    3  A    between atoms: C_11  and  N_4 
REMARK    4  A    between atoms: O_14  and  C_5 
REMARK    5  A    between atoms: O_15  and  C_7 
ROOT
ATOM      1  C   UNL d   1      58.543  -0.775  29.646  0.00  0.00     0.129 A 
ATOM      2  C   UNL d   1      57.882  -1.031  30.070  0.00  0.00     0.040 A 
ATOM      3  C   UNL d   1      58.861  -0.034  29.801  0.00  0.00     0.107 A 
ATOM      4  C   UNL d   1      58.531   0.455  30.372  0.00  0.00     0.034 A 
ATOM      5  C   UNL d   1      57.544  -0.545  30.645  0.00  0.00     0.101 A 
ATOM      6  C   UNL d   1      57.870   0.198  30.796  0.00  0.00     0.059 A 
ATOM      7 BR   UNL d   1      57.526   0.682  31.375  0.00  0.00    -0.047 Br
ENDROOT
BRANCH   1   8
ATOM      8  S   UNL d   1      58.873  -1.264  29.075  0.00  0.00     0.287 S 
ATOM      9  O   UNL d   1      59.522  -1.401  29.552  0.00  0.00    -0.198 OA
ATOM     10  O   UNL d   1      58.219  -1.128  28.591  0.00  0.00    -0.198 OA
BRANCH   8  11
ATOM     11  N   UNL d   1      59.199  -1.754  28.497  0.00  0.00    -0.157 NA
BRANCH  11  12
ATOM     12  C   UNL d   1      59.253  -2.567  28.631  0.00  0.00     0.113 A 
ATOM     13  C   UNL d   1      58.620  -3.055  28.458  0.00  0.00     0.119 A 
ATOM     14  N   UNL d   1      58.676  -3.867  28.592  0.00  0.00    -0.241 NA
ATOM     15  C   UNL d   1      59.374  -4.192  28.905  0.00  0.00     0.099 A 
ATOM     16  C   UNL d   1      60.010  -3.692  29.078  0.00  0.00     0.022 A 
ATOM     17  C   UNL d   1      59.955  -2.880  28.943  0.00  0.00     0.023 A 
ENDBRANCH  11  12
ENDBRANCH   8  11
ENDBRANCH   1   8
BRANCH   3  18
ATOM     18  O   UNL d   1      59.523   0.223  29.377  0.00  0.00    -0.327 OA
ATOM     19  C   UNL d   1      60.108   0.666  29.753  0.00  0.00     0.181 C 
ENDBRANCH   3  18
BRANCH   5  20
ATOM     20  O   UNL d   1      56.883  -0.802  31.069  0.00  0.00    -0.328 OA
ATOM     21  C   UNL d   1      56.965  -1.056  31.849  0.00  0.00     0.181 C 
ENDBRANCH   5  20
TORSDOF 5
ENDMDL
MODEL 4
REMARK VINA RESULT:      -1.9      1.215      1.616
REMARK  5 active torsions:
REMARK  status: ('A' for Active; 'I' for Inactive)
REMARK    1  A    between atoms: C_2  and  S_1 
REMARK    2  A    between atoms: N_4  and  S_1 
REMARK    3  A    between atoms: C_11  and  N_4 
REMARK    4  A    between atoms: O_14  and  C_5 
REMARK    5  A    between atoms: O_15  and  C_7 
ROOT
ATOM      1  C   UNL d   1      58.455  -0.116  30.330  0.00  0.00     0.129 A 
ATOM      2  C   UNL d   1      58.217  -0.650  29.746  0.00  0.00     0.040 A 
ATOM      3  C   UNL d   1      59.233   0.144  30.348  0.00  0.00     0.107 A 
ATOM      4  C   UNL d   1      59.778  -0.119  29.794  0.00  0.00     0.034 A 
ATOM      5  C   UNL d   1      58.760  -0.918  29.185  0.00  0.00     0.101 A 
ATOM      6  C   UNL d   1      59.541  -0.653  29.210  0.00  0.00     0.059 A 
ATOM      7 BR   UNL d   1      60.081  -0.927  28.644  0.00  0.00    -0.047 Br
ENDROOT
BRANCH   1   8
ATOM      8  S   UNL d   1      57.909   0.147  30.884  0.00  0.00     0.287 S 
ATOM      9  O   UNL d   1      58.322  -0.224  31.484  0.00  0.00    -0.198 OA
ATOM     10  O   UNL d   1      57.489   0.523  30.282  0.00  0.00    -0.198 OA
BRANCH   8  11
ATOM     11  N   UNL d   1      57.357   0.415  31.436  0.00  0.00    -0.157 NA
BRANCH  11  12
ATOM     12  C   UNL d   1      56.929  -0.129  31.885  0.00  0.00     0.113 A 
ATOM     13  C   UNL d   1      56.616  -0.797  31.532  0.00  0.00     0.119 A 
ATOM     14  N   UNL d   1      56.189  -1.341  31.982  0.00  0.00    -0.241 NA
ATOM     15  C   UNL d   1      56.074  -1.212  32.796  0.00  0.00     0.099 A 
ATOM     16  C   UNL d   1      56.394  -0.534  33.146  0.00  0.00     0.022 A 
ATOM     17  C   UNL d   1      56.821   0.010  32.696  0.00  0.00     0.023 A 
ENDBRANCH  11  12
ENDBRANCH   8  11
ENDBRANCH   1   8
BRANCH   3  18
ATOM     18  O   UNL d   1      59.471   0.678  30.933  0.00  0.00    -0.327 OA
ATOM     19  C   UNL d   1      60.251   0.676  31.202  0.00  0.00     0.181 C 
ENDBRANCH   3  18
BRANCH   5  20
ATOM     20  O   UNL d   1      58.522  -1.452  28.600  0.00  0.00    -0.328 OA
ATOM     21  C   UNL d   1      58.522  -2.263  28.756  0.00  0.00     0.181 C 
ENDBRANCH   5  20
TORSDOF 5
ENDMDL
MODEL 5
REMARK VINA RESULT:      -0.8      1.939      3.736
REMARK  5 active torsions:
REMARK  status: ('A' for Active; 'I' for Inactive)
REMARK    1  A    between atoms: C_2  and  S_1 
REMARK    2  A    between atoms: N_4  and  S_1 
REMARK    3  A    between atoms: C_11  and  N_4 
REMARK    4  A    between atoms: O_14  and  C_5 
REMARK    5  A    between atoms: O_15  and  C_7 
ROOT
ATOM      1  C   UNL d   1      57.735  -0.091  31.085  0.00  0.00     0.129 A 
ATOM      2  C   UNL d   1      57.008  -0.388  31.342  0.00  0.00     0.040 A 
ATOM      3  C   UNL d   1      58.183   0.376  31.589  0.00  0.00     0.107 A 
ATOM      4  C   UNL d   1      57.919   0.553  32.346  0.00  0.00     0.034 A 
ATOM      5  C   UNL d   1      56.736  -0.215  32.102  0.00  0.00     0.101 A 
ATOM      6  C   UNL d   1      57.192   0.256  32.603  0.00  0.00     0.059 A 
ATOM      7 BR   UNL d   1      56.913   0.426  33.366  0.00  0.00    -0.047 Br
ENDROOT
BRANCH   1   8
ATOM      8  S   UNL d   1      57.999  -0.268  30.328  0.00  0.00     0.287 S 
ATOM      9  O   UNL d   1      58.453  -0.882  30.617  0.00  0.00    -0.198 OA
ATOM     10  O   UNL d   1      57.542   0.352  30.031  0.00  0.00    -0.198 OA
BRANCH   8  11
ATOM     11  N   UNL d   1      58.261  -0.439  29.564  0.00  0.00    -0.157 NA
BRANCH  11  12
ATOM     12  C   UNL d   1      58.589  -1.178  29.399  0.00  0.00     0.113 A 
ATOM     13  C   UNL d   1      58.146  -1.857  29.506  0.00  0.00     0.119 A 
ATOM     14  N   UNL d   1      58.474  -2.596  29.342  0.00  0.00    -0.241 NA
ATOM     15  C   UNL d   1      59.257  -2.653  29.066  0.00  0.00     0.099 A 
ATOM     16  C   UNL d   1      59.699  -1.962  28.960  0.00  0.00     0.022 A 
ATOM     17  C   UNL d   1      59.370  -1.224  29.125  0.00  0.00     0.023 A 
ENDBRANCH  11  12
ENDBRANCH   8  11
ENDBRANCH   1   8
BRANCH   3  18
ATOM     18  O   UNL d   1      58.910   0.674  31.331  0.00  0.00    -0.327 OA
ATOM     19  C   UNL d   1      59.558   0.682  31.842  0.00  0.00     0.181 C 
ENDBRANCH   3  18
BRANCH   5  20
ATOM     20  O   UNL d   1      56.009  -0.513  32.360  0.00  0.00    -0.328 OA
ATOM     21  C   UNL d   1      55.983  -1.189  32.832  0.00  0.00     0.181 C 
ENDBRANCH   5  20
TORSDOF 5
ENDMDL
