MODEL 1
REMARK VINA RESULT:       7.6      0.000      0.000
REMARK  8 active torsions:
REMARK  status: ('A' for Active; 'I' for Inactive)
REMARK    1  A    between atoms: N_5  and  S_1 
REMARK    2  A    between atoms: C_8  and  S_1 
REMARK    3  A    between atoms: C_2  and  N_10 
REMARK    4  A    between atoms: C_9  and  N_5 
REMARK    5  A    between atoms: C_13  and  C_9 
REMARK    6  A    between atoms: N_10  and  O_14 
REMARK    7  A    between atoms: C_17  and  C_13 
REMARK    8  A    between atoms: O_14  and  C_17 
ROOT
ATOM      1  C   UNL d   1     -41.304-122.104 -52.274  0.00  0.00     0.193 C 
ENDROOT
BRANCH   1   2
ATOM      2  O   UNL d   1     -41.414-122.252 -53.079  0.00  0.00    -0.206 OA
BRANCH   2   3
ATOM      3  N   UNL d   1     -41.781-121.680 -53.559  0.00  0.00    -0.126 NA
BRANCH   3   4
ATOM      4  C   UNL d   1     -41.983-121.864 -54.338  0.00  0.00     0.108 A 
ATOM      5  C   UNL d   1     -42.372-122.551 -54.596  0.00  0.00     0.020 A 
ATOM      6  C   UNL d   1     -42.457-122.497 -55.413  0.00  0.00     0.002 A 
ATOM      7  C   UNL d   1     -42.649-123.202 -54.187  0.00  0.00     0.002 A 
ATOM      8  C   UNL d   1     -42.831-123.113 -55.827  0.00  0.00     0.000 A 
ATOM      9  C   UNL d   1     -42.130-121.791 -55.668  0.00  0.00     0.002 A 
ATOM     10  C   UNL d   1     -43.110-123.768 -55.416  0.00  0.00     0.000 A 
ATOM     11  C   UNL d   1     -43.021-123.817 -54.592  0.00  0.00     0.000 A 
ATOM     12  C   UNL d   1     -41.835-121.394 -55.006  0.00  0.00     0.020 A 
ATOM     13  C   UNL d   1     -42.059-121.451 -56.412  0.00  0.00     0.000 A 
ATOM     14  C   UNL d   1     -41.470-120.661 -55.086  0.00  0.00     0.002 A 
ATOM     15  C   UNL d   1     -41.399-120.320 -55.840  0.00  0.00     0.000 A 
ATOM     16  C   UNL d   1     -41.695-120.719 -56.500  0.00  0.00     0.000 A 
ENDBRANCH   3   4
ENDBRANCH   2   3
ENDBRANCH   1   2
BRANCH   1  17
ATOM     17  C   UNL d   1     -41.389-122.713 -51.729  0.00  0.00     0.240 C 
ATOM     18  O   UNL d   1     -41.569-123.477 -51.987  0.00  0.00    -0.283 OA
BRANCH  17  19
ATOM     19  C   UNL d   1     -41.399-123.046 -50.969  0.00  0.00     0.136 C 
BRANCH  19  20
ATOM     20  N   UNL d   1     -41.707-122.602 -50.340  0.00  0.00    -0.225 N 
ATOM     21  C   UNL d   1     -41.937-121.815 -50.283  0.00  0.00     0.111 C 
BRANCH  20  22
ATOM     22  S   UNL d   1     -41.830-122.958 -49.604  0.00  0.00     0.272 S 
ATOM     23  O   UNL d   1     -41.123-123.318 -49.854  0.00  0.00    -0.200 OA
ATOM     24  O   UNL d   1     -42.501-122.726 -49.185  0.00  0.00    -0.200 OA
BRANCH  22  25
ATOM     25  C   UNL d   1     -42.162-123.158 -48.876  0.00  0.00     0.104 A 
ATOM     26  C   UNL d   1     -42.847-123.618 -48.849  0.00  0.00     0.013 A 
ATOM     27  C   UNL d   1     -43.178-123.818 -48.125  0.00  0.00     0.007 A 
ATOM     28  C   UNL d   1     -42.823-123.558 -47.419  0.00  0.00     0.035 A 
ATOM     29  C   UNL d   1     -42.134-123.098 -47.500  0.00  0.00     0.007 A 
ATOM     30 BR   UNL d   1     -43.136-123.746 -46.682  0.00  0.00    -0.049 Br
ATOM     31  C   UNL d   1     -41.774-122.878 -48.208  0.00  0.00     0.013 A 
ENDBRANCH  22  25
ENDBRANCH  20  22
ENDBRANCH  19  20
ENDBRANCH  17  19
ENDBRANCH   1  17
TORSDOF 8
ENDMDL
MODEL 2
REMARK VINA RESULT:       8.0      0.680      1.884
REMARK  8 active torsions:
REMARK  status: ('A' for Active; 'I' for Inactive)
REMARK    1  A    between atoms: N_5  and  S_1 
REMARK    2  A    between atoms: C_8  and  S_1 
REMARK    3  A    between atoms: C_2  and  N_10 
REMARK    4  A    between atoms: C_9  and  N_5 
REMARK    5  A    between atoms: C_13  and  C_9 
REMARK    6  A    between atoms: N_10  and  O_14 
REMARK    7  A    between atoms: C_17  and  C_13 
REMARK    8  A    between atoms: O_14  and  C_17 
ROOT
ATOM      1  C   UNL d   1     -42.199-121.997 -52.285  0.00  0.00     0.193 C 
ENDROOT
BRANCH   1   2
ATOM      2  O   UNL d   1     -41.913-121.846 -53.046  0.00  0.00    -0.206 OA
BRANCH   2   3
ATOM      3  N   UNL d   1     -42.417-121.521 -53.621  0.00  0.00    -0.126 NA
BRANCH   3   4
ATOM      4  C   UNL d   1     -42.338-121.743 -54.413  0.00  0.00     0.108 A 
ATOM      5  C   UNL d   1     -42.024-121.277 -55.025  0.00  0.00     0.020 A 
ATOM      6  C   UNL d   1     -42.054-121.722 -55.717  0.00  0.00     0.002 A 
ATOM      7  C   UNL d   1     -41.723-120.517 -55.026  0.00  0.00     0.002 A 
ATOM      8  C   UNL d   1     -41.773-121.392 -56.426  0.00  0.00     0.000 A 
ATOM      9  C   UNL d   1     -42.379-122.453 -55.548  0.00  0.00     0.002 A 
ATOM     10  C   UNL d   1     -41.470-120.628 -56.429  0.00  0.00     0.000 A 
ATOM     11  C   UNL d   1     -41.443-120.184 -55.727  0.00  0.00     0.000 A 
ATOM     12  C   UNL d   1     -42.557-122.473 -54.741  0.00  0.00     0.020 A 
ATOM     13  C   UNL d   1     -42.540-123.108 -56.016  0.00  0.00     0.000 A 
ATOM     14  C   UNL d   1     -42.894-123.143 -54.403  0.00  0.00     0.002 A 
ATOM     15  C   UNL d   1     -43.055-123.804 -54.879  0.00  0.00     0.000 A 
ATOM     16  C   UNL d   1     -42.876-123.781 -55.686  0.00  0.00     0.000 A 
ENDBRANCH   3   4
ENDBRANCH   2   3
ENDBRANCH   1   2
BRANCH   1  17
ATOM     17  C   UNL d   1     -41.679-122.024 -51.649  0.00  0.00     0.240 C 
ATOM     18  O   UNL d   1     -41.123-121.423 -51.544  0.00  0.00    -0.283 OA
BRANCH  17  19
ATOM     19  C   UNL d   1     -41.350-122.352 -50.962  0.00  0.00     0.136 C 
BRANCH  19  20
ATOM     20  N   UNL d   1     -41.616-123.092 -50.701  0.00  0.00    -0.225 N 
ATOM     21  C   UNL d   1     -41.688-123.816 -51.083  0.00  0.00     0.111 C 
BRANCH  20  22
ATOM     22  S   UNL d   1     -41.870-123.189 -49.920  0.00  0.00     0.272 S 
ATOM     23  O   UNL d   1     -42.576-122.979 -50.308  0.00  0.00    -0.200 OA
ATOM     24  O   UNL d   1     -41.299-123.403 -49.367  0.00  0.00    -0.200 OA
BRANCH  22  25
ATOM     25  C   UNL d   1     -41.871-123.340 -49.110  0.00  0.00     0.104 A 
ATOM     26  C   UNL d   1     -42.561-123.607 -48.742  0.00  0.00     0.013 A 
ATOM     27  C   UNL d   1     -42.564-123.757 -47.936  0.00  0.00     0.007 A 
ATOM     28  C   UNL d   1     -41.872-123.642 -47.489  0.00  0.00     0.035 A 
ATOM     29  C   UNL d   1     -41.203-123.373 -47.906  0.00  0.00     0.007 A 
ATOM     30 BR   UNL d   1     -41.850-123.786 -46.679  0.00  0.00    -0.049 Br
ATOM     31  C   UNL d   1     -41.164-123.211 -48.713  0.00  0.00     0.013 A 
ENDBRANCH  22  25
ENDBRANCH  20  22
ENDBRANCH  19  20
ENDBRANCH  17  19
ENDBRANCH   1  17
TORSDOF 8
ENDMDL
MODEL 3
REMARK VINA RESULT:       9.7      0.800      1.673
REMARK  8 active torsions:
REMARK  status: ('A' for Active; 'I' for Inactive)
REMARK    1  A    between atoms: N_5  and  S_1 
REMARK    2  A    between atoms: C_8  and  S_1 
REMARK    3  A    between atoms: C_2  and  N_10 
REMARK    4  A    between atoms: C_9  and  N_5 
REMARK    5  A    between atoms: C_13  and  C_9 
REMARK    6  A    between atoms: N_10  and  O_14 
REMARK    7  A    between atoms: C_17  and  C_13 
REMARK    8  A    between atoms: O_14  and  C_17 
ROOT
ATOM      1  C   UNL d   1     -41.800-122.603 -52.053  0.00  0.00     0.193 C 
ENDROOT
BRANCH   1   2
ATOM      2  O   UNL d   1     -41.653-122.853 -52.826  0.00  0.00    -0.206 OA
BRANCH   2   3
ATOM      3  N   UNL d   1     -42.273-122.873 -53.380  0.00  0.00    -0.126 NA
BRANCH   3   4
ATOM      4  C   UNL d   1     -42.195-122.477 -54.101  0.00  0.00     0.108 A 
ATOM      5  C   UNL d   1     -42.229-121.654 -54.215  0.00  0.00     0.020 A 
ATOM      6  C   UNL d   1     -42.125-121.511 -55.019  0.00  0.00     0.002 A 
ATOM      7  C   UNL d   1     -42.341-121.039 -53.688  0.00  0.00     0.002 A 
ATOM      8  C   UNL d   1     -42.133-120.728 -55.298  0.00  0.00     0.000 A 
ATOM      9  C   UNL d   1     -42.027-122.225 -55.406  0.00  0.00     0.002 A 
ATOM     10  C   UNL d   1     -42.246-120.108 -54.770  0.00  0.00     0.000 A 
ATOM     11  C   UNL d   1     -42.351-120.260 -53.960  0.00  0.00     0.000 A 
ATOM     12  C   UNL d   1     -42.069-122.828 -54.842  0.00  0.00     0.020 A 
ATOM     13  C   UNL d   1     -41.904-122.414 -56.195  0.00  0.00     0.000 A 
ATOM     14  C   UNL d   1     -41.990-123.616 -55.065  0.00  0.00     0.002 A 
ATOM     15  C   UNL d   1     -41.866-123.804 -55.864  0.00  0.00     0.000 A 
ATOM     16  C   UNL d   1     -41.823-123.199 -56.425  0.00  0.00     0.000 A 
ENDBRANCH   3   4
ENDBRANCH   2   3
ENDBRANCH   1   2
BRANCH   1  17
ATOM     17  C   UNL d   1     -41.513-123.040 -51.418  0.00  0.00     0.240 C 
ATOM     18  O   UNL d   1     -41.239-123.810 -51.537  0.00  0.00    -0.283 OA
BRANCH  17  19
ATOM     19  C   UNL d   1     -41.315-123.169 -50.623  0.00  0.00     0.136 C 
BRANCH  19  20
ATOM     20  N   UNL d   1     -41.376-122.540 -50.086  0.00  0.00    -0.225 N 
ATOM     21  C   UNL d   1     -41.157-121.750 -50.139  0.00  0.00     0.111 C 
BRANCH  20  22
ATOM     22  S   UNL d   1     -41.710-122.664 -49.340  0.00  0.00     0.272 S 
ATOM     23  O   UNL d   1     -41.133-122.086 -49.178  0.00  0.00    -0.200 OA
ATOM     24  O   UNL d   1     -42.318-123.217 -49.292  0.00  0.00    -0.200 OA
BRANCH  22  25
ATOM     25  C   UNL d   1     -42.187-122.955 -48.734  0.00  0.00     0.104 A 
ATOM     26  C   UNL d   1     -41.860-123.444 -48.154  0.00  0.00     0.013 A 
ATOM     27  C   UNL d   1     -42.334-123.735 -47.550  0.00  0.00     0.007 A 
ATOM     28  C   UNL d   1     -43.141-123.537 -47.522  0.00  0.00     0.035 A 
ATOM     29  C   UNL d   1     -43.421-123.041 -48.130  0.00  0.00     0.007 A 
ATOM     30 BR   UNL d   1     -43.636-123.816 -46.926  0.00  0.00    -0.049 Br
ATOM     31  C   UNL d   1     -42.976-122.731 -48.750  0.00  0.00     0.013 A 
ENDBRANCH  22  25
ENDBRANCH  20  22
ENDBRANCH  19  20
ENDBRANCH  17  19
ENDBRANCH   1  17
TORSDOF 8
ENDMDL
