MODEL 1
REMARK VINA RESULT:      -8.4      0.000      0.000
REMARK  5 active torsions:
REMARK  status: ('A' for Active; 'I' for Inactive)
REMARK    1  A    between atoms: C_3  and  C_1 
REMARK    2  A    between atoms: N_2  and  C_11 
REMARK    3  A    between atoms: N_6  and  C_3 
REMARK    4  A    between atoms: C_14  and  C_5 
REMARK    5  A    between atoms: C_10  and  N_7 
ROOT
ATOM      1  C   UNL d   1      52.586  34.126  53.435  0.00  0.00     0.143 C 
ATOM      2  S   UNL d   1      52.933  34.763  53.795  0.00  0.00    -0.057 SA
ENDROOT
BRANCH   1   3
ATOM      3  C   UNL d   1      52.924  33.396  53.457  0.00  0.00     0.126 A 
ATOM      4  O   UNL d   1      52.597  32.657  53.644  0.00  0.00    -0.305 OA
ATOM      5  C   UNL d   1      53.205  32.096  53.575  0.00  0.00     0.100 A 
ATOM      6  C   UNL d   1      53.866  32.471  53.357  0.00  0.00     0.027 A 
ATOM      7  C   UNL d   1      53.713  33.283  53.278  0.00  0.00     0.029 A 
BRANCH   5   8
ATOM      8  C   UNL d   1      53.213  31.295  53.688  0.00  0.00     0.023 A 
ATOM      9  C   UNL d   1      52.933  30.777  53.099  0.00  0.00     0.004 A 
ATOM     10  C   UNL d   1      52.948  29.960  53.229  0.00  0.00     0.024 A 
ATOM     11  C   UNL d   1      53.237  29.644  53.936  0.00  0.00     0.127 A 
ATOM     12  C   UNL d   1      53.518  30.180  54.521  0.00  0.00     0.024 A 
ATOM     13  C   UNL d   1      53.503  30.979  54.396  0.00  0.00     0.004 A 
BRANCH  11  14
ATOM     14  N   UNL d   1      53.246  28.843  54.049  0.00  0.00    -0.114 N 
ATOM     15  O   UNL d   1      53.613  28.459  54.692  0.00  0.00    -0.532 OA
ATOM     16  O   UNL d   1      52.896  28.299  53.547  0.00  0.00    -0.532 OA
ENDBRANCH  11  14
ENDBRANCH   5   8
ENDBRANCH   1   3
BRANCH   1  17
ATOM     17  N   UNL d   1      51.847  34.222  53.022  0.00  0.00    -0.291 N 
ATOM     18  C   UNL d   1      51.849  34.411  52.212  0.00  0.00     0.100 A 
ATOM     19  C   UNL d   1      51.140  34.505  51.805  0.00  0.00     0.100 A 
ATOM     20  N   UNL d   1      50.423  34.410  52.210  0.00  0.00    -0.301 N 
ATOM     21  C   UNL d   1      50.426  34.226  52.998  0.00  0.00     0.100 A 
ATOM     22  C   UNL d   1      51.138  34.131  53.407  0.00  0.00     0.100 A 
BRANCH  20  23
ATOM     23  C   UNL d   1      49.715  34.504  51.802  0.00  0.00     0.064 A 
ATOM     24  C   UNL d   1      49.119  34.937  52.184  0.00  0.00     0.016 A 
ATOM     25  C   UNL d   1      49.215  35.266  52.941  0.00  0.00     0.002 C 
ATOM     26  C   UNL d   1      48.404  35.044  51.794  0.00  0.00     0.001 A 
ATOM     27  C   UNL d   1      48.282  34.722  51.032  0.00  0.00     0.000 A 
ATOM     28  C   UNL d   1      48.878  34.302  50.675  0.00  0.00     0.002 A 
ATOM     29  C   UNL d   1      49.592  34.193  51.060  0.00  0.00     0.018 A 
ENDBRANCH  20  23
ENDBRANCH   1  17
TORSDOF 5
ENDMDL
MODEL 2
REMARK VINA RESULT:      -8.3      1.765      5.454
REMARK  5 active torsions:
REMARK  status: ('A' for Active; 'I' for Inactive)
REMARK    1  A    between atoms: C_3  and  C_1 
REMARK    2  A    between atoms: N_2  and  C_11 
REMARK    3  A    between atoms: N_6  and  C_3 
REMARK    4  A    between atoms: C_14  and  C_5 
REMARK    5  A    between atoms: C_10  and  N_7 
ROOT
ATOM      1  C   UNL d   1      53.665  33.434  53.736  0.00  0.00     0.143 C 
ATOM      2  S   UNL d   1      54.366  33.803  53.904  0.00  0.00    -0.057 SA
ENDROOT
BRANCH   1   3
ATOM      3  C   UNL d   1      53.021  33.848  53.487  0.00  0.00     0.126 A 
ATOM      4  O   UNL d   1      52.341  33.595  53.087  0.00  0.00    -0.305 OA
ATOM      5  C   UNL d   1      51.861  34.263  52.973  0.00  0.00     0.100 A 
ATOM      6  C   UNL d   1      52.229  34.889  53.286  0.00  0.00     0.027 A 
ATOM      7  C   UNL d   1      52.954  34.653  53.612  0.00  0.00     0.029 A 
BRANCH   5   8
ATOM      8  C   UNL d   1      51.139  34.353  52.620  0.00  0.00     0.023 A 
ATOM      9  C   UNL d   1      50.462  34.534  53.071  0.00  0.00     0.004 A 
ATOM     10  C   UNL d   1      49.730  34.624  52.696  0.00  0.00     0.024 A 
ATOM     11  C   UNL d   1      49.655  34.538  51.877  0.00  0.00     0.127 A 
ATOM     12  C   UNL d   1      50.348  34.355  51.435  0.00  0.00     0.024 A 
ATOM     13  C   UNL d   1      51.064  34.267  51.800  0.00  0.00     0.004 A 
BRANCH  11  14
ATOM     14  N   UNL d   1      48.933  34.628  51.524  0.00  0.00    -0.114 N 
ATOM     15  O   UNL d   1      48.661  34.177  50.878  0.00  0.00    -0.532 OA
ATOM     16  O   UNL d   1      48.369  35.177  51.754  0.00  0.00    -0.532 OA
ENDBRANCH  11  14
ENDBRANCH   5   8
ENDBRANCH   1   3
BRANCH   1  17
ATOM     17  N   UNL d   1      53.599  32.589  53.822  0.00  0.00    -0.291 N 
ATOM     18  C   UNL d   1      53.361  32.266  54.551  0.00  0.00     0.100 A 
ATOM     19  C   UNL d   1      53.293  31.451  54.644  0.00  0.00     0.100 A 
ATOM     20  N   UNL d   1      53.466  30.955  54.002  0.00  0.00    -0.301 N 
ATOM     21  C   UNL d   1      53.697  31.272  53.295  0.00  0.00     0.100 A 
ATOM     22  C   UNL d   1      53.764  32.091  53.203  0.00  0.00     0.100 A 
BRANCH  20  23
ATOM     23  C   UNL d   1      53.398  30.139  54.096  0.00  0.00     0.064 A 
ATOM     24  C   UNL d   1      52.946  29.735  53.530  0.00  0.00     0.016 A 
ATOM     25  C   UNL d   1      52.573  30.117  52.894  0.00  0.00     0.002 C 
ATOM     26  C   UNL d   1      52.866  28.921  53.605  0.00  0.00     0.001 A 
ATOM     27  C   UNL d   1      53.231  28.513  54.237  0.00  0.00     0.000 A 
ATOM     28  C   UNL d   1      53.670  28.927  54.780  0.00  0.00     0.002 A 
ATOM     29  C   UNL d   1      53.753  29.738  54.710  0.00  0.00     0.018 A 
ENDBRANCH  20  23
ENDBRANCH   1  17
TORSDOF 5
ENDMDL
MODEL 3
REMARK VINA RESULT:      -7.9      2.271      5.847
REMARK  5 active torsions:
REMARK  status: ('A' for Active; 'I' for Inactive)
REMARK    1  A    between atoms: C_3  and  C_1 
REMARK    2  A    between atoms: N_2  and  C_11 
REMARK    3  A    between atoms: N_6  and  C_3 
REMARK    4  A    between atoms: C_14  and  C_5 
REMARK    5  A    between atoms: C_10  and  N_7 
ROOT
ATOM      1  C   UNL d   1      51.784  34.199  52.999  0.00  0.00     0.143 C 
ATOM      2  S   UNL d   1      52.183  34.794  53.376  0.00  0.00    -0.057 SA
ENDROOT
BRANCH   1   3
ATOM      3  C   UNL d   1      51.135  34.349  52.546  0.00  0.00     0.126 A 
ATOM      4  O   UNL d   1      50.373  34.593  52.763  0.00  0.00    -0.305 OA
ATOM      5  C   UNL d   1      49.930  34.659  52.064  0.00  0.00     0.100 A 
ATOM      6  C   UNL d   1      50.396  34.466  51.454  0.00  0.00     0.027 A 
ATOM      7  C   UNL d   1      51.152  34.268  51.733  0.00  0.00     0.029 A 
BRANCH   5   8
ATOM      8  C   UNL d   1      49.161  34.874  51.932  0.00  0.00     0.023 A 
ATOM      9  C   UNL d   1      48.770  34.653  51.230  0.00  0.00     0.004 A 
ATOM     10  C   UNL d   1      47.984  34.880  51.109  0.00  0.00     0.024 A 
ATOM     11  C   UNL d   1      47.574  35.323  51.673  0.00  0.00     0.127 A 
ATOM     12  C   UNL d   1      47.983  35.539  52.377  0.00  0.00     0.024 A 
ATOM     13  C   UNL d   1      48.752  35.318  52.497  0.00  0.00     0.004 A 
BRANCH  11  14
ATOM     14  N   UNL d   1      46.806  35.538  51.541  0.00  0.00    -0.114 N 
ATOM     15  O   UNL d   1      46.239  35.062  51.157  0.00  0.00    -0.532 OA
ATOM     16  O   UNL d   1      46.477  36.254  51.768  0.00  0.00    -0.532 OA
ENDBRANCH  11  14
ENDBRANCH   5   8
ENDBRANCH   1   3
BRANCH   1  17
ATOM     17  N   UNL d   1      52.051  33.393  53.076  0.00  0.00    -0.291 N 
ATOM     18  C   UNL d   1      52.763  33.158  52.717  0.00  0.00     0.100 A 
ATOM     19  C   UNL d   1      53.028  32.382  52.786  0.00  0.00     0.100 A 
ATOM     20  N   UNL d   1      52.577  31.836  53.218  0.00  0.00    -0.301 N 
ATOM     21  C   UNL d   1      51.885  32.069  53.565  0.00  0.00     0.100 A 
ATOM     22  C   UNL d   1      51.619  32.849  53.495  0.00  0.00     0.100 A 
BRANCH  20  23
ATOM     23  C   UNL d   1      52.843  31.060  53.286  0.00  0.00     0.064 A 
ATOM     24  C   UNL d   1      53.460  30.923  53.825  0.00  0.00     0.016 A 
ATOM     25  C   UNL d   1      53.803  31.528  54.280  0.00  0.00     0.002 C 
ATOM     26  C   UNL d   1      53.741  30.157  53.909  0.00  0.00     0.001 A 
ATOM     27  C   UNL d   1      53.412  29.531  53.462  0.00  0.00     0.000 A 
ATOM     28  C   UNL d   1      52.809  29.685  52.940  0.00  0.00     0.002 A 
ATOM     29  C   UNL d   1      52.526  30.448  52.853  0.00  0.00     0.018 A 
ENDBRANCH  20  23
ENDBRANCH   1  17
TORSDOF 5
ENDMDL
MODEL 4
REMARK VINA RESULT:      -6.4      2.526      6.045
REMARK  5 active torsions:
REMARK  status: ('A' for Active; 'I' for Inactive)
REMARK    1  A    between atoms: C_3  and  C_1 
REMARK    2  A    between atoms: N_2  and  C_11 
REMARK    3  A    between atoms: N_6  and  C_3 
REMARK    4  A    between atoms: C_14  and  C_5 
REMARK    5  A    between atoms: C_10  and  N_7 
ROOT
ATOM      1  C   UNL d   1      51.253  32.964  52.960  0.00  0.00     0.143 C 
ATOM      2  S   UNL d   1      51.064  32.187  52.833  0.00  0.00    -0.057 SA
ENDROOT
BRANCH   1   3
ATOM      3  C   UNL d   1      50.772  33.559  52.712  0.00  0.00     0.126 A 
ATOM      4  O   UNL d   1      50.061  33.844  53.028  0.00  0.00    -0.305 OA
ATOM      5  C   UNL d   1      49.809  34.468  52.541  0.00  0.00     0.100 A 
ATOM      6  C   UNL d   1      50.337  34.558  51.959  0.00  0.00     0.027 A 
ATOM      7  C   UNL d   1      50.947  34.002  52.047  0.00  0.00     0.029 A 
BRANCH   5   8
ATOM      8  C   UNL d   1      49.160  34.949  52.575  0.00  0.00     0.023 A 
ATOM      9  C   UNL d   1      48.633  35.004  51.932  0.00  0.00     0.004 A 
ATOM     10  C   UNL d   1      47.974  35.500  51.981  0.00  0.00     0.024 A 
ATOM     11  C   UNL d   1      47.824  35.948  52.660  0.00  0.00     0.127 A 
ATOM     12  C   UNL d   1      48.365  35.882  53.302  0.00  0.00     0.024 A 
ATOM     13  C   UNL d   1      49.011  35.397  53.255  0.00  0.00     0.004 A 
BRANCH  11  14
ATOM     14  N   UNL d   1      47.175  36.429  52.694  0.00  0.00    -0.114 N 
ATOM     15  O   UNL d   1      46.756  36.710  52.030  0.00  0.00    -0.532 OA
ATOM     16  O   UNL d   1      46.840  36.709  53.388  0.00  0.00    -0.532 OA
ENDBRANCH  11  14
ENDBRANCH   5   8
ENDBRANCH   1   3
BRANCH   1  17
ATOM     17  N   UNL d   1      51.975  33.165  53.366  0.00  0.00    -0.291 N 
ATOM     18  C   UNL d   1      52.705  32.914  53.057  0.00  0.00     0.100 A 
ATOM     19  C   UNL d   1      53.408  33.103  53.442  0.00  0.00     0.100 A 
ATOM     20  N   UNL d   1      53.380  33.547  54.141  0.00  0.00    -0.301 N 
ATOM     21  C   UNL d   1      52.668  33.790  54.439  0.00  0.00     0.100 A 
ATOM     22  C   UNL d   1      51.963  33.599  54.051  0.00  0.00     0.100 A 
BRANCH  20  23
ATOM     23  C   UNL d   1      54.083  33.736  54.525  0.00  0.00     0.064 A 
ATOM     24  C   UNL d   1      54.361  33.191  55.086  0.00  0.00     0.016 A 
ATOM     25  C   UNL d   1      53.961  32.484  55.263  0.00  0.00     0.002 C 
ATOM     26  C   UNL d   1      55.061  33.359  55.480  0.00  0.00     0.001 A 
ATOM     27  C   UNL d   1      55.481  34.064  55.320  0.00  0.00     0.000 A 
ATOM     28  C   UNL d   1      55.193  34.585  54.768  0.00  0.00     0.002 A 
ATOM     29  C   UNL d   1      54.496  34.421  54.372  0.00  0.00     0.018 A 
ENDBRANCH  20  23
ENDBRANCH   1  17
TORSDOF 5
ENDMDL
