MODEL 1
REMARK VINA RESULT:      43.2      0.000      0.000
REMARK  3 active torsions:
REMARK  status: ('A' for Active; 'I' for Inactive)
REMARK    1  A    between atoms: C_5  and  C_1 
REMARK    2  A    between atoms: N_11  and  C_9 
REMARK    3  A    between atoms: C_17  and  N_11 
ROOT
ATOM      1  C   UNL d   1      14.857  14.733  -1.584  0.00  0.00     0.075 A 
ATOM      2  C   UNL d   1      14.444  14.153  -1.988  0.00  0.00     0.004 A 
ATOM      3  C   UNL d   1      14.510  13.358  -1.745  0.00  0.00     0.004 A 
ATOM      4  C   UNL d   1      15.344  14.531  -0.928  0.00  0.00     0.046 A 
ATOM      5  C   UNL d   1      15.410  13.762  -0.690  0.00  0.00     0.196 A 
ATOM      6  C   UNL d   1      14.995  13.178  -1.097  0.00  0.00     0.039 A 
ATOM      7  C   UNL d   1      14.094  12.773  -2.152  0.00  0.00     0.018 A 
ATOM      8  C   UNL d   1      13.610  12.980  -2.804  0.00  0.00     0.081 A 
ATOM      9  C   UNL d   1      13.974  14.348  -2.620  0.00  0.00     0.002 A 
ATOM     10  C   UNL d   1      13.558  13.764  -3.027  0.00  0.00     0.019 A 
ATOM     11  O   UNL d   1      15.918  13.589  -0.014  0.00  0.00    -0.287 OA
ATOM     12  C   UNL d   1      15.066  12.365  -0.843  0.00  0.00     0.003 A 
ATOM     13  C   UNL d   1      14.163  11.957  -1.900  0.00  0.00     0.002 A 
ATOM     14  C   UNL d   1      14.632  11.780  -1.273  0.00  0.00     0.000 A 
ENDROOT
BRANCH   8  15
ATOM     15  N   UNL d   1      13.194  12.396  -3.211  0.00  0.00    -0.246 NA
BRANCH  15  16
ATOM     16  C   UNL d   1      13.119  12.435  -4.041  0.00  0.00     0.081 A 
ATOM     17  C   UNL d   1      12.900  13.158  -4.405  0.00  0.00     0.019 A 
ATOM     18  C   UNL d   1      12.825  13.194  -5.231  0.00  0.00     0.002 A 
ATOM     19  C   UNL d   1      12.960  12.550  -5.675  0.00  0.00     0.000 A 
ATOM     20  C   UNL d   1      13.174  11.835  -5.342  0.00  0.00     0.002 A 
ATOM     21  C   UNL d   1      13.253  11.779  -4.524  0.00  0.00     0.019 A 
ENDBRANCH  15  16
ENDBRANCH   8  15
BRANCH   1  22
ATOM     22  C   UNL d   1      14.790  15.553  -1.832  0.00  0.00     0.419 C 
ATOM     23  F   UNL d   1      14.725  16.342  -2.063  0.00  0.00    -0.166 F 
ATOM     24  F   UNL d   1      14.901  15.315  -2.629  0.00  0.00    -0.166 F 
ATOM     25  F   UNL d   1      14.681  15.763  -1.022  0.00  0.00    -0.166 F 
ENDBRANCH   1  22
TORSDOF 3
ENDMDL
MODEL 2
REMARK VINA RESULT:      43.9      1.442      2.258
REMARK  3 active torsions:
REMARK  status: ('A' for Active; 'I' for Inactive)
REMARK    1  A    between atoms: C_5  and  C_1 
REMARK    2  A    between atoms: N_11  and  C_9 
REMARK    3  A    between atoms: C_17  and  N_11 
ROOT
ATOM      1  C   UNL d   1      14.992  13.349  -0.714  0.00  0.00     0.075 A 
ATOM      2  C   UNL d   1      14.618  13.455  -1.435  0.00  0.00     0.004 A 
ATOM      3  C   UNL d   1      14.587  14.217  -1.773  0.00  0.00     0.004 A 
ATOM      4  C   UNL d   1      15.342  14.003  -0.316  0.00  0.00     0.046 A 
ATOM      5  C   UNL d   1      15.314  14.742  -0.641  0.00  0.00     0.196 A 
ATOM      6  C   UNL d   1      14.938  14.849  -1.367  0.00  0.00     0.039 A 
ATOM      7  C   UNL d   1      14.211  14.323  -2.499  0.00  0.00     0.018 A 
ATOM      8  C   UNL d   1      13.863  13.669  -2.892  0.00  0.00     0.081 A 
ATOM      9  C   UNL d   1      14.280  12.825  -1.818  0.00  0.00     0.002 A 
ATOM     10  C   UNL d   1      13.904  12.931  -2.544  0.00  0.00     0.019 A 
ATOM     11  O   UNL d   1      15.683  15.391  -0.207  0.00  0.00    -0.287 OA
ATOM     12  C   UNL d   1      14.909  15.631  -1.708  0.00  0.00     0.003 A 
ATOM     13  C   UNL d   1      14.180  15.106  -2.845  0.00  0.00     0.002 A 
ATOM     14  C   UNL d   1      14.519  15.720  -2.454  0.00  0.00     0.000 A 
ENDROOT
BRANCH   8  15
ATOM     15  N   UNL d   1      13.487  13.775  -3.617  0.00  0.00    -0.246 NA
BRANCH  15  16
ATOM     16  C   UNL d   1      13.333  13.120  -4.110  0.00  0.00     0.081 A 
ATOM     17  C   UNL d   1      12.929  12.453  -3.801  0.00  0.00     0.019 A 
ATOM     18  C   UNL d   1      12.777  11.802  -4.294  0.00  0.00     0.002 A 
ATOM     19  C   UNL d   1      13.010  11.809  -5.052  0.00  0.00     0.000 A 
ATOM     20  C   UNL d   1      13.405  12.448  -5.375  0.00  0.00     0.002 A 
ATOM     21  C   UNL d   1      13.565  13.103  -4.902  0.00  0.00     0.019 A 
ENDBRANCH  15  16
ENDBRANCH   8  15
BRANCH   1  22
ATOM     22  C   UNL d   1      15.025  12.565  -0.363  0.00  0.00     0.419 C 
ATOM     23  F   UNL d   1      15.048  11.814  -0.024  0.00  0.00    -0.166 F 
ATOM     24  F   UNL d   1      15.818  12.488  -0.626  0.00  0.00    -0.166 F 
ATOM     25  F   UNL d   1      14.226  12.673  -0.112  0.00  0.00    -0.166 F 
ENDBRANCH   1  22
TORSDOF 3
ENDMDL
