MODEL 1
REMARK VINA RESULT:      27.5      0.000      0.000
REMARK  3 active torsions:
REMARK  status: ('A' for Active; 'I' for Inactive)
REMARK    1  A    between atoms: S_9  and  C_6 
REMARK    2  A    between atoms: C_13  and  S_9 
REMARK    3  A    between atoms: C_11  and  C_13 
ROOT
ATOM      1  C   UNL d   1      57.005  49.707  50.000  0.00  0.00     0.114 A 
ATOM      2  C   UNL d   1      57.628  49.707  50.525  0.00  0.00     0.048 A 
ATOM      3  S   UNL d   1      56.302  49.707  50.416  0.00  0.00    -0.068 SA
ATOM      4  C   UNL d   1      57.308  49.707  51.289  0.00  0.00     0.010 A 
ATOM      5  C   UNL d   1      56.506  49.707  51.245  0.00  0.00     0.031 A 
ATOM      6  C   UNL d   1      58.408  49.707  50.241  0.00  0.00     0.111 A 
ATOM      7  N   UNL d   1      57.153  49.708  49.186  0.00  0.00    -0.217 NA
ATOM      8  N   UNL d   1      58.564  49.708  49.435  0.00  0.00    -0.218 NA
ATOM      9  C   UNL d   1      57.932  49.708  48.906  0.00  0.00     0.200 A 
ATOM     10  C   UNL d   1      57.683  49.707  52.025  0.00  0.00     0.001 A 
ATOM     11  C   UNL d   1      56.035  49.706  51.923  0.00  0.00     0.006 A 
ATOM     12  C   UNL d   1      57.217  49.706  52.705  0.00  0.00     0.000 A 
ATOM     13  C   UNL d   1      56.419  49.706  52.663  0.00  0.00     0.001 A 
ENDROOT
BRANCH   6  14
ATOM     14  S   UNL d   1      59.059  49.707  50.778  0.00  0.00    -0.083 SA
BRANCH  14  15
ATOM     15  C   UNL d   1      59.808  49.657  50.487  0.00  0.00     0.161 C 
BRANCH  15  16
ATOM     16  C   UNL d   1      60.435  49.660  51.014  0.00  0.00     0.197 C 
ATOM     17  O   UNL d   1      60.279  49.687  51.815  0.00  0.00    -0.647 OA
ATOM     18  O   UNL d   1      61.194  49.637  50.758  0.00  0.00    -0.647 OA
ENDBRANCH  15  16
ENDBRANCH  14  15
ENDBRANCH   6  14
TORSDOF 3
ENDMDL
