MODEL 1
REMARK VINA RESULT:      -3.1      0.000      0.000
REMARK  5 active torsions:
REMARK  status: ('A' for Active; 'I' for Inactive)
REMARK    1  A    between atoms: N_3  and  C_1 
REMARK       I    between atoms: C_9  and  N_3 
REMARK    2  A    between atoms: C_12  and  C_7 
REMARK    3  A    between atoms: C_17  and  C_9 
REMARK    4  A    between atoms: C_11  and  S_14 
REMARK    5  A    between atoms: S_14  and  C_17 
ROOT
ATOM      1  N   UNL d   1      58.326  -1.109  29.781  0.00  0.00    -0.146 NA
ATOM      2  N   UNL d   1      57.665  -0.903  30.230  0.00  0.00    -0.141 NA
ATOM      3  C   UNL d   1      59.025  -0.670  29.849  0.00  0.00     0.121 A 
ATOM      4  C   UNL d   1      57.691  -0.268  30.744  0.00  0.00     0.133 A 
ATOM      5  C   UNL d   1      59.056  -0.027  30.367  0.00  0.00     0.025 A 
ATOM      6  C   UNL d   1      58.395   0.175  30.813  0.00  0.00     0.029 A 
ENDROOT
BRANCH   4   7
ATOM      7  S   UNL d   1      57.030  -0.062  31.192  0.00  0.00    -0.061 SA
BRANCH   7   8
ATOM      8  C   UNL d   1      56.913  -0.390  31.935  0.00  0.00     0.099 C 
BRANCH   8   9
ATOM      9  C   UNL d   1      56.391  -0.027  32.463  0.00  0.00     0.288 C 
ATOM     10  N   UNL d   1      56.236  -0.373  33.195  0.00  0.00    -0.182 NA
ATOM     11  O   UNL d   1      56.025   0.680  32.261  0.00  0.00    -0.265 OA
BRANCH  10  12
ATOM     12  C   UNL d   1      55.719  -0.021  33.729  0.00  0.00     0.197 A 
ATOM     13  N   UNL d   1      54.902  -0.062  33.687  0.00  0.00    -0.221 NA
ATOM     14  C   UNL d   1      54.599   0.359  34.319  0.00  0.00     0.090 A 
ATOM     15  C   UNL d   1      53.798   0.469  34.500  0.00  0.00     0.021 C 
ATOM     16  C   UNL d   1      55.233   0.659  34.748  0.00  0.00     0.058 A 
ATOM     17  S   UNL d   1      55.923   0.424  34.383  0.00  0.00    -0.046 SA
ENDBRANCH  10  12
ENDBRANCH   8   9
ENDBRANCH   7   8
ENDBRANCH   4   7
BRANCH   3  18
ATOM     18  C   UNL d   1      59.685  -0.876  29.401  0.00  0.00     0.101 A 
ATOM     19  N   UNL d   1      59.789  -1.648  29.164  0.00  0.00    -0.242 NA
ATOM     20  C   UNL d   1      60.443  -1.855  28.719  0.00  0.00     0.099 A 
ATOM     21  C   UNL d   1      61.002  -1.276  28.509  0.00  0.00     0.021 A 
ATOM     22  C   UNL d   1      60.894  -0.502  28.748  0.00  0.00     0.003 A 
ATOM     23  C   UNL d   1      60.236  -0.287  29.198  0.00  0.00     0.021 A 
ENDBRANCH   3  18
TORSDOF 5
ENDMDL
