MODEL 1
REMARK VINA RESULT:      93.3      0.000      0.000
REMARK  6 active torsions:
REMARK  status: ('A' for Active; 'I' for Inactive)
REMARK    1  A    between atoms: C_8  and  C_1 
REMARK    2  A    between atoms: C_6  and  O_10 
REMARK    3  A    between atoms: C_7  and  C_6 
REMARK    4  A    between atoms: C_18  and  C_8 
REMARK    5  A    between atoms: O_10  and  C_12 
REMARK    6  A    between atoms: O_20  and  C_13 
ROOT
ATOM      1  C   UNL d   1      61.372  45.315  49.957  0.00  0.00     0.139 A 
ATOM      2  C   UNL d   1      61.905  46.505  49.663  0.00  0.00     0.064 A 
ATOM      3  C   UNL d   1      61.891  45.706  49.445  0.00  0.00     0.220 A 
ATOM      4  C   UNL d   1      61.398  46.610  50.307  0.00  0.00     0.105 A 
ATOM      5  O   UNL d   1      61.068  45.873  50.489  0.00  0.00    -0.304 OA
ATOM      6  C   UNL d   1      61.309  47.357  50.635  0.00  0.00     0.050 A 
ATOM      7  C   UNL d   1      62.318  47.148  49.352  0.00  0.00     0.007 A 
ATOM      8  C   UNL d   1      61.720  47.992  50.325  0.00  0.00     0.105 A 
ATOM      9  O   UNL d   1      62.315  45.358  48.829  0.00  0.00    -0.284 OA
ATOM     10  C   UNL d   1      62.224  47.897  49.687  0.00  0.00     0.025 A 
ENDROOT
BRANCH   8  11
ATOM     11  O   UNL d   1      61.626  48.740  50.659  0.00  0.00    -0.273 OA
BRANCH  11  12
ATOM     12  C   UNL d   1      60.882  49.105  50.676  0.00  0.00     0.302 C 
ATOM     13  O   UNL d   1      60.497  49.271  49.965  0.00  0.00    -0.259 OA
BRANCH  12  14
ATOM     14  C   UNL d   1      60.523  49.304  51.387  0.00  0.00     0.086 A 
ATOM     15  C   UNL d   1      59.712  49.506  51.397  0.00  0.00     0.099 A 
ATOM     16  C   UNL d   1      59.354  49.705  52.107  0.00  0.00     0.024 A 
ATOM     17  C   UNL d   1      59.780  49.707  52.808  0.00  0.00     0.002 A 
ATOM     18  C   UNL d   1      60.595  49.504  52.798  0.00  0.00     0.000 A 
ATOM     19  C   UNL d   1      60.958  49.304  52.087  0.00  0.00     0.007 A 
BRANCH  15  20
ATOM     20  O   UNL d   1      59.290  49.501  50.687  0.00  0.00    -0.328 OA
ATOM     21  C   UNL d   1      58.480  49.669  50.701  0.00  0.00     0.181 C 
ENDBRANCH  15  20
ENDBRANCH  12  14
ENDBRANCH  11  12
ENDBRANCH   8  11
BRANCH   1  22
ATOM     22  C   UNL d   1      61.188  44.509  49.943  0.00  0.00     0.028 C 
BRANCH  22  23
ATOM     23  C   UNL d   1      61.330  44.037  50.607  0.00  0.00     0.005 A 
ATOM     24  C   UNL d   1      62.080  43.727  50.728  0.00  0.00     0.021 A 
ATOM     25  C   UNL d   1      62.230  43.256  51.386  0.00  0.00     0.099 A 
ATOM     26  N   UNL d   1      61.622  43.092  51.929  0.00  0.00    -0.242 NA
ATOM     27  C   UNL d   1      60.865  43.407  51.802  0.00  0.00     0.099 A 
ATOM     28  C   UNL d   1      60.724  43.880  51.139  0.00  0.00     0.021 A 
ENDBRANCH  22  23
ENDBRANCH   1  22
TORSDOF 6
ENDMDL
