MODEL 1
REMARK VINA RESULT:      21.8      0.000      0.000
REMARK  4 active torsions:
REMARK  status: ('A' for Active; 'I' for Inactive)
REMARK    1  A    between atoms: C_5  and  N_1 
REMARK    2  A    between atoms: C_7  and  C_5 
REMARK    3  A    between atoms: O_11  and  C_8 
REMARK    4  A    between atoms: C_16  and  O_11 
ROOT
ATOM      1  N   UNL d   1      45.769 -16.751  44.276  0.00  0.00    -0.251 N 
ATOM      2  C   UNL d   1      45.127 -17.080  44.699  0.00  0.00     0.378 A 
ATOM      3  C   UNL d   1      45.705 -15.932  44.306  0.00  0.00     0.092 A 
ATOM      4  O   UNL d   1      44.718 -16.412  44.955  0.00  0.00    -0.258 OA
ATOM      5  C   UNL d   1      45.025 -15.744  44.745  0.00  0.00     0.121 A 
ATOM      6  O   UNL d   1      44.976 -17.889  44.809  0.00  0.00    -0.237 OA
ATOM      7  C   UNL d   1      46.173 -15.332  43.993  0.00  0.00     0.020 A 
ATOM      8  C   UNL d   1      44.817 -14.945  44.869  0.00  0.00     0.026 A 
ATOM      9  C   UNL d   1      45.964 -14.534  44.117  0.00  0.00     0.002 A 
ATOM     10  C   UNL d   1      45.287 -14.334  44.554  0.00  0.00     0.002 A 
ATOM     11  C   UNL d   1      46.445 -13.925  43.795  0.00  0.00     0.000 C 
ENDROOT
BRANCH   1  12
ATOM     12  C   UNL d   1      46.356 -17.183  43.901  0.00  0.00     0.087 C 
BRANCH  12  13
ATOM     13  C   UNL d   1      46.430 -17.994  44.035  0.00  0.00     0.041 A 
ATOM     14  C   UNL d   1      46.571 -18.498  43.400  0.00  0.00     0.101 A 
ATOM     15  C   UNL d   1      46.645 -19.307  43.538  0.00  0.00     0.025 A 
ATOM     16  C   UNL d   1      46.579 -19.611  44.302  0.00  0.00     0.002 A 
ATOM     17  C   UNL d   1      46.436 -19.097  44.938  0.00  0.00     0.000 A 
ATOM     18  C   UNL d   1      46.363 -18.288  44.800  0.00  0.00     0.004 A 
BRANCH  14  19
ATOM     19  O   UNL d   1      46.633 -18.167  42.651  0.00  0.00    -0.307 OA
BRANCH  19  20
ATOM     20  C   UNL d   1      46.510 -18.639  41.976  0.00  0.00     0.100 C 
ATOM     21  C   UNL d   1      46.293 -18.287  41.260  0.00  0.00     0.027 C 
ATOM     22  C   UNL d   1      46.605 -19.457  42.024  0.00  0.00     0.027 C 
ENDBRANCH  19  20
ENDBRANCH  14  19
ENDBRANCH  12  13
ENDBRANCH   1  12
TORSDOF 4
ENDMDL
MODEL 2
REMARK VINA RESULT:      23.6      1.670      4.468
REMARK  4 active torsions:
REMARK  status: ('A' for Active; 'I' for Inactive)
REMARK    1  A    between atoms: C_5  and  N_1 
REMARK    2  A    between atoms: C_7  and  C_5 
REMARK    3  A    between atoms: O_11  and  C_8 
REMARK    4  A    between atoms: C_16  and  O_11 
ROOT
ATOM      1  N   UNL d   1      45.479 -15.150  43.939  0.00  0.00    -0.251 N 
ATOM      2  C   UNL d   1      44.995 -15.093  44.618  0.00  0.00     0.378 A 
ATOM      3  C   UNL d   1      45.648 -15.944  43.807  0.00  0.00     0.092 A 
ATOM      4  O   UNL d   1      44.910 -15.881  44.845  0.00  0.00    -0.258 OA
ATOM      5  C   UNL d   1      45.272 -16.387  44.400  0.00  0.00     0.121 A 
ATOM      6  O   UNL d   1      44.695 -14.394  44.949  0.00  0.00    -0.237 OA
ATOM      7  C   UNL d   1      46.093 -16.323  43.228  0.00  0.00     0.020 A 
ATOM      8  C   UNL d   1      45.345 -17.219  44.409  0.00  0.00     0.026 A 
ATOM      9  C   UNL d   1      46.165 -17.154  43.237  0.00  0.00     0.002 A 
ATOM     10  C   UNL d   1      45.794 -17.607  43.825  0.00  0.00     0.002 A 
ATOM     11  C   UNL d   1      46.621 -17.536  42.643  0.00  0.00     0.000 C 
ENDROOT
BRANCH   1  12
ATOM     12  C   UNL d   1      45.735 -14.514  43.490  0.00  0.00     0.087 C 
BRANCH  12  13
ATOM     13  C   UNL d   1      45.906 -13.790  43.847  0.00  0.00     0.041 A 
ATOM     14  C   UNL d   1      45.679 -13.091  43.476  0.00  0.00     0.101 A 
ATOM     15  C   UNL d   1      45.851 -12.370  43.836  0.00  0.00     0.025 A 
ATOM     16  C   UNL d   1      46.247 -12.346  44.559  0.00  0.00     0.002 A 
ATOM     17  C   UNL d   1      46.474 -13.054  44.928  0.00  0.00     0.000 A 
ATOM     18  C   UNL d   1      46.301 -13.775  44.568  0.00  0.00     0.004 A 
BRANCH  14  19
ATOM     19  O   UNL d   1      45.286 -13.148  42.756  0.00  0.00    -0.307 OA
BRANCH  19  20
ATOM     20  C   UNL d   1      45.173 -12.467  42.290  0.00  0.00     0.100 C 
ATOM     21  C   UNL d   1      44.408 -12.179  42.158  0.00  0.00     0.027 C 
ATOM     22  C   UNL d   1      45.823 -12.080  41.962  0.00  0.00     0.027 C 
ENDBRANCH  19  20
ENDBRANCH  14  19
ENDBRANCH  12  13
ENDBRANCH   1  12
TORSDOF 4
ENDMDL
MODEL 3
REMARK VINA RESULT:      24.1      0.971      3.836
REMARK  4 active torsions:
REMARK  status: ('A' for Active; 'I' for Inactive)
REMARK    1  A    between atoms: C_5  and  N_1 
REMARK    2  A    between atoms: C_7  and  C_5 
REMARK    3  A    between atoms: O_11  and  C_8 
REMARK    4  A    between atoms: C_16  and  O_11 
ROOT
ATOM      1  N   UNL d   1      46.307 -17.399  43.525  0.00  0.00    -0.251 N 
ATOM      2  C   UNL d   1      46.505 -17.881  44.179  0.00  0.00     0.378 A 
ATOM      3  C   UNL d   1      46.215 -17.882  42.866  0.00  0.00     0.092 A 
ATOM      4  O   UNL d   1      46.516 -18.637  43.849  0.00  0.00    -0.258 OA
ATOM      5  C   UNL d   1      46.355 -18.667  43.102  0.00  0.00     0.121 A 
ATOM      6  O   UNL d   1      46.646 -17.621  44.955  0.00  0.00    -0.237 OA
ATOM      7  C   UNL d   1      46.024 -17.715  42.084  0.00  0.00     0.020 A 
ATOM      8  C   UNL d   1      46.301 -19.286  42.545  0.00  0.00     0.026 A 
ATOM      9  C   UNL d   1      45.971 -18.335  41.527  0.00  0.00     0.002 A 
ATOM     10  C   UNL d   1      46.108 -19.122  41.752  0.00  0.00     0.002 A 
ATOM     11  C   UNL d   1      45.775 -18.158  40.729  0.00  0.00     0.000 C 
ENDROOT
BRANCH   1  12
ATOM     12  C   UNL d   1      46.222 -16.585  43.551  0.00  0.00     0.087 C 
BRANCH  12  13
ATOM     13  C   UNL d   1      45.637 -16.239  44.019  0.00  0.00     0.041 A 
ATOM     14  C   UNL d   1      45.657 -15.428  44.159  0.00  0.00     0.101 A 
ATOM     15  C   UNL d   1      45.072 -15.086  44.628  0.00  0.00     0.025 A 
ATOM     16  C   UNL d   1      44.473 -15.547  44.955  0.00  0.00     0.002 A 
ATOM     17  C   UNL d   1      44.458 -16.365  44.811  0.00  0.00     0.000 A 
ATOM     18  C   UNL d   1      45.043 -16.707  44.342  0.00  0.00     0.004 A 
BRANCH  14  19
ATOM     19  O   UNL d   1      46.267 -14.994  43.819  0.00  0.00    -0.307 OA
BRANCH  19  20
ATOM     20  C   UNL d   1      46.245 -14.161  43.840  0.00  0.00     0.100 C 
ATOM     21  C   UNL d   1      45.901 -13.742  43.215  0.00  0.00     0.027 C 
ATOM     22  C   UNL d   1      46.567 -13.757  44.483  0.00  0.00     0.027 C 
ENDBRANCH  19  20
ENDBRANCH  14  19
ENDBRANCH  12  13
ENDBRANCH   1  12
TORSDOF 4
ENDMDL
MODEL 4
REMARK VINA RESULT:      24.7      0.887      1.285
REMARK  4 active torsions:
REMARK  status: ('A' for Active; 'I' for Inactive)
REMARK    1  A    between atoms: C_5  and  N_1 
REMARK    2  A    between atoms: C_7  and  C_5 
REMARK    3  A    between atoms: O_11  and  C_8 
REMARK    4  A    between atoms: C_16  and  O_11 
ROOT
ATOM      1  N   UNL d   1      45.243 -15.606  44.037  0.00  0.00    -0.251 N 
ATOM      2  C   UNL d   1      44.662 -15.733  44.624  0.00  0.00     0.378 A 
ATOM      3  C   UNL d   1      45.454 -14.811  44.049  0.00  0.00     0.092 A 
ATOM      4  O   UNL d   1      44.569 -14.982  44.951  0.00  0.00    -0.258 OA
ATOM      5  C   UNL d   1      45.008 -14.438  44.642  0.00  0.00     0.121 A 
ATOM      6  O   UNL d   1      44.295 -16.456  44.802  0.00  0.00    -0.237 OA
ATOM      7  C   UNL d   1      45.991 -14.378  43.602  0.00  0.00     0.020 A 
ATOM      8  C   UNL d   1      45.104 -13.621  44.784  0.00  0.00     0.026 A 
ATOM      9  C   UNL d   1      46.087 -13.560  43.745  0.00  0.00     0.002 A 
ATOM     10  C   UNL d   1      45.646 -13.177  44.334  0.00  0.00     0.002 A 
ATOM     11  C   UNL d   1      46.636 -13.122  43.285  0.00  0.00     0.000 C 
ENDROOT
BRANCH   1  12
ATOM     12  C   UNL d   1      45.544 -16.184  43.539  0.00  0.00     0.087 C 
BRANCH  12  13
ATOM     13  C   UNL d   1      45.912 -16.854  43.850  0.00  0.00     0.041 A 
ATOM     14  C   UNL d   1      46.018 -17.516  43.372  0.00  0.00     0.101 A 
ATOM     15  C   UNL d   1      46.385 -18.184  43.685  0.00  0.00     0.025 A 
ATOM     16  C   UNL d   1      46.645 -18.192  44.468  0.00  0.00     0.002 A 
ATOM     17  C   UNL d   1      46.535 -17.521  44.945  0.00  0.00     0.000 A 
ATOM     18  C   UNL d   1      46.167 -16.854  44.632  0.00  0.00     0.004 A 
BRANCH  14  19
ATOM     19  O   UNL d   1      45.749 -17.478  42.596  0.00  0.00    -0.307 OA
BRANCH  19  20
ATOM     20  C   UNL d   1      45.906 -18.105  42.071  0.00  0.00     0.100 C 
ATOM     21  C   UNL d   1      45.422 -18.777  42.074  0.00  0.00     0.027 C 
ATOM     22  C   UNL d   1      46.543 -18.055  41.549  0.00  0.00     0.027 C 
ENDBRANCH  19  20
ENDBRANCH  14  19
ENDBRANCH  12  13
ENDBRANCH   1  12
TORSDOF 4
ENDMDL
