MODEL 1
REMARK VINA RESULT:      58.6      0.000      0.000
REMARK  3 active torsions:
REMARK  status: ('A' for Active; 'I' for Inactive)
REMARK       I    between atoms: N_3  and  C_1 
REMARK       I    between atoms: N_5  and  C_1 
REMARK    1  A    between atoms: C_2  and  O_6 
REMARK       I    between atoms: N_4  and  C_2 
REMARK    2  A    between atoms: C_10  and  N_5 
REMARK    3  A    between atoms: O_6  and  C_11 
ROOT
ATOM      1  C   UNL d   1     -49.343  28.560  34.263  0.00  0.00     0.086 A 
ATOM      2  C   UNL d   1     -50.236  27.307  33.666  0.00  0.00     0.105 A 
ATOM      3  C   UNL d   1     -49.847  28.675  33.600  0.00  0.00     0.021 A 
ATOM      4  C   UNL d   1     -49.300  27.799  34.619  0.00  0.00     0.021 A 
ATOM      5  C   UNL d   1     -50.287  28.057  33.306  0.00  0.00     0.026 A 
ATOM      6  C   UNL d   1     -49.740  27.182  34.324  0.00  0.00     0.026 A 
ENDROOT
BRANCH   1   7
ATOM      7  N   UNL d   1     -48.904  29.176  34.557  0.00  0.00    -0.192 NA
ATOM      8  C   UNL d   1     -48.275  29.046  35.065  0.00  0.00     0.354 C 
ATOM      9  N   UNL d   1     -47.829  29.672  35.364  0.00  0.00    -0.252 N 
ATOM     10  O   UNL d   1     -48.092  28.253  35.278  0.00  0.00    -0.244 OA
ATOM     11  C   UNL d   1     -47.192  29.516  35.880  0.00  0.00     0.111 A 
ATOM     12  C   UNL d   1     -48.006  30.456  35.157  0.00  0.00     0.111 A 
ATOM     13  C   UNL d   1     -46.739  30.151  36.183  0.00  0.00     0.142 A 
ATOM     14  O   UNL d   1     -46.929  30.934  35.966  0.00  0.00    -0.300 OA
ATOM     15  C   UNL d   1     -47.559  31.082  35.456  0.00  0.00     0.142 A 
ENDBRANCH   1   7
BRANCH   2  16
ATOM     16  O   UNL d   1     -50.682  26.681  33.367  0.00  0.00    -0.259 OA
BRANCH  16  17
ATOM     17  C   UNL d   1     -50.367  25.920  33.350  0.00  0.00     0.377 C 
ATOM     18  N   UNL d   1     -50.868  25.265  33.337  0.00  0.00    -0.252 N 
ATOM     19  C   UNL d   1     -50.551  24.505  33.319  0.00  0.00     0.085 A 
ATOM     20  C   UNL d   1     -51.684  25.369  33.341  0.00  0.00     0.085 A 
ATOM     21  C   UNL d   1     -51.049  23.847  33.306  0.00  0.00     0.019 A 
ATOM     22  C   UNL d   1     -51.865  23.951  33.311  0.00  0.00     0.003 A 
ATOM     23  C   UNL d   1     -52.187  24.711  33.328  0.00  0.00     0.019 A 
ATOM     24  O   UNL d   1     -49.553  25.812  33.345  0.00  0.00    -0.237 OA
ENDBRANCH  16  17
ENDBRANCH   2  16
TORSDOF 3
ENDMDL
MODEL 2
REMARK VINA RESULT:      61.5      0.928      5.755
REMARK  3 active torsions:
REMARK  status: ('A' for Active; 'I' for Inactive)
REMARK       I    between atoms: N_3  and  C_1 
REMARK       I    between atoms: N_5  and  C_1 
REMARK    1  A    between atoms: C_2  and  O_6 
REMARK       I    between atoms: N_4  and  C_2 
REMARK    2  A    between atoms: C_10  and  N_5 
REMARK    3  A    between atoms: O_6  and  C_11 
ROOT
ATOM      1  C   UNL d   1     -49.936  26.739  33.999  0.00  0.00     0.086 A 
ATOM      2  C   UNL d   1     -49.227  28.203  34.276  0.00  0.00     0.105 A 
ATOM      3  C   UNL d   1     -49.630  26.926  34.759  0.00  0.00     0.021 A 
ATOM      4  C   UNL d   1     -49.877  27.306  33.381  0.00  0.00     0.021 A 
ATOM      5  C   UNL d   1     -49.281  27.647  34.895  0.00  0.00     0.026 A 
ATOM      6  C   UNL d   1     -49.527  28.027  33.518  0.00  0.00     0.026 A 
ENDROOT
BRANCH   1   7
ATOM      7  N   UNL d   1     -50.285  26.018  33.863  0.00  0.00    -0.192 NA
ATOM      8  C   UNL d   1     -51.090  25.955  33.726  0.00  0.00     0.354 C 
ATOM      9  N   UNL d   1     -51.444  25.223  33.588  0.00  0.00    -0.252 N 
ATOM     10  O   UNL d   1     -51.552  26.657  33.730  0.00  0.00    -0.244 OA
ATOM     11  C   UNL d   1     -52.266  25.181  33.451  0.00  0.00     0.111 A 
ATOM     12  C   UNL d   1     -50.993  24.526  33.583  0.00  0.00     0.111 A 
ATOM     13  C   UNL d   1     -52.626  24.438  33.311  0.00  0.00     0.142 A 
ATOM     14  O   UNL d   1     -52.159  23.747  33.309  0.00  0.00    -0.300 OA
ATOM     15  C   UNL d   1     -51.347  23.794  33.445  0.00  0.00     0.142 A 
ENDBRANCH   1   7
BRANCH   2  16
ATOM     16  O   UNL d   1     -48.873  28.935  34.414  0.00  0.00    -0.259 OA
BRANCH  16  17
ATOM     17  C   UNL d   1     -48.281  29.007  34.982  0.00  0.00     0.377 C 
ATOM     18  N   UNL d   1     -47.970  29.748  35.163  0.00  0.00    -0.252 N 
ATOM     19  C   UNL d   1     -47.378  29.819  35.732  0.00  0.00     0.085 A 
ATOM     20  C   UNL d   1     -48.249  30.419  34.777  0.00  0.00     0.085 A 
ATOM     21  C   UNL d   1     -47.064  30.559  35.916  0.00  0.00     0.019 A 
ATOM     22  C   UNL d   1     -47.343  31.230  35.529  0.00  0.00     0.003 A 
ATOM     23  C   UNL d   1     -47.935  31.164  34.959  0.00  0.00     0.019 A 
ATOM     24  O   UNL d   1     -48.000  28.340  35.371  0.00  0.00    -0.237 OA
ENDBRANCH  16  17
ENDBRANCH   2  16
TORSDOF 3
ENDMDL
