MODEL 1
REMARK VINA RESULT:      65.0      0.000      0.000
REMARK  4 active torsions:
REMARK  status: ('A' for Active; 'I' for Inactive)
REMARK    1  A    between atoms: O_7  and  C_2 
REMARK    2  A    between atoms: C_13  and  C_3 
REMARK    3  A    between atoms: C_11  and  O_7 
REMARK    4  A    between atoms: O_25  and  C_20 
ROOT
ATOM      1  C   UNL d   1      46.192 -18.950  43.308  0.00  0.00     0.066 A 
ATOM      2  C   UNL d   1      46.085 -18.284  43.775  0.00  0.00     0.186 A 
ATOM      3  C   UNL d   1      46.077 -19.103  42.484  0.00  0.00     0.012 A 
ATOM      4  C   UNL d   1      46.280 -19.866  42.357  0.00  0.00     0.037 A 
ATOM      5  C   UNL d   1      46.470 -19.654  43.657  0.00  0.00     0.116 A 
ATOM      6  S   UNL d   1      46.527 -20.237  43.058  0.00  0.00    -0.067 SA
ATOM      7  N   UNL d   1      46.253 -18.324  44.581  0.00  0.00    -0.200 NA
ATOM      8  N   UNL d   1      46.639 -19.694  44.464  0.00  0.00    -0.217 NA
ATOM      9  C   UNL d   1      46.530 -19.030  44.921  0.00  0.00     0.201 A 
ENDROOT
BRANCH   2  10
ATOM     10  O   UNL d   1      45.805 -17.571  43.433  0.00  0.00    -0.288 OA
BRANCH  10  11
ATOM     11  C   UNL d   1      45.387 -16.997  43.901  0.00  0.00     0.119 A 
ATOM     12  C   UNL d   1      45.479 -16.183  43.806  0.00  0.00     0.104 A 
ATOM     13  N   UNL d   1      46.012 -15.896  43.217  0.00  0.00    -0.244 NA
ATOM     14  C   UNL d   1      45.060 -15.655  44.274  0.00  0.00     0.020 A 
ATOM     15  C   UNL d   1      46.103 -15.082  43.123  0.00  0.00     0.082 A 
ATOM     16  C   UNL d   1      46.638 -14.758  42.532  0.00  0.00     0.021 C 
ATOM     17  C   UNL d   1      45.685 -14.554  43.590  0.00  0.00     0.019 A 
ATOM     18  C   UNL d   1      45.161 -14.822  44.168  0.00  0.00     0.003 A 
ATOM     19  C   UNL d   1      44.536 -15.923  44.852  0.00  0.00     0.002 A 
ATOM     20  C   UNL d   1      44.445 -16.737  44.946  0.00  0.00     0.002 A 
ATOM     21  C   UNL d   1      44.864 -17.265  44.479  0.00  0.00     0.026 A 
ENDBRANCH  10  11
ENDBRANCH   2  10
BRANCH   3  22
ATOM     22  C   UNL d   1      45.809 -18.574  41.915  0.00  0.00     0.001 A 
ATOM     23  C   UNL d   1      45.000 -18.414  41.808  0.00  0.00     0.002 A 
ATOM     24  C   UNL d   1      44.759 -17.879  41.229  0.00  0.00     0.024 A 
ATOM     25  C   UNL d   1      45.338 -17.499  40.752  0.00  0.00     0.094 A 
ATOM     26  C   UNL d   1      46.149 -17.667  40.867  0.00  0.00     0.024 A 
ATOM     27  C   UNL d   1      46.390 -18.203  41.446  0.00  0.00     0.002 A 
BRANCH  25  28
ATOM     28  O   UNL d   1      45.150 -16.939  40.141  0.00  0.00    -0.328 OA
ATOM     29  C   UNL d   1      44.973 -17.216  39.384  0.00  0.00     0.181 C 
ENDBRANCH  25  28
ENDBRANCH   3  22
TORSDOF 4
ENDMDL
