MODEL 1
REMARK VINA RESULT:      33.7      0.000      0.000
REMARK  4 active torsions:
REMARK  status: ('A' for Active; 'I' for Inactive)
REMARK    1  A    between atoms: S_8  and  C_1 
REMARK    2  A    between atoms: C_2  and  S_7 
REMARK    3  A    between atoms: S_7  and  C_13 
REMARK    4  A    between atoms: C_13  and  S_8 
ROOT
ATOM      1  C   UNL d   1     -55.982 -99.271 -44.954  0.00  0.00     0.128 C 
ENDROOT
BRANCH   1   2
ATOM      2  S   UNL d   1     -56.410 -98.830 -44.406  0.00  0.00    -0.076 SA
BRANCH   2   3
ATOM      3  C   UNL d   1     -57.218 -98.837 -44.465  0.00  0.00     0.137 A 
ATOM      4  N   UNL d   1     -57.808 -98.869 -43.868  0.00  0.00    -0.232 NA
ATOM      5  C   UNL d   1     -58.532 -98.863 -44.230  0.00  0.00     0.088 A 
ATOM      6  C   UNL d   1     -59.306 -98.885 -43.949  0.00  0.00     0.020 A 
ATOM      7  C   UNL d   1     -58.413 -98.829 -45.050  0.00  0.00     0.049 A 
ATOM      8  C   UNL d   1     -59.936 -98.872 -44.454  0.00  0.00     0.002 A 
ATOM      9  C   UNL d   1     -59.844 -98.838 -45.269  0.00  0.00     0.001 A 
ATOM     10  C   UNL d   1     -59.059 -98.816 -45.566  0.00  0.00     0.008 A 
ATOM     11  S   UNL d   1     -57.608 -98.812 -45.199  0.00  0.00    -0.060 SA
ENDBRANCH   2   3
ENDBRANCH   1   2
BRANCH   1  12
ATOM     12  S   UNL d   1     -55.239 -99.564 -44.747  0.00  0.00    -0.076 SA
BRANCH  12  13
ATOM     13  C   UNL d   1     -55.133-100.304 -44.399  0.00  0.00     0.137 A 
ATOM     14  N   UNL d   1     -55.006-100.984 -44.792  0.00  0.00    -0.232 NA
ATOM     15  C   UNL d   1     -54.933-101.571 -44.231  0.00  0.00     0.088 A 
ATOM     16  C   UNL d   1     -54.801-102.369 -44.269  0.00  0.00     0.020 A 
ATOM     17  C   UNL d   1     -55.021-101.210 -43.496  0.00  0.00     0.049 A 
ATOM     18  C   UNL d   1     -54.752-102.837 -43.588  0.00  0.00     0.002 A 
ATOM     19  C   UNL d   1     -54.843-102.466 -42.831  0.00  0.00     0.001 A 
ATOM     20  C   UNL d   1     -54.977-101.647 -42.798  0.00  0.00     0.008 A 
ATOM     21  S   UNL d   1     -55.147-100.406 -43.614  0.00  0.00    -0.060 SA
ENDBRANCH  12  13
ENDBRANCH   1  12
TORSDOF 4
ENDMDL
