MODEL 1
REMARK VINA RESULT:      -6.9      0.000      0.000
REMARK  4 active torsions:
REMARK  status: ('A' for Active; 'I' for Inactive)
REMARK    1  A    between atoms: C_7  and  C_2 
REMARK    2  A    between atoms: C_9  and  C_4 
REMARK    3  A    between atoms: C_15  and  C_7 
REMARK    4  A    between atoms: N_8  and  C_9 
ROOT
ATOM      1  C   UNL d   1     -48.782  14.594  22.313  0.00  0.00     0.108 A 
ATOM      2  C   UNL d   1     -47.449  14.536  22.436  0.00  0.00     0.139 A 
ATOM      3  O   UNL d   1     -48.121  14.104  22.204  0.00  0.00    -0.304 OA
ATOM      4  C   UNL d   1     -49.585  14.473  22.182  0.00  0.00     0.079 A 
ATOM      5  C   UNL d   1     -48.518  15.320  22.609  0.00  0.00     0.064 A 
ATOM      6  C   UNL d   1     -47.698  15.282  22.684  0.00  0.00     0.220 A 
ATOM      7  C   UNL d   1     -49.060  15.921  22.772  0.00  0.00     0.009 A 
ATOM      8  C   UNL d   1     -50.119  15.072  22.346  0.00  0.00     0.199 A 
ATOM      9  O   UNL d   1     -47.206  15.890  22.961  0.00  0.00    -0.284 OA
ATOM     10  C   UNL d   1     -49.864  15.796  22.640  0.00  0.00     0.042 A 
ATOM     11  O   UNL d   1     -50.924  14.947  22.213  0.00  0.00    -0.286 OA
ENDROOT
BRANCH   2  12
ATOM     12  C   UNL d   1     -46.670  14.261  22.418  0.00  0.00     0.028 C 
BRANCH  12  13
ATOM     13  C   UNL d   1     -46.492  13.495  22.677  0.00  0.00     0.002 A 
ATOM     14  C   UNL d   1     -46.114  12.969  22.166  0.00  0.00     0.000 A 
ATOM     15  C   UNL d   1     -45.935  12.207  22.417  0.00  0.00     0.000 A 
ATOM     16  C   UNL d   1     -46.135  11.967  23.187  0.00  0.00     0.000 A 
ATOM     17  C   UNL d   1     -46.513  12.493  23.698  0.00  0.00     0.000 A 
ATOM     18  C   UNL d   1     -45.957  11.203  23.442  0.00  0.00     0.000 C 
ATOM     19  C   UNL d   1     -46.691  13.258  23.439  0.00  0.00     0.000 A 
ENDBRANCH  12  13
ENDBRANCH   2  12
BRANCH   4  20
ATOM     20  C   UNL d   1     -49.846  13.755  21.890  0.00  0.00     0.086 C 
BRANCH  20  21
ATOM     21  N   UNL d   1     -50.015  13.078  22.345  0.00  0.00    -0.300 N 
ATOM     22  C   UNL d   1     -50.362  13.177  23.081  0.00  0.00     0.100 A 
ATOM     23  C   UNL d   1     -50.533  12.514  23.538  0.00  0.00     0.100 A 
ATOM     24  N   UNL d   1     -50.352  11.772  23.248  0.00  0.00    -0.299 N 
ATOM     25  C   UNL d   1     -50.005  11.690  22.511  0.00  0.00     0.100 A 
ATOM     26  C   UNL d   1     -50.519  11.113  23.698  0.00  0.00     0.100 C 
ATOM     27  C   UNL d   1     -49.839  12.349  22.065  0.00  0.00     0.100 A 
ENDBRANCH  20  21
ENDBRANCH   4  20
TORSDOF 4
ENDMDL
MODEL 2
REMARK VINA RESULT:      -6.5      1.132      3.447
REMARK  4 active torsions:
REMARK  status: ('A' for Active; 'I' for Inactive)
REMARK    1  A    between atoms: C_7  and  C_2 
REMARK    2  A    between atoms: C_9  and  C_4 
REMARK    3  A    between atoms: C_15  and  C_7 
REMARK    4  A    between atoms: N_8  and  C_9 
ROOT
ATOM      1  C   UNL d   1     -47.110  13.222  23.183  0.00  0.00     0.108 A 
ATOM      2  C   UNL d   1     -47.358  14.520  22.960  0.00  0.00     0.139 A 
ATOM      3  O   UNL d   1     -47.691  13.812  23.247  0.00  0.00    -0.304 OA
ATOM      4  C   UNL d   1     -47.115  12.422  23.375  0.00  0.00     0.079 A 
ATOM      5  C   UNL d   1     -46.429  13.563  22.861  0.00  0.00     0.064 A 
ATOM      6  C   UNL d   1     -46.584  14.361  22.725  0.00  0.00     0.220 A 
ATOM      7  C   UNL d   1     -45.757  13.102  22.734  0.00  0.00     0.009 A 
ATOM      8  C   UNL d   1     -46.446  11.968  23.247  0.00  0.00     0.199 A 
ATOM      9  O   UNL d   1     -46.052  14.912  22.406  0.00  0.00    -0.284 OA
ATOM     10  C   UNL d   1     -45.765  12.300  22.928  0.00  0.00     0.042 A 
ATOM     11  O   UNL d   1     -46.455  11.166  23.442  0.00  0.00    -0.286 OA
ENDROOT
BRANCH   2  12
ATOM     12  C   UNL d   1     -47.743  15.251  22.922  0.00  0.00     0.028 C 
BRANCH  12  13
ATOM     13  C   UNL d   1     -48.560  15.286  22.801  0.00  0.00     0.002 A 
ATOM     14  C   UNL d   1     -49.061  15.425  23.441  0.00  0.00     0.000 A 
ATOM     15  C   UNL d   1     -49.876  15.461  23.328  0.00  0.00     0.000 A 
ATOM     16  C   UNL d   1     -50.192  15.358  22.567  0.00  0.00     0.000 A 
ATOM     17  C   UNL d   1     -49.690  15.219  21.927  0.00  0.00     0.000 A 
ATOM     18  C   UNL d   1     -51.008  15.394  22.450  0.00  0.00     0.000 C 
ATOM     19  C   UNL d   1     -48.873  15.183  22.047  0.00  0.00     0.000 A 
ENDBRANCH  12  13
ENDBRANCH   2  12
BRANCH   4  20
ATOM     20  C   UNL d   1     -47.789  12.084  23.694  0.00  0.00     0.086 C 
BRANCH  20  21
ATOM     21  N   UNL d   1     -48.497  11.934  23.282  0.00  0.00    -0.300 N 
ATOM     22  C   UNL d   1     -49.207  11.983  23.690  0.00  0.00     0.100 A 
ATOM     23  C   UNL d   1     -49.912  11.836  23.292  0.00  0.00     0.100 A 
ATOM     24  N   UNL d   1     -49.890  11.645  22.498  0.00  0.00    -0.299 N 
ATOM     25  C   UNL d   1     -49.174  11.601  22.105  0.00  0.00     0.100 A 
ATOM     26  C   UNL d   1     -50.586  11.500  22.100  0.00  0.00     0.100 C 
ATOM     27  C   UNL d   1     -48.481  11.746  22.504  0.00  0.00     0.100 A 
ENDBRANCH  20  21
ENDBRANCH   4  20
TORSDOF 4
ENDMDL
MODEL 3
REMARK VINA RESULT:      -5.9      1.943      4.702
REMARK  4 active torsions:
REMARK  status: ('A' for Active; 'I' for Inactive)
REMARK    1  A    between atoms: C_7  and  C_2 
REMARK    2  A    between atoms: C_9  and  C_4 
REMARK    3  A    between atoms: C_15  and  C_7 
REMARK    4  A    between atoms: N_8  and  C_9 
ROOT
ATOM      1  C   UNL d   1     -47.823  12.483  22.653  0.00  0.00     0.108 A 
ATOM      2  C   UNL d   1     -48.871  13.029  22.022  0.00  0.00     0.139 A 
ATOM      3  O   UNL d   1     -48.103  13.182  22.303  0.00  0.00    -0.304 OA
ATOM      4  C   UNL d   1     -47.110  12.299  23.021  0.00  0.00     0.079 A 
ATOM      5  C   UNL d   1     -48.412  11.907  22.586  0.00  0.00     0.064 A 
ATOM      6  C   UNL d   1     -49.056  12.244  22.197  0.00  0.00     0.220 A 
ATOM      7  C   UNL d   1     -48.285  11.150  22.888  0.00  0.00     0.009 A 
ATOM      8  C   UNL d   1     -46.989  11.546  23.319  0.00  0.00     0.199 A 
ATOM      9  O   UNL d   1     -49.768  11.862  22.014  0.00  0.00    -0.284 OA
ATOM     10  C   UNL d   1     -47.570  10.968  23.256  0.00  0.00     0.042 A 
ATOM     11  O   UNL d   1     -46.273  11.366  23.688  0.00  0.00    -0.286 OA
ENDROOT
BRANCH   2  12
ATOM     12  C   UNL d   1     -49.359  13.572  21.633  0.00  0.00     0.028 C 
BRANCH  12  13
ATOM     13  C   UNL d   1     -49.751  14.161  22.062  0.00  0.00     0.002 A 
ATOM     14  C   UNL d   1     -50.556  14.081  22.222  0.00  0.00     0.000 A 
ATOM     15  C   UNL d   1     -50.952  14.663  22.647  0.00  0.00     0.000 A 
ATOM     16  C   UNL d   1     -50.539  15.332  22.916  0.00  0.00     0.000 A 
ATOM     17  C   UNL d   1     -49.733  15.412  22.756  0.00  0.00     0.000 A 
ATOM     18  C   UNL d   1     -50.933  15.918  23.343  0.00  0.00     0.000 C 
ATOM     19  C   UNL d   1     -49.341  14.823  22.328  0.00  0.00     0.000 A 
ENDBRANCH  12  13
ENDBRANCH   2  12
BRANCH   4  20
ATOM     20  C   UNL d   1     -46.527  12.869  23.087  0.00  0.00     0.086 C 
BRANCH  20  21
ATOM     21  N   UNL d   1     -45.818  12.891  22.651  0.00  0.00    -0.300 N 
ATOM     22  C   UNL d   1     -45.251  12.317  22.795  0.00  0.00     0.100 A 
ATOM     23  C   UNL d   1     -44.546  12.329  22.369  0.00  0.00     0.100 A 
ATOM     24  N   UNL d   1     -44.429  12.915  21.811  0.00  0.00    -0.299 N 
ATOM     25  C   UNL d   1     -45.005  13.480  21.679  0.00  0.00     0.100 A 
ATOM     26  C   UNL d   1     -43.732  12.931  21.387  0.00  0.00     0.100 C 
ATOM     27  C   UNL d   1     -45.698  13.462  22.103  0.00  0.00     0.100 A 
ENDBRANCH  20  21
ENDBRANCH   4  20
TORSDOF 4
ENDMDL
MODEL 4
REMARK VINA RESULT:      -5.8      1.483      3.064
REMARK  4 active torsions:
REMARK  status: ('A' for Active; 'I' for Inactive)
REMARK    1  A    between atoms: C_7  and  C_2 
REMARK    2  A    between atoms: C_9  and  C_4 
REMARK    3  A    between atoms: C_15  and  C_7 
REMARK    4  A    between atoms: N_8  and  C_9 
ROOT
ATOM      1  C   UNL d   1     -48.893  12.174  23.680  0.00  0.00     0.108 A 
ATOM      2  C   UNL d   1     -47.558  12.064  23.676  0.00  0.00     0.139 A 
ATOM      3  O   UNL d   1     -48.186  12.610  23.672  0.00  0.00    -0.304 OA
ATOM      4  C   UNL d   1     -49.683  12.405  23.680  0.00  0.00     0.079 A 
ATOM      5  C   UNL d   1     -48.700  11.370  23.688  0.00  0.00     0.064 A 
ATOM      6  C   UNL d   1     -47.879  11.304  23.686  0.00  0.00     0.220 A 
ATOM      7  C   UNL d   1     -49.299  10.802  23.697  0.00  0.00     0.009 A 
ATOM      8  C   UNL d   1     -50.273  11.838  23.689  0.00  0.00     0.199 A 
ATOM      9  O   UNL d   1     -47.447  10.597  23.692  0.00  0.00    -0.284 OA
ATOM     10  C   UNL d   1     -50.089  11.037  23.698  0.00  0.00     0.042 A 
ATOM     11  O   UNL d   1     -51.064  12.075  23.689  0.00  0.00    -0.286 OA
ENDROOT
BRANCH   2  12
ATOM     12  C   UNL d   1     -46.754  12.257  23.670  0.00  0.00     0.028 C 
BRANCH  12  13
ATOM     13  C   UNL d   1     -46.488  12.926  23.264  0.00  0.00     0.002 A 
ATOM     14  C   UNL d   1     -46.618  13.675  23.582  0.00  0.00     0.000 A 
ATOM     15  C   UNL d   1     -46.356  14.346  23.183  0.00  0.00     0.000 A 
ATOM     16  C   UNL d   1     -45.960  14.265  22.457  0.00  0.00     0.000 A 
ATOM     17  C   UNL d   1     -45.829  13.516  22.139  0.00  0.00     0.000 A 
ATOM     18  C   UNL d   1     -45.696  14.935  22.054  0.00  0.00     0.000 C 
ATOM     19  C   UNL d   1     -46.095  12.846  22.545  0.00  0.00     0.000 A 
ENDBRANCH  12  13
ENDBRANCH   2  12
BRANCH   4  20
ATOM     20  C   UNL d   1     -49.873  13.201  23.671  0.00  0.00     0.086 C 
BRANCH  20  21
ATOM     21  N   UNL d   1     -50.115  13.634  23.003  0.00  0.00    -0.300 N 
ATOM     22  C   UNL d   1     -50.382  14.403  23.108  0.00  0.00     0.100 A 
ATOM     23  C   UNL d   1     -50.623  14.839  22.453  0.00  0.00     0.100 A 
ATOM     24  N   UNL d   1     -50.591  14.498  21.712  0.00  0.00    -0.299 N 
ATOM     25  C   UNL d   1     -50.322  13.730  21.623  0.00  0.00     0.100 A 
ATOM     26  C   UNL d   1     -50.829  14.927  21.061  0.00  0.00     0.100 C 
ATOM     27  C   UNL d   1     -50.085  13.304  22.274  0.00  0.00     0.100 A 
ENDBRANCH  20  21
ENDBRANCH   4  20
TORSDOF 4
ENDMDL
MODEL 5
REMARK VINA RESULT:      -4.0      1.409      3.688
REMARK  4 active torsions:
REMARK  status: ('A' for Active; 'I' for Inactive)
REMARK    1  A    between atoms: C_7  and  C_2 
REMARK    2  A    between atoms: C_9  and  C_4 
REMARK    3  A    between atoms: C_15  and  C_7 
REMARK    4  A    between atoms: N_8  and  C_9 
ROOT
ATOM      1  C   UNL d   1     -47.605  14.146  22.872  0.00  0.00     0.108 A 
ATOM      2  C   UNL d   1     -48.898  14.306  22.558  0.00  0.00     0.139 A 
ATOM      3  O   UNL d   1     -48.369  13.855  23.017  0.00  0.00    -0.304 OA
ATOM      4  C   UNL d   1     -46.868  13.925  23.163  0.00  0.00     0.079 A 
ATOM      5  C   UNL d   1     -47.664  14.769  22.331  0.00  0.00     0.064 A 
ATOM      6  C   UNL d   1     -48.460  14.865  22.139  0.00  0.00     0.220 A 
ATOM      7  C   UNL d   1     -46.986  15.167  22.084  0.00  0.00     0.009 A 
ATOM      8  C   UNL d   1     -46.197  14.323  22.914  0.00  0.00     0.199 A 
ATOM      9  O   UNL d   1     -48.770  15.428  21.615  0.00  0.00    -0.284 OA
ATOM     10  C   UNL d   1     -46.248  14.943  22.377  0.00  0.00     0.042 A 
ATOM     11  O   UNL d   1     -45.459  14.099  23.208  0.00  0.00    -0.286 OA
ENDROOT
BRANCH   2  12
ATOM     12  C   UNL d   1     -49.718  14.205  22.532  0.00  0.00     0.028 C 
BRANCH  12  13
ATOM     13  C   UNL d   1     -50.055  13.475  22.724  0.00  0.00     0.002 A 
ATOM     14  C   UNL d   1     -50.293  13.326  23.500  0.00  0.00     0.000 A 
ATOM     15  C   UNL d   1     -50.629  12.601  23.698  0.00  0.00     0.000 A 
ATOM     16  C   UNL d   1     -50.728  12.019  23.113  0.00  0.00     0.000 A 
ATOM     17  C   UNL d   1     -50.490  12.167  22.338  0.00  0.00     0.000 A 
ATOM     18  C   UNL d   1     -51.064  11.291  23.309  0.00  0.00     0.000 C 
ATOM     19  C   UNL d   1     -50.153  12.898  22.145  0.00  0.00     0.000 A 
ENDBRANCH  12  13
ENDBRANCH   2  12
BRANCH   4  20
ATOM     20  C   UNL d   1     -46.809  13.310  23.698  0.00  0.00     0.086 C 
BRANCH  20  21
ATOM     21  N   UNL d   1     -46.541  12.540  23.525  0.00  0.00    -0.300 N 
ATOM     22  C   UNL d   1     -47.076  11.920  23.562  0.00  0.00     0.100 A 
ATOM     23  C   UNL d   1     -46.821  11.156  23.393  0.00  0.00     0.100 A 
ATOM     24  N   UNL d   1     -46.039  11.032  23.191  0.00  0.00    -0.299 N 
ATOM     25  C   UNL d   1     -45.517  11.662  23.158  0.00  0.00     0.100 A 
ATOM     26  C   UNL d   1     -45.782  10.277  23.022  0.00  0.00     0.100 C 
ATOM     27  C   UNL d   1     -45.776  12.414  23.326  0.00  0.00     0.100 A 
ENDBRANCH  20  21
ENDBRANCH   4  20
TORSDOF 4
ENDMDL
