MODEL 1
REMARK VINA RESULT:      -1.7      0.000      0.000
REMARK  5 active torsions:
REMARK  status: ('A' for Active; 'I' for Inactive)
REMARK    1  A    between atoms: C_4  and  C_1 
REMARK    2  A    between atoms: C_8  and  C_4 
REMARK    3  A    between atoms: C_9  and  C_4 
REMARK    4  A    between atoms: N_5  and  C_9 
REMARK    5  A    between atoms: O_18  and  C_11 
ROOT
ATOM      1  C   UNL d   1      57.903   0.234  30.498  0.00  0.00     0.025 C 
ENDROOT
BRANCH   1   2
ATOM      2  C   UNL d   1      57.459  -0.300  30.952  0.00  0.00     0.021 A 
ATOM      3  C   UNL d   1      57.457  -1.145  30.880  0.00  0.00     0.082 A 
ATOM      4  N   UNL d   1      56.944  -1.445  31.434  0.00  0.00    -0.246 NA
ATOM      5  C   UNL d   1      57.905  -1.575  30.338  0.00  0.00     0.021 C 
ATOM      6  C   UNL d   1      56.612  -0.822  31.862  0.00  0.00     0.081 A 
ATOM      7  C   UNL d   1      56.930  -0.113  31.564  0.00  0.00     0.019 A 
ATOM      8  C   UNL d   1      56.070  -0.795  32.474  0.00  0.00     0.019 A 
ATOM      9  C   UNL d   1      56.703   0.612  31.882  0.00  0.00     0.002 A 
ATOM     10  C   UNL d   1      56.159   0.642  32.498  0.00  0.00     0.000 A 
ATOM     11  C   UNL d   1      55.835  -0.077  32.801  0.00  0.00     0.002 A 
ENDBRANCH   1   2
BRANCH   1  12
ATOM     12  C   UNL d   1      58.705   0.317  30.630  0.00  0.00     0.004 A 
ATOM     13  C   UNL d   1      59.264   0.132  30.049  0.00  0.00     0.028 A 
ATOM     14  C   UNL d   1      60.065   0.217  30.185  0.00  0.00     0.133 A 
ATOM     15  C   UNL d   1      60.332   0.490  30.910  0.00  0.00     0.218 A 
ATOM     16  C   UNL d   1      59.789   0.682  31.510  0.00  0.00     0.044 A 
ATOM     17  O   UNL d   1      61.133   0.578  31.059  0.00  0.00    -0.284 OA
ATOM     18  C   UNL d   1      58.988   0.597  31.373  0.00  0.00     0.004 A 
BRANCH  14  19
ATOM     19  O   UNL d   1      60.604   0.025  29.586  0.00  0.00    -0.325 OA
ATOM     20  C   UNL d   1      60.775  -0.765  29.449  0.00  0.00     0.181 C 
ENDBRANCH  14  19
ENDBRANCH   1  12
BRANCH   1  21
ATOM     21  C   UNL d   1      57.521   0.682  29.907  0.00  0.00     0.148 C 
BRANCH  21  22
ATOM     22  N   UNL d   1      57.537   0.414  29.127  0.00  0.00    -0.112 N 
ATOM     23  O   UNL d   1      56.891   0.030  28.809  0.00  0.00    -0.532 OA
ATOM     24  O   UNL d   1      58.223   0.540  28.670  0.00  0.00    -0.532 OA
ENDBRANCH  21  22
ENDBRANCH   1  21
TORSDOF 5
ENDMDL
MODEL 2
REMARK VINA RESULT:      -1.1      1.346      2.217
REMARK  5 active torsions:
REMARK  status: ('A' for Active; 'I' for Inactive)
REMARK    1  A    between atoms: C_4  and  C_1 
REMARK    2  A    between atoms: C_8  and  C_4 
REMARK    3  A    between atoms: C_9  and  C_4 
REMARK    4  A    between atoms: N_5  and  C_9 
REMARK    5  A    between atoms: O_18  and  C_11 
ROOT
ATOM      1  C   UNL d   1      57.462   0.164  31.746  0.00  0.00     0.025 C 
ENDROOT
BRANCH   1   2
ATOM      2  C   UNL d   1      56.885  -0.340  32.065  0.00  0.00     0.021 A 
ATOM      3  C   UNL d   1      56.803  -1.172  31.917  0.00  0.00     0.082 A 
ATOM      4  N   UNL d   1      56.165  -1.442  32.342  0.00  0.00    -0.246 NA
ATOM      5  C   UNL d   1      57.292  -1.615  31.425  0.00  0.00     0.021 C 
ATOM      6  C   UNL d   1      55.831  -0.814  32.760  0.00  0.00     0.081 A 
ATOM      7  C   UNL d   1      56.276  -0.132  32.589  0.00  0.00     0.019 A 
ATOM      8  C   UNL d   1      55.192  -0.762  33.268  0.00  0.00     0.019 A 
ATOM      9  C   UNL d   1      56.077   0.592  32.928  0.00  0.00     0.002 A 
ATOM     10  C   UNL d   1      55.434   0.647  33.440  0.00  0.00     0.000 A 
ATOM     11  C   UNL d   1      54.982  -0.045  33.613  0.00  0.00     0.002 A 
ENDBRANCH   1   2
BRANCH   1  12
ATOM     12  C   UNL d   1      57.621   0.150  30.945  0.00  0.00     0.004 A 
ATOM     13  C   UNL d   1      58.167  -0.378  30.618  0.00  0.00     0.028 A 
ATOM     14  C   UNL d   1      58.324  -0.389  29.816  0.00  0.00     0.133 A 
ATOM     15  C   UNL d   1      57.937   0.131  29.315  0.00  0.00     0.218 A 
ATOM     16  C   UNL d   1      57.383   0.671  29.620  0.00  0.00     0.044 A 
ATOM     17  O   UNL d   1      58.086   0.130  28.509  0.00  0.00    -0.284 OA
ATOM     18  C   UNL d   1      57.227   0.681  30.422  0.00  0.00     0.004 A 
BRANCH  14  19
ATOM     19  O   UNL d   1      58.877  -0.928  29.515  0.00  0.00    -0.325 OA
ATOM     20  C   UNL d   1      59.634  -0.663  29.348  0.00  0.00     0.181 C 
ENDBRANCH  14  19
ENDBRANCH   1  12
BRANCH   1  21
ATOM     21  C   UNL d   1      57.874   0.682  32.253  0.00  0.00     0.148 C 
BRANCH  21  22
ATOM     22  N   UNL d   1      58.663   0.522  32.433  0.00  0.00    -0.112 N 
ATOM     23  O   UNL d   1      58.868   0.233  33.169  0.00  0.00    -0.532 OA
ATOM     24  O   UNL d   1      59.247   0.660  31.854  0.00  0.00    -0.532 OA
ENDBRANCH  21  22
ENDBRANCH   1  21
TORSDOF 5
ENDMDL
MODEL 3
REMARK VINA RESULT:      -1.1      1.703      3.673
REMARK  5 active torsions:
REMARK  status: ('A' for Active; 'I' for Inactive)
REMARK    1  A    between atoms: C_4  and  C_1 
REMARK    2  A    between atoms: C_8  and  C_4 
REMARK    3  A    between atoms: C_9  and  C_4 
REMARK    4  A    between atoms: N_5  and  C_9 
REMARK    5  A    between atoms: O_18  and  C_11 
ROOT
ATOM      1  C   UNL d   1      58.341   0.091  30.489  0.00  0.00     0.025 C 
ENDROOT
BRANCH   1   2
ATOM      2  C   UNL d   1      58.380  -0.335  29.778  0.00  0.00     0.021 A 
ATOM      3  C   UNL d   1      58.135  -0.063  29.012  0.00  0.00     0.082 A 
ATOM      4  N   UNL d   1      58.272  -0.659  28.477  0.00  0.00    -0.246 NA
ATOM      5  C   UNL d   1      57.814   0.679  28.854  0.00  0.00     0.021 C 
ATOM      6  C   UNL d   1      58.598  -1.307  28.870  0.00  0.00     0.081 A 
ATOM      7  C   UNL d   1      58.665  -1.107  29.675  0.00  0.00     0.019 A 
ATOM      8  C   UNL d   1      58.842  -2.045  28.616  0.00  0.00     0.019 A 
ATOM      9  C   UNL d   1      58.975  -1.647  30.215  0.00  0.00     0.002 A 
ATOM     10  C   UNL d   1      59.221  -2.391  29.962  0.00  0.00     0.000 A 
ATOM     11  C   UNL d   1      59.153  -2.594  29.144  0.00  0.00     0.002 A 
ENDBRANCH   1   2
BRANCH   1  12
ATOM     12  C   UNL d   1      57.680   0.033  30.966  0.00  0.00     0.004 A 
ATOM     13  C   UNL d   1      57.514  -0.650  31.401  0.00  0.00     0.028 A 
ATOM     14  C   UNL d   1      56.852  -0.704  31.877  0.00  0.00     0.133 A 
ATOM     15  C   UNL d   1      56.334  -0.071  31.932  0.00  0.00     0.218 A 
ATOM     16  C   UNL d   1      56.480   0.627  31.505  0.00  0.00     0.044 A 
ATOM     17  O   UNL d   1      55.667  -0.113  32.406  0.00  0.00    -0.284 OA
ATOM     18  C   UNL d   1      57.142   0.679  31.029  0.00  0.00     0.004 A 
BRANCH  14  19
ATOM     19  O   UNL d   1      56.710  -1.401  32.302  0.00  0.00    -0.325 OA
ATOM     20  C   UNL d   1      56.176  -1.380  32.924  0.00  0.00     0.181 C 
ENDBRANCH  14  19
ENDBRANCH   1  12
BRANCH   1  21
ATOM     21  C   UNL d   1      58.983   0.576  30.709  0.00  0.00     0.148 C 
BRANCH  21  22
ATOM     22  N   UNL d   1      59.359   0.440  31.430  0.00  0.00    -0.112 N 
ATOM     23  O   UNL d   1      60.090   0.078  31.454  0.00  0.00    -0.532 OA
ATOM     24  O   UNL d   1      58.981   0.679  32.134  0.00  0.00    -0.532 OA
ENDBRANCH  21  22
ENDBRANCH   1  21
TORSDOF 5
ENDMDL
MODEL 4
REMARK VINA RESULT:      -0.3      1.655      3.546
REMARK  5 active torsions:
REMARK  status: ('A' for Active; 'I' for Inactive)
REMARK    1  A    between atoms: C_4  and  C_1 
REMARK    2  A    between atoms: C_8  and  C_4 
REMARK    3  A    between atoms: C_9  and  C_4 
REMARK    4  A    between atoms: N_5  and  C_9 
REMARK    5  A    between atoms: O_18  and  C_11 
ROOT
ATOM      1  C   UNL d   1      58.695  -0.077  30.029  0.00  0.00     0.025 C 
ENDROOT
BRANCH   1   2
ATOM      2  C   UNL d   1      59.446  -0.424  30.087  0.00  0.00     0.021 A 
ATOM      3  C   UNL d   1      60.141  -0.074  30.425  0.00  0.00     0.082 A 
ATOM      4  N   UNL d   1      60.749  -0.608  30.364  0.00  0.00    -0.246 NA
ATOM      5  C   UNL d   1      60.177   0.681  30.755  0.00  0.00     0.021 C 
ATOM      6  C   UNL d   1      60.472  -1.294  29.997  0.00  0.00     0.081 A 
ATOM      7  C   UNL d   1      59.666  -1.180  29.826  0.00  0.00     0.019 A 
ATOM      8  C   UNL d   1      60.832  -2.000  29.796  0.00  0.00     0.019 A 
ATOM      9  C   UNL d   1      59.231  -1.774  29.455  0.00  0.00     0.002 A 
ATOM     10  C   UNL d   1      59.590  -2.486  29.251  0.00  0.00     0.000 A 
ATOM     11  C   UNL d   1      60.409  -2.601  29.425  0.00  0.00     0.002 A 
ENDBRANCH   1   2
BRANCH   1  12
ATOM     12  C   UNL d   1      58.145  -0.188  30.623  0.00  0.00     0.004 A 
ATOM     13  C   UNL d   1      58.129   0.289  31.298  0.00  0.00     0.028 A 
ATOM     14  C   UNL d   1      57.577   0.174  31.890  0.00  0.00     0.133 A 
ATOM     15  C   UNL d   1      57.022  -0.425  31.823  0.00  0.00     0.218 A 
ATOM     16  C   UNL d   1      57.018  -0.918  31.154  0.00  0.00     0.044 A 
ATOM     17  O   UNL d   1      56.464  -0.549  32.411  0.00  0.00    -0.284 OA
ATOM     18  C   UNL d   1      57.570  -0.802  30.563  0.00  0.00     0.004 A 
BRANCH  14  19
ATOM     19  O   UNL d   1      57.584   0.668  32.556  0.00  0.00    -0.325 OA
ATOM     20  C   UNL d   1      57.994   0.423  33.222  0.00  0.00     0.181 C 
ENDBRANCH  14  19
ENDBRANCH   1  12
BRANCH   1  21
ATOM     21  C   UNL d   1      58.510   0.386  29.360  0.00  0.00     0.148 C 
BRANCH  21  22
ATOM     22  N   UNL d   1      57.893   0.148  28.867  0.00  0.00    -0.112 N 
ATOM     23  O   UNL d   1      57.316   0.680  28.643  0.00  0.00    -0.532 OA
ATOM     24  O   UNL d   1      57.867  -0.642  28.602  0.00  0.00    -0.532 OA
ENDBRANCH  21  22
ENDBRANCH   1  21
TORSDOF 5
ENDMDL
MODEL 5
REMARK VINA RESULT:       1.3      2.764      4.774
REMARK  5 active torsions:
REMARK  status: ('A' for Active; 'I' for Inactive)
REMARK    1  A    between atoms: C_4  and  C_1 
REMARK    2  A    between atoms: C_8  and  C_4 
REMARK    3  A    between atoms: C_9  and  C_4 
REMARK    4  A    between atoms: N_5  and  C_9 
REMARK    5  A    between atoms: O_18  and  C_11 
ROOT
ATOM      1  C   UNL d   1      56.382  -0.628  32.789  0.00  0.00     0.025 C 
ENDROOT
BRANCH   1   2
ATOM      2  C   UNL d   1      57.016  -0.157  32.537  0.00  0.00     0.021 A 
ATOM      3  C   UNL d   1      57.527   0.308  33.029  0.00  0.00     0.082 A 
ATOM      4  N   UNL d   1      58.069   0.679  32.551  0.00  0.00    -0.246 NA
ATOM      5  C   UNL d   1      57.472   0.363  33.849  0.00  0.00     0.021 C 
ATOM      6  C   UNL d   1      57.926   0.471  31.765  0.00  0.00     0.081 A 
ATOM      7  C   UNL d   1      57.275  -0.046  31.756  0.00  0.00     0.019 A 
ATOM      8  C   UNL d   1      58.291   0.675  31.062  0.00  0.00     0.019 A 
ATOM      9  C   UNL d   1      56.996  -0.353  31.044  0.00  0.00     0.002 A 
ATOM     10  C   UNL d   1      57.361  -0.150  30.334  0.00  0.00     0.000 A 
ATOM     11  C   UNL d   1      58.022   0.376  30.344  0.00  0.00     0.002 A 
ENDBRANCH   1   2
BRANCH   1  12
ATOM     12  C   UNL d   1      55.781  -0.302  33.236  0.00  0.00     0.004 A 
ATOM     13  C   UNL d   1      55.913  -0.009  33.998  0.00  0.00     0.028 A 
ATOM     14  C   UNL d   1      55.309   0.316  34.441  0.00  0.00     0.133 A 
ATOM     15  C   UNL d   1      54.550   0.358  34.135  0.00  0.00     0.218 A 
ATOM     16  C   UNL d   1      54.392   0.070  33.371  0.00  0.00     0.044 A 
ATOM     17  O   UNL d   1      53.937   0.682  34.570  0.00  0.00    -0.284 OA
ATOM     18  C   UNL d   1      54.997  -0.255  32.927  0.00  0.00     0.004 A 
BRANCH  14  19
ATOM     19  O   UNL d   1      55.469   0.602  35.202  0.00  0.00    -0.325 OA
ATOM     20  C   UNL d   1      55.169   0.195  35.847  0.00  0.00     0.181 C 
ENDBRANCH  14  19
ENDBRANCH   1  12
BRANCH   1  21
ATOM     21  C   UNL d   1      56.367  -1.435  32.580  0.00  0.00     0.148 C 
BRANCH  21  22
ATOM     22  N   UNL d   1      56.078  -1.984  33.124  0.00  0.00    -0.112 N 
ATOM     23  O   UNL d   1      55.321  -2.281  33.049  0.00  0.00    -0.532 OA
ATOM     24  O   UNL d   1      56.570  -2.230  33.751  0.00  0.00    -0.532 OA
ENDBRANCH  21  22
ENDBRANCH   1  21
TORSDOF 5
ENDMDL
