MODEL 1
REMARK VINA RESULT:      78.3      0.000      0.000
REMARK  7 active torsions:
REMARK  status: ('A' for Active; 'I' for Inactive)
REMARK    1  A    between atoms: N_3  and  S_1 
REMARK    2  A    between atoms: C_7  and  S_1 
REMARK    3  A    between atoms: N_2  and  C_6 
REMARK    4  A    between atoms: C_5  and  N_3 
REMARK    5  A    between atoms: C_10  and  N_4 
REMARK    6  A    between atoms: C_6  and  C_5 
REMARK    7  A    between atoms: C_11  and  C_6 
ROOT
ATOM      1  C   UNL d   1      14.486  15.370  -3.405  0.00  0.00     0.086 C 
ENDROOT
BRANCH   1   2
ATOM      2  N   UNL d   1      14.475  16.090  -3.838  0.00  0.00    -0.300 N 
ATOM      3  C   UNL d   1      13.792  16.323  -4.247  0.00  0.00     0.100 A 
ATOM      4  C   UNL d   1      13.784  17.029  -4.670  0.00  0.00     0.100 A 
ATOM      5  N   UNL d   1      14.456  17.504  -4.686  0.00  0.00    -0.301 N 
ATOM      6  C   UNL d   1      15.139  17.272  -4.278  0.00  0.00     0.100 A 
ATOM      7  C   UNL d   1      15.147  16.565  -3.854  0.00  0.00     0.100 A 
BRANCH   5   8
ATOM      8  C   UNL d   1      14.448  18.210  -5.109  0.00  0.00     0.064 A 
ATOM      9  C   UNL d   1      15.111  18.700  -5.101  0.00  0.00     0.020 A 
ATOM     10  C   UNL d   1      15.105  19.409  -5.526  0.00  0.00     0.031 A 
ATOM     11  C   UNL d   1      14.435  19.626  -5.956  0.00  0.00     0.140 A 
ATOM     12  C   UNL d   1      13.772  19.134  -5.963  0.00  0.00     0.031 A 
ATOM     13  F   UNL d   1      14.422  20.343  -6.388  0.00  0.00    -0.204 F 
ATOM     14  C   UNL d   1      13.779  18.427  -5.540  0.00  0.00     0.020 A 
ENDBRANCH   5   8
ENDBRANCH   1   2
BRANCH   1  15
ATOM     15  C   UNL d   1      14.925  15.308  -2.703  0.00  0.00     0.130 C 
BRANCH  15  16
ATOM     16  N   UNL d   1      14.549  15.072  -1.996  0.00  0.00    -0.155 NA
BRANCH  16  17
ATOM     17  S   UNL d   1      14.809  15.356  -1.274  0.00  0.00     0.285 S 
ATOM     18  O   UNL d   1      15.073  15.645  -0.538  0.00  0.00    -0.198 OA
ATOM     19  O   UNL d   1      14.838  16.124  -1.580  0.00  0.00    -0.198 OA
BRANCH  17  20
ATOM     20  C   UNL d   1      14.782  14.583  -0.961  0.00  0.00     0.105 A 
ATOM     21  C   UNL d   1      14.179  14.377  -0.437  0.00  0.00     0.015 A 
ATOM     22  C   UNL d   1      14.146  13.616  -0.125  0.00  0.00     0.030 A 
ATOM     23  C   UNL d   1      14.727  13.052  -0.341  0.00  0.00     0.140 A 
ATOM     24  C   UNL d   1      15.331  13.263  -0.869  0.00  0.00     0.030 A 
ATOM     25  F   UNL d   1      14.708  12.268  -0.030  0.00  0.00    -0.204 F 
ATOM     26  C   UNL d   1      15.357  14.031  -1.178  0.00  0.00     0.015 A 
ENDBRANCH  17  20
ENDBRANCH  16  17
ENDBRANCH  15  16
ENDBRANCH   1  15
BRANCH   1  27
ATOM     27  C   UNL d   1      14.054  14.715  -3.685  0.00  0.00     0.037 A 
ATOM     28  C   UNL d   1      14.427  14.165  -4.171  0.00  0.00     0.100 A 
ATOM     29  N   UNL d   1      14.005  13.514  -4.452  0.00  0.00    -0.242 NA
ATOM     30  C   UNL d   1      13.211  13.421  -4.242  0.00  0.00     0.099 A 
ATOM     31  C   UNL d   1      12.838  13.970  -3.756  0.00  0.00     0.021 A 
ATOM     32  C   UNL d   1      13.263  14.620  -3.477  0.00  0.00     0.005 A 
ENDBRANCH   1  27
TORSDOF 7
ENDMDL
