MODEL 1
REMARK VINA RESULT:      -2.6      0.000      0.000
REMARK  3 active torsions:
REMARK  status: ('A' for Active; 'I' for Inactive)
REMARK    1  A    between atoms: C_6  and  C_2 
REMARK       I    between atoms: N_8  and  C_6 
REMARK    2  A    between atoms: C_14  and  N_8 
REMARK    3  A    between atoms: C_15  and  C_14 
ROOT
ATOM      1  N   UNL d   1      30.019  16.054 -23.654  0.00  0.00    -0.252 N 
ATOM      2  C   UNL d   1      31.265  16.322 -24.292  0.00  0.00     0.133 A 
ATOM      3  C   UNL d   1      30.832  15.943 -23.702  0.00  0.00     0.272 A 
ATOM      4  C   UNL d   1      29.636  16.544 -24.196  0.00  0.00     0.182 A 
ATOM      5  N   UNL d   1      30.067  16.924 -24.786  0.00  0.00    -0.220 NA
ATOM      6  C   UNL d   1      30.882  16.812 -24.834  0.00  0.00     0.111 A 
ATOM      7  S   UNL d   1      28.827  16.550 -24.014  0.00  0.00    -0.048 SA
ATOM      8  O   UNL d   1      31.215  15.453 -23.160  0.00  0.00    -0.266 OA
ATOM      9  C   UNL d   1      29.445  15.757 -23.138  0.00  0.00     0.092 A 
ATOM     10  C   UNL d   1      28.715  16.066 -23.364  0.00  0.00     0.057 A 
ENDROOT
BRANCH   2  11
ATOM     11  C   UNL d   1      32.090  16.213 -24.345  0.00  0.00     0.285 C 
ATOM     12  N   UNL d   1      32.597  16.857 -24.241  0.00  0.00    -0.208 NA
ATOM     13  O   UNL d   1      32.392  15.462 -24.503  0.00  0.00    -0.265 OA
BRANCH  12  14
ATOM     14  C   UNL d   1      32.290  17.608 -24.084  0.00  0.00     0.085 C 
ATOM     15  C   UNL d   1      31.970  18.063 -24.700  0.00  0.00     0.021 C 
BRANCH  14  16
ATOM     16  C   UNL d   1      32.303  17.902 -23.316  0.00  0.00     0.019 C 
ATOM     17  C   UNL d   1      32.750  18.576 -23.136  0.00  0.00     0.002 C 
ENDBRANCH  14  16
ENDBRANCH  12  14
ENDBRANCH   2  11
TORSDOF 3
ENDMDL
MODEL 2
REMARK VINA RESULT:      -2.5      1.405      2.880
REMARK  3 active torsions:
REMARK  status: ('A' for Active; 'I' for Inactive)
REMARK    1  A    between atoms: C_6  and  C_2 
REMARK       I    between atoms: N_8  and  C_6 
REMARK    2  A    between atoms: C_14  and  N_8 
REMARK    3  A    between atoms: C_15  and  C_14 
ROOT
ATOM      1  N   UNL d   1      32.702  17.420 -23.344  0.00  0.00    -0.252 N 
ATOM      2  C   UNL d   1      31.926  16.635 -24.244  0.00  0.00     0.133 A 
ATOM      3  C   UNL d   1      32.493  16.686 -23.650  0.00  0.00     0.272 A 
ATOM      4  C   UNL d   1      32.344  18.105 -23.633  0.00  0.00     0.182 A 
ATOM      5  N   UNL d   1      31.777  18.055 -24.227  0.00  0.00    -0.220 NA
ATOM      6  C   UNL d   1      31.568  17.320 -24.533  0.00  0.00     0.111 A 
ATOM      7  S   UNL d   1      32.661  18.755 -23.226  0.00  0.00    -0.048 SA
ATOM      8  O   UNL d   1      32.851  16.001 -23.361  0.00  0.00    -0.266 OA
ATOM      9  C   UNL d   1      33.240  17.647 -22.759  0.00  0.00     0.092 A 
ATOM     10  C   UNL d   1      33.210  18.468 -22.691  0.00  0.00     0.057 A 
ENDROOT
BRANCH   2  11
ATOM     11  C   UNL d   1      31.709  15.893 -24.558  0.00  0.00     0.285 C 
ATOM     12  N   UNL d   1      30.943  15.605 -24.443  0.00  0.00    -0.208 NA
ATOM     13  O   UNL d   1      32.263  15.453 -24.982  0.00  0.00    -0.265 OA
BRANCH  12  14
ATOM     14  C   UNL d   1      30.391  16.049 -24.018  0.00  0.00     0.085 C 
ATOM     15  C   UNL d   1      30.000  16.684 -24.382  0.00  0.00     0.021 C 
BRANCH  14  16
ATOM     16  C   UNL d   1      30.231  15.859 -23.233  0.00  0.00     0.019 C 
ATOM     17  C   UNL d   1      29.471  15.614 -23.013  0.00  0.00     0.002 C 
ENDBRANCH  14  16
ENDBRANCH  12  14
ENDBRANCH   2  11
TORSDOF 3
ENDMDL
MODEL 3
REMARK VINA RESULT:      -1.9      1.518      3.028
REMARK  3 active torsions:
REMARK  status: ('A' for Active; 'I' for Inactive)
REMARK    1  A    between atoms: C_6  and  C_2 
REMARK       I    between atoms: N_8  and  C_6 
REMARK    2  A    between atoms: C_14  and  N_8 
REMARK    3  A    between atoms: C_15  and  C_14 
ROOT
ATOM      1  N   UNL d   1      32.727  17.971 -23.764  0.00  0.00    -0.252 N 
ATOM      2  C   UNL d   1      32.256  16.638 -23.942  0.00  0.00     0.133 A 
ATOM      3  C   UNL d   1      32.513  17.243 -23.446  0.00  0.00     0.272 A 
ATOM      4  C   UNL d   1      32.686  18.095 -24.578  0.00  0.00     0.182 A 
ATOM      5  N   UNL d   1      32.430  17.490 -25.075  0.00  0.00    -0.220 NA
ATOM      6  C   UNL d   1      32.215  16.762 -24.757  0.00  0.00     0.111 A 
ATOM      7  S   UNL d   1      32.934  18.871 -24.735  0.00  0.00    -0.048 SA
ATOM      8  O   UNL d   1      32.554  17.119 -22.632  0.00  0.00    -0.266 OA
ATOM      9  C   UNL d   1      33.000  18.671 -23.418  0.00  0.00     0.092 A 
ATOM     10  C   UNL d   1      33.125  19.219 -24.021  0.00  0.00     0.057 A 
ENDROOT
BRANCH   2  11
ATOM     11  C   UNL d   1      32.037  15.898 -23.626  0.00  0.00     0.285 C 
ATOM     12  N   UNL d   1      31.268  15.616 -23.733  0.00  0.00    -0.208 NA
ATOM     13  O   UNL d   1      32.592  15.453 -23.209  0.00  0.00    -0.265 OA
BRANCH  12  14
ATOM     14  C   UNL d   1      30.715  16.065 -24.152  0.00  0.00     0.085 C 
ATOM     15  C   UNL d   1      30.760  16.114 -24.980  0.00  0.00     0.021 C 
BRANCH  14  16
ATOM     16  C   UNL d   1      30.120  16.463 -23.746  0.00  0.00     0.019 C 
ATOM     17  C   UNL d   1      29.325  16.264 -23.875  0.00  0.00     0.002 C 
ENDBRANCH  14  16
ENDBRANCH  12  14
ENDBRANCH   2  11
TORSDOF 3
ENDMDL
MODEL 4
REMARK VINA RESULT:      -1.9      1.652      3.131
REMARK  3 active torsions:
REMARK  status: ('A' for Active; 'I' for Inactive)
REMARK    1  A    between atoms: C_6  and  C_2 
REMARK       I    between atoms: N_8  and  C_6 
REMARK    2  A    between atoms: C_14  and  N_8 
REMARK    3  A    between atoms: C_15  and  C_14 
ROOT
ATOM      1  N   UNL d   1      32.018  16.697 -24.175  0.00  0.00    -0.252 N 
ATOM      2  C   UNL d   1      30.691  16.867 -24.666  0.00  0.00     0.133 A 
ATOM      3  C   UNL d   1      31.344  17.161 -24.258  0.00  0.00     0.272 A 
ATOM      4  C   UNL d   1      32.041  15.939 -24.499  0.00  0.00     0.182 A 
ATOM      5  N   UNL d   1      31.390  15.644 -24.907  0.00  0.00    -0.220 NA
ATOM      6  C   UNL d   1      30.714  16.109 -24.990  0.00  0.00     0.111 A 
ATOM      7  S   UNL d   1      32.782  15.607 -24.330  0.00  0.00    -0.048 SA
ATOM      8  O   UNL d   1      31.321  17.919 -23.934  0.00  0.00    -0.266 OA
ATOM      9  C   UNL d   1      32.745  16.833 -23.805  0.00  0.00     0.092 A 
ATOM     10  C   UNL d   1      33.210  16.159 -23.904  0.00  0.00     0.057 A 
ENDROOT
BRANCH   2  11
ATOM     11  C   UNL d   1      30.005  17.332 -24.754  0.00  0.00     0.285 C 
ATOM     12  N   UNL d   1      29.275  17.041 -24.497  0.00  0.00    -0.208 NA
ATOM     13  O   UNL d   1      30.061  18.080 -25.097  0.00  0.00    -0.265 OA
BRANCH  12  14
ATOM     14  C   UNL d   1      29.223  16.292 -24.153  0.00  0.00     0.085 C 
ATOM     15  C   UNL d   1      29.257  15.613 -24.631  0.00  0.00     0.021 C 
BRANCH  14  16
ATOM     16  C   UNL d   1      29.139  16.221 -23.338  0.00  0.00     0.019 C 
ATOM     17  C   UNL d   1      28.444  15.900 -23.019  0.00  0.00     0.002 C 
ENDBRANCH  14  16
ENDBRANCH  12  14
ENDBRANCH   2  11
TORSDOF 3
ENDMDL
