MODEL 1
REMARK VINA RESULT:      -3.0      0.000      0.000
REMARK  8 active torsions:
REMARK  status: ('A' for Active; 'I' for Inactive)
REMARK    1  A    between atoms: N_2  and  S_1 
REMARK    2  A    between atoms: C_3  and  S_1 
REMARK    3  A    between atoms: C_4  and  C_7 
REMARK    4  A    between atoms: O_17  and  C_4 
REMARK    5  A    between atoms: C_23  and  O_17 
REMARK    6  A    between atoms: C_18  and  C_24 
REMARK    7  A    between atoms: C_27  and  C_23 
REMARK    8  A    between atoms: C_24  and  C_27 
ROOT
ATOM      1  C   UNL d   1      32.940  21.433 -21.291  0.00  0.00     0.104 A 
ATOM      2  C   UNL d   1      33.012  20.415 -22.577  0.00  0.00     0.064 A 
ATOM      3  C   UNL d   1      33.199  21.696 -22.019  0.00  0.00     0.013 A 
ATOM      4  C   UNL d   1      32.710  20.637 -21.203  0.00  0.00     0.013 A 
ATOM      5  C   UNL d   1      33.241  21.206 -22.667  0.00  0.00     0.006 A 
ATOM      6  C   UNL d   1      32.748  20.134 -21.846  0.00  0.00     0.006 A 
ENDROOT
BRANCH   2   7
ATOM      7  C   UNL d   1      33.054  19.916 -23.235  0.00  0.00     0.300 C 
ATOM      8  O   UNL d   1      33.241  20.274 -23.970  0.00  0.00    -0.259 OA
BRANCH   7   9
ATOM      9  O   UNL d   1      32.927  19.130 -23.196  0.00  0.00    -0.271 OA
BRANCH   9  10
ATOM     10  C   UNL d   1      32.779  18.673 -23.867  0.00  0.00     0.126 C 
BRANCH  10  11
ATOM     11  C   UNL d   1      32.572  17.871 -23.826  0.00  0.00     0.027 C 
BRANCH  11  12
ATOM     12  C   UNL d   1      32.155  17.514 -24.421  0.00  0.00     0.002 C 
BRANCH  12  13
ATOM     13  C   UNL d   1      31.621  16.894 -24.254  0.00  0.00     0.003 A 
ATOM     14  C   UNL d   1      30.818  17.045 -24.258  0.00  0.00     0.021 A 
ATOM     15  C   UNL d   1      30.288  16.443 -24.095  0.00  0.00     0.099 A 
ATOM     16  N   UNL d   1      30.563  15.676 -23.925  0.00  0.00    -0.242 NA
ATOM     17  C   UNL d   1      31.366  15.528 -23.921  0.00  0.00     0.099 A 
ATOM     18  C   UNL d   1      31.882  16.151 -24.088  0.00  0.00     0.021 A 
ENDBRANCH  12  13
ENDBRANCH  11  12
ENDBRANCH  10  11
ENDBRANCH   9  10
ENDBRANCH   7   9
ENDBRANCH   2   7
BRANCH   1  19
ATOM     19  S   UNL d   1      32.904  21.950 -20.640  0.00  0.00     0.272 S 
ATOM     20  O   UNL d   1      32.993  22.608 -21.149  0.00  0.00    -0.200 OA
ATOM     21  O   UNL d   1      32.814  21.308 -20.107  0.00  0.00    -0.200 OA
BRANCH  19  22
ATOM     22  N   UNL d   1      32.867  22.461 -19.980  0.00  0.00    -0.225 N 
ATOM     23  C   UNL d   1      33.241  22.278 -19.278  0.00  0.00     0.118 A 
ATOM     24  C   UNL d   1      33.189  22.803 -18.635  0.00  0.00     0.142 A 
ATOM     25  O   UNL d   1      32.766  23.503 -18.700  0.00  0.00    -0.300 OA
ATOM     26  C   UNL d   1      32.390  23.683 -19.414  0.00  0.00     0.142 A 
ATOM     27  C   UNL d   1      32.428  23.186 -20.050  0.00  0.00     0.118 A 
ENDBRANCH  19  22
ENDBRANCH   1  19
TORSDOF 8
ENDMDL
MODEL 2
REMARK VINA RESULT:      -2.4      1.007      1.540
REMARK  8 active torsions:
REMARK  status: ('A' for Active; 'I' for Inactive)
REMARK    1  A    between atoms: N_2  and  S_1 
REMARK    2  A    between atoms: C_3  and  S_1 
REMARK    3  A    between atoms: C_4  and  C_7 
REMARK    4  A    between atoms: O_17  and  C_4 
REMARK    5  A    between atoms: C_23  and  O_17 
REMARK    6  A    between atoms: C_18  and  C_24 
REMARK    7  A    between atoms: C_27  and  C_23 
REMARK    8  A    between atoms: C_24  and  C_27 
ROOT
ATOM      1  C   UNL d   1      32.782  22.018 -20.229  0.00  0.00     0.104 A 
ATOM      2  C   UNL d   1      32.953  21.190 -21.637  0.00  0.00     0.064 A 
ATOM      3  C   UNL d   1      33.141  21.285 -20.243  0.00  0.00     0.013 A 
ATOM      4  C   UNL d   1      32.500  22.347 -20.940  0.00  0.00     0.013 A 
ATOM      5  C   UNL d   1      33.234  20.860 -20.931  0.00  0.00     0.006 A 
ATOM      6  C   UNL d   1      32.587  21.931 -21.638  0.00  0.00     0.006 A 
ENDROOT
BRANCH   2   7
ATOM      7  C   UNL d   1      33.047  20.760 -22.336  0.00  0.00     0.300 C 
ATOM      8  O   UNL d   1      33.230  21.199 -23.028  0.00  0.00    -0.259 OA
BRANCH   7   9
ATOM      9  O   UNL d   1      32.973  19.967 -22.376  0.00  0.00    -0.271 OA
BRANCH   9  10
ATOM     10  C   UNL d   1      33.102  19.546 -23.073  0.00  0.00     0.126 C 
BRANCH  10  11
ATOM     11  C   UNL d   1      32.980  18.728 -23.132  0.00  0.00     0.027 C 
BRANCH  11  12
ATOM     12  C   UNL d   1      32.608  18.404 -23.774  0.00  0.00     0.002 C 
BRANCH  12  13
ATOM     13  C   UNL d   1      32.450  17.584 -23.805  0.00  0.00     0.003 A 
ATOM     14  C   UNL d   1      31.780  17.320 -24.189  0.00  0.00     0.021 A 
ATOM     15  C   UNL d   1      31.618  16.518 -24.224  0.00  0.00     0.099 A 
ATOM     16  N   UNL d   1      32.134  15.969 -23.868  0.00  0.00    -0.242 NA
ATOM     17  C   UNL d   1      32.803  16.237 -23.485  0.00  0.00     0.099 A 
ATOM     18  C   UNL d   1      32.946  17.050 -23.463  0.00  0.00     0.021 A 
ENDBRANCH  12  13
ENDBRANCH  11  12
ENDBRANCH  10  11
ENDBRANCH   9  10
ENDBRANCH   7   9
ENDBRANCH   2   7
BRANCH   1  19
ATOM     19  S   UNL d   1      32.695  22.436 -19.514  0.00  0.00     0.272 S 
ATOM     20  O   UNL d   1      33.199  21.891 -19.127  0.00  0.00    -0.200 OA
ATOM     21  O   UNL d   1      32.188  22.996 -19.878  0.00  0.00    -0.200 OA
BRANCH  19  22
ATOM     22  N   UNL d   1      32.603  22.862 -18.802  0.00  0.00    -0.225 N 
ATOM     23  C   UNL d   1      31.923  23.286 -18.645  0.00  0.00     0.118 A 
ATOM     24  C   UNL d   1      31.856  23.702 -17.928  0.00  0.00     0.142 A 
ATOM     25  O   UNL d   1      32.464  23.691 -17.378  0.00  0.00    -0.300 OA
ATOM     26  C   UNL d   1      33.150  23.261 -17.543  0.00  0.00     0.142 A 
ATOM     27  C   UNL d   1      33.236  22.849 -18.234  0.00  0.00     0.118 A 
ENDBRANCH  19  22
ENDBRANCH   1  19
TORSDOF 8
ENDMDL
MODEL 3
REMARK VINA RESULT:      -1.9      2.498      6.324
REMARK  8 active torsions:
REMARK  status: ('A' for Active; 'I' for Inactive)
REMARK    1  A    between atoms: N_2  and  S_1 
REMARK    2  A    between atoms: C_3  and  S_1 
REMARK    3  A    between atoms: C_4  and  C_7 
REMARK    4  A    between atoms: O_17  and  C_4 
REMARK    5  A    between atoms: C_23  and  O_17 
REMARK    6  A    between atoms: C_18  and  C_24 
REMARK    7  A    between atoms: C_27  and  C_23 
REMARK    8  A    between atoms: C_24  and  C_27 
ROOT
ATOM      1  C   UNL d   1      30.692  17.120 -24.112  0.00  0.00     0.104 A 
ATOM      2  C   UNL d   1      32.101  17.957 -24.214  0.00  0.00     0.064 A 
ATOM      3  C   UNL d   1      30.784  17.721 -24.657  0.00  0.00     0.013 A 
ATOM      4  C   UNL d   1      31.323  16.932 -23.603  0.00  0.00     0.013 A 
ATOM      5  C   UNL d   1      31.475  18.146 -24.722  0.00  0.00     0.006 A 
ATOM      6  C   UNL d   1      32.023  17.351 -23.657  0.00  0.00     0.006 A 
ENDROOT
BRANCH   2   7
ATOM      7  C   UNL d   1      32.804  18.388 -24.278  0.00  0.00     0.300 C 
ATOM      8  O   UNL d   1      33.131  18.465 -25.047  0.00  0.00    -0.259 OA
BRANCH   7   9
ATOM      9  O   UNL d   1      33.170  18.723 -23.654  0.00  0.00    -0.271 OA
BRANCH   9  10
ATOM     10  C   UNL d   1      33.241  19.541 -23.571  0.00  0.00     0.126 C 
BRANCH  10  11
ATOM     11  C   UNL d   1      33.177  19.924 -22.838  0.00  0.00     0.027 C 
BRANCH  11  12
ATOM     12  C   UNL d   1      32.984  20.709 -22.790  0.00  0.00     0.002 C 
BRANCH  12  13
ATOM     13  C   UNL d   1      32.895  21.080 -22.047  0.00  0.00     0.003 A 
ATOM     14  C   UNL d   1      32.719  20.626 -21.392  0.00  0.00     0.021 A 
ATOM     15  C   UNL d   1      32.630  20.981 -20.659  0.00  0.00     0.099 A 
ATOM     16  N   UNL d   1      32.719  21.806 -20.579  0.00  0.00    -0.242 NA
ATOM     17  C   UNL d   1      32.896  22.256 -21.237  0.00  0.00     0.099 A 
ATOM     18  C   UNL d   1      32.980  21.876 -21.964  0.00  0.00     0.021 A 
ENDBRANCH  12  13
ENDBRANCH  11  12
ENDBRANCH  10  11
ENDBRANCH   9  10
ENDBRANCH   7   9
ENDBRANCH   2   7
BRANCH   1  19
ATOM     19  S   UNL d   1      29.977  16.697 -24.062  0.00  0.00     0.272 S 
ATOM     20  O   UNL d   1      30.378  15.985 -24.244  0.00  0.00    -0.200 OA
ATOM     21  O   UNL d   1      29.551  17.396 -23.878  0.00  0.00    -0.200 OA
BRANCH  19  22
ATOM     22  N   UNL d   1      29.255  16.281 -24.009  0.00  0.00    -0.225 N 
ATOM     23  C   UNL d   1      28.909  16.118 -23.288  0.00  0.00     0.118 A 
ATOM     24  C   UNL d   1      28.189  15.702 -23.263  0.00  0.00     0.142 A 
ATOM     25  O   UNL d   1      27.824  15.455 -23.954  0.00  0.00    -0.300 OA
ATOM     26  C   UNL d   1      28.179  15.623 -24.681  0.00  0.00     0.142 A 
ATOM     27  C   UNL d   1      28.878  16.025 -24.728  0.00  0.00     0.118 A 
ENDBRANCH  19  22
ENDBRANCH   1  19
TORSDOF 8
ENDMDL
MODEL 4
REMARK VINA RESULT:      -0.1      1.810      6.123
REMARK  8 active torsions:
REMARK  status: ('A' for Active; 'I' for Inactive)
REMARK    1  A    between atoms: N_2  and  S_1 
REMARK    2  A    between atoms: C_3  and  S_1 
REMARK    3  A    between atoms: C_4  and  C_7 
REMARK    4  A    between atoms: O_17  and  C_4 
REMARK    5  A    between atoms: C_23  and  O_17 
REMARK    6  A    between atoms: C_18  and  C_24 
REMARK    7  A    between atoms: C_27  and  C_23 
REMARK    8  A    between atoms: C_24  and  C_27 
ROOT
ATOM      1  C   UNL d   1      32.555  18.718 -23.876  0.00  0.00     0.104 A 
ATOM      2  C   UNL d   1      32.844  20.331 -23.768  0.00  0.00     0.064 A 
ATOM      3  C   UNL d   1      32.683  19.073 -23.152  0.00  0.00     0.013 A 
ATOM      4  C   UNL d   1      32.571  19.183 -24.566  0.00  0.00     0.013 A 
ATOM      5  C   UNL d   1      32.828  19.870 -23.079  0.00  0.00     0.006 A 
ATOM      6  C   UNL d   1      32.716  19.985 -24.508  0.00  0.00     0.006 A 
ENDROOT
BRANCH   2   7
ATOM      7  C   UNL d   1      32.991  21.141 -23.696  0.00  0.00     0.300 C 
ATOM      8  O   UNL d   1      32.870  21.610 -24.381  0.00  0.00    -0.259 OA
BRANCH   7   9
ATOM      9  O   UNL d   1      33.237  21.482 -23.018  0.00  0.00    -0.271 OA
BRANCH   9  10
ATOM     10  C   UNL d   1      32.892  22.170 -22.721  0.00  0.00     0.126 C 
BRANCH  10  11
ATOM     11  C   UNL d   1      33.196  22.577 -22.066  0.00  0.00     0.027 C 
BRANCH  11  12
ATOM     12  C   UNL d   1      32.707  22.923 -21.521  0.00  0.00     0.002 C 
BRANCH  12  13
ATOM     13  C   UNL d   1      32.831  22.807 -20.703  0.00  0.00     0.003 A 
ATOM     14  C   UNL d   1      32.669  23.416 -20.184  0.00  0.00     0.021 A 
ATOM     15  C   UNL d   1      32.788  23.311 -19.380  0.00  0.00     0.099 A 
ATOM     16  N   UNL d   1      33.074  22.584 -19.090  0.00  0.00    -0.242 NA
ATOM     17  C   UNL d   1      33.235  21.978 -19.613  0.00  0.00     0.099 A 
ATOM     18  C   UNL d   1      33.107  22.108 -20.418  0.00  0.00     0.021 A 
ENDBRANCH  12  13
ENDBRANCH  11  12
ENDBRANCH  10  11
ENDBRANCH   9  10
ENDBRANCH   7   9
ENDBRANCH   2   7
BRANCH   1  19
ATOM     19  S   UNL d   1      32.408  17.900 -23.929  0.00  0.00     0.272 S 
ATOM     20  O   UNL d   1      32.877  17.766 -23.248  0.00  0.00    -0.200 OA
ATOM     21  O   UNL d   1      31.934  18.008 -24.611  0.00  0.00    -0.200 OA
BRANCH  19  22
ATOM     22  N   UNL d   1      32.255  17.081 -23.990  0.00  0.00    -0.225 N 
ATOM     23  C   UNL d   1      32.834  16.557 -24.227  0.00  0.00     0.118 A 
ATOM     24  C   UNL d   1      32.656  15.746 -24.280  0.00  0.00     0.142 A 
ATOM     25  O   UNL d   1      31.907  15.469 -24.097  0.00  0.00    -0.300 OA
ATOM     26  C   UNL d   1      31.325  16.005 -23.857  0.00  0.00     0.142 A 
ATOM     27  C   UNL d   1      31.477  16.797 -23.799  0.00  0.00     0.118 A 
ENDBRANCH  19  22
ENDBRANCH   1  19
TORSDOF 8
ENDMDL
