MODEL 1
REMARK VINA RESULT:     -10.0      0.000      0.000
REMARK  3 active torsions:
REMARK  status: ('A' for Active; 'I' for Inactive)
REMARK    1  A    between atoms: C_2  and  S_1 
REMARK    2  A    between atoms: N_3  and  S_1 
REMARK    3  A    between atoms: C_10  and  N_3 
ROOT
ATOM      1  S   UNL d   1      53.908  32.130  53.569  0.00  0.00     0.285 S 
ATOM      2  O   UNL d   1      53.385  32.366  52.954  0.00  0.00    -0.198 OA
ATOM      3  O   UNL d   1      54.420  31.912  54.181  0.00  0.00    -0.198 OA
ENDROOT
BRANCH   1   4
ATOM      4  C   UNL d   1      53.774  32.855  53.964  0.00  0.00     0.107 A 
ATOM      5  C   UNL d   1      53.329  33.450  53.601  0.00  0.00     0.040 A 
ATOM      6  C   UNL d   1      53.209  34.146  54.000  0.00  0.00     0.123 A 
ATOM      7  O   UNL d   1      52.771  34.749  53.656  0.00  0.00    -0.301 OA
ATOM      8  C   UNL d   1      53.534  34.253  54.766  0.00  0.00     0.123 A 
ATOM      9  C   UNL d   1      52.655  35.457  54.074  0.00  0.00     0.149 A 
ATOM     10  C   UNL d   1      52.960  35.558  54.793  0.00  0.00     0.149 A 
ATOM     11  O   UNL d   1      53.408  34.959  55.161  0.00  0.00    -0.301 OA
ATOM     12  C   UNL d   1      53.966  33.660  55.106  0.00  0.00     0.028 A 
ATOM     13  C   UNL d   1      54.078  32.955  54.683  0.00  0.00     0.015 A 
ENDBRANCH   1   4
BRANCH   1  14
ATOM     14  N   UNL d   1      54.055  31.404  53.192  0.00  0.00    -0.158 NA
BRANCH  14  15
ATOM     15  C   UNL d   1      53.524  30.766  53.326  0.00  0.00     0.094 A 
ATOM     16  C   UNL d   1      53.741  30.174  53.866  0.00  0.00     0.020 A 
ATOM     17  C   UNL d   1      53.214  29.541  53.999  0.00  0.00     0.002 A 
ATOM     18  C   UNL d   1      53.417  28.932  54.543  0.00  0.00     0.000 C 
ATOM     19  C   UNL d   1      52.494  29.509  53.598  0.00  0.00     0.000 A 
ATOM     20  C   UNL d   1      52.314  30.115  53.070  0.00  0.00     0.002 A 
ATOM     21  C   UNL d   1      52.820  30.730  52.938  0.00  0.00     0.020 A 
ENDBRANCH  14  15
ENDBRANCH   1  14
TORSDOF 3
ENDMDL
MODEL 2
REMARK VINA RESULT:      -9.0      1.078      4.310
REMARK  3 active torsions:
REMARK  status: ('A' for Active; 'I' for Inactive)
REMARK    1  A    between atoms: C_2  and  S_1 
REMARK    2  A    between atoms: N_3  and  S_1 
REMARK    3  A    between atoms: C_10  and  N_3 
ROOT
ATOM      1  S   UNL d   1      53.722  32.264  53.278  0.00  0.00     0.285 S 
ATOM      2  O   UNL d   1      54.438  32.019  53.645  0.00  0.00    -0.198 OA
ATOM      3  O   UNL d   1      53.012  32.489  52.919  0.00  0.00    -0.198 OA
ENDROOT
BRANCH   1   4
ATOM      4  C   UNL d   1      53.424  31.484  53.335  0.00  0.00     0.107 A 
ATOM      5  C   UNL d   1      53.679  30.985  53.943  0.00  0.00     0.040 A 
ATOM      6  C   UNL d   1      53.379  30.232  53.981  0.00  0.00     0.123 A 
ATOM      7  O   UNL d   1      53.620  29.721  54.577  0.00  0.00    -0.301 OA
ATOM      8  C   UNL d   1      52.820  29.972  53.412  0.00  0.00     0.123 A 
ATOM      9  C   UNL d   1      53.305  28.953  54.606  0.00  0.00     0.149 A 
ATOM     10  C   UNL d   1      52.781  28.710  54.072  0.00  0.00     0.149 A 
ATOM     11  O   UNL d   1      52.522  29.211  53.459  0.00  0.00    -0.301 OA
ATOM     12  C   UNL d   1      52.582  30.475  52.825  0.00  0.00     0.028 A 
ATOM     13  C   UNL d   1      52.900  31.241  52.801  0.00  0.00     0.015 A 
ENDBRANCH   1   4
BRANCH   1  14
ATOM     14  N   UNL d   1      54.000  33.044  53.212  0.00  0.00    -0.158 NA
BRANCH  14  15
ATOM     15  C   UNL d   1      53.858  33.577  53.846  0.00  0.00     0.094 A 
ATOM     16  C   UNL d   1      53.291  34.176  53.743  0.00  0.00     0.020 A 
ATOM     17  C   UNL d   1      53.150  34.706  54.372  0.00  0.00     0.002 A 
ATOM     18  C   UNL d   1      52.580  35.318  54.286  0.00  0.00     0.000 C 
ATOM     19  C   UNL d   1      53.567  34.631  55.080  0.00  0.00     0.000 A 
ATOM     20  C   UNL d   1      54.121  34.024  55.144  0.00  0.00     0.002 A 
ATOM     21  C   UNL d   1      54.262  33.509  54.538  0.00  0.00     0.020 A 
ENDBRANCH  14  15
ENDBRANCH   1  14
TORSDOF 3
ENDMDL
MODEL 3
REMARK VINA RESULT:      -8.9      2.102      4.195
REMARK  3 active torsions:
REMARK  status: ('A' for Active; 'I' for Inactive)
REMARK    1  A    between atoms: C_2  and  S_1 
REMARK    2  A    between atoms: N_3  and  S_1 
REMARK    3  A    between atoms: C_10  and  N_3 
ROOT
ATOM      1  S   UNL d   1      52.583  33.387  52.949  0.00  0.00     0.285 S 
ATOM      2  O   UNL d   1      52.615  33.670  53.741  0.00  0.00    -0.198 OA
ATOM      3  O   UNL d   1      52.558  33.093  52.177  0.00  0.00    -0.198 OA
ENDROOT
BRANCH   1   4
ATOM      4  C   UNL d   1      52.875  32.645  53.202  0.00  0.00     0.107 A 
ATOM      5  C   UNL d   1      52.518  31.946  52.939  0.00  0.00     0.040 A 
ATOM      6  C   UNL d   1      52.815  31.236  53.195  0.00  0.00     0.123 A 
ATOM      7  O   UNL d   1      52.475  30.532  52.946  0.00  0.00    -0.301 OA
ATOM      8  C   UNL d   1      53.472  31.218  53.717  0.00  0.00     0.123 A 
ATOM      9  C   UNL d   1      52.788  29.811  53.215  0.00  0.00     0.149 A 
ATOM     10  C   UNL d   1      53.405  29.795  53.704  0.00  0.00     0.149 A 
ATOM     11  O   UNL d   1      53.766  30.497  53.970  0.00  0.00    -0.301 OA
ATOM     12  C   UNL d   1      53.809  31.912  53.963  0.00  0.00     0.028 A 
ATOM     13  C   UNL d   1      53.491  32.628  53.691  0.00  0.00     0.015 A 
ENDBRANCH   1   4
BRANCH   1  14
ATOM     14  N   UNL d   1      52.292  34.117  52.679  0.00  0.00    -0.158 NA
BRANCH  14  15
ATOM     15  C   UNL d   1      51.463  34.251  52.694  0.00  0.00     0.094 A 
ATOM     16  C   UNL d   1      51.039  34.202  51.981  0.00  0.00     0.020 A 
ATOM     17  C   UNL d   1      50.215  34.335  51.996  0.00  0.00     0.002 A 
ATOM     18  C   UNL d   1      49.770  34.290  51.284  0.00  0.00     0.000 C 
ATOM     19  C   UNL d   1      49.836  34.511  52.707  0.00  0.00     0.000 A 
ATOM     20  C   UNL d   1      50.290  34.551  53.393  0.00  0.00     0.002 A 
ATOM     21  C   UNL d   1      51.087  34.423  53.384  0.00  0.00     0.020 A 
ENDBRANCH  14  15
ENDBRANCH   1  14
TORSDOF 3
ENDMDL
MODEL 4
REMARK VINA RESULT:      -8.6      2.247      3.390
REMARK  3 active torsions:
REMARK  status: ('A' for Active; 'I' for Inactive)
REMARK    1  A    between atoms: C_2  and  S_1 
REMARK    2  A    between atoms: N_3  and  S_1 
REMARK    3  A    between atoms: C_10  and  N_3 
ROOT
ATOM      1  S   UNL d   1      52.639  33.585  52.933  0.00  0.00     0.285 S 
ATOM      2  O   UNL d   1      52.368  32.795  52.834  0.00  0.00    -0.198 OA
ATOM      3  O   UNL d   1      52.889  34.367  53.029  0.00  0.00    -0.198 OA
ENDROOT
BRANCH   1   4
ATOM      4  C   UNL d   1      51.852  33.863  52.878  0.00  0.00     0.107 A 
ATOM      5  C   UNL d   1      51.472  33.893  52.144  0.00  0.00     0.040 A 
ATOM      6  C   UNL d   1      50.709  34.167  52.111  0.00  0.00     0.123 A 
ATOM      7  O   UNL d   1      50.315  34.204  51.391  0.00  0.00    -0.301 OA
ATOM      8  C   UNL d   1      50.319  34.412  52.812  0.00  0.00     0.123 A 
ATOM      9  C   UNL d   1      49.534  34.486  51.370  0.00  0.00     0.149 A 
ATOM     10  C   UNL d   1      49.168  34.716  52.028  0.00  0.00     0.149 A 
ATOM     11  O   UNL d   1      49.549  34.686  52.768  0.00  0.00    -0.301 OA
ATOM     12  C   UNL d   1      50.706  34.375  53.521  0.00  0.00     0.028 A 
ATOM     13  C   UNL d   1      51.486  34.093  53.536  0.00  0.00     0.015 A 
ENDBRANCH   1   4
BRANCH   1  14
ATOM     14  N   UNL d   1      53.427  33.328  52.991  0.00  0.00    -0.158 NA
BRANCH  14  15
ATOM     15  C   UNL d   1      53.716  33.078  53.739  0.00  0.00     0.094 A 
ATOM     16  C   UNL d   1      54.215  33.589  54.164  0.00  0.00     0.020 A 
ATOM     17  C   UNL d   1      54.502  33.342  54.907  0.00  0.00     0.002 A 
ATOM     18  C   UNL d   1      55.009  33.846  55.350  0.00  0.00     0.000 C 
ATOM     19  C   UNL d   1      54.291  32.604  55.209  0.00  0.00     0.000 A 
ATOM     20  C   UNL d   1      53.794  32.126  54.759  0.00  0.00     0.002 A 
ATOM     21  C   UNL d   1      53.514  32.360  54.039  0.00  0.00     0.020 A 
ENDBRANCH  14  15
ENDBRANCH   1  14
TORSDOF 3
ENDMDL
