MODEL 1
REMARK VINA RESULT:      -4.9      0.000      0.000
REMARK  3 active torsions:
REMARK  status: ('A' for Active; 'I' for Inactive)
REMARK    1  A    between atoms: N_2  and  N_1 
REMARK    2  A    between atoms: C_3  and  N_1 
REMARK    3  A    between atoms: C_4  and  N_2 
ROOT
ATOM      1  N   UNL d   1      57.138  -0.143  30.872  0.00  0.00    -0.148 NA
ENDROOT
BRANCH   1   2
ATOM      2  N   UNL d   1      57.293  -0.135  31.676  0.00  0.00    -0.148 NA
BRANCH   2   3
ATOM      3  C   UNL d   1      56.648  -0.246  32.214  0.00  0.00     0.103 A 
ATOM      4  C   UNL d   1      56.396  -1.005  32.403  0.00  0.00     0.021 A 
ATOM      5  C   UNL d   1      55.769  -1.117  32.926  0.00  0.00     0.002 A 
ATOM      6  C   UNL d   1      55.389  -0.457  33.264  0.00  0.00     0.000 A 
ATOM      7  C   UNL d   1      55.646   0.300  33.071  0.00  0.00     0.002 A 
ATOM      8  C   UNL d   1      56.268   0.414  32.552  0.00  0.00     0.021 A 
ENDBRANCH   2   3
ENDBRANCH   1   2
BRANCH   1   9
ATOM      9  C   UNL d   1      57.777  -0.090  30.350  0.00  0.00     0.103 A 
ATOM     10  C   UNL d   1      58.037   0.643  30.085  0.00  0.00     0.022 A 
ATOM     11  C   UNL d   1      58.682   0.682  29.560  0.00  0.00     0.022 A 
ATOM     12  C   UNL d   1      59.046   0.017  29.312  0.00  0.00     0.103 A 
ATOM     13  C   UNL d   1      58.789  -0.730  29.575  0.00  0.00     0.022 A 
ATOM     14  N   UNL d   1      59.692   0.076  28.784  0.00  0.00    -0.148 N 
ATOM     15  C   UNL d   1      58.156  -0.781  30.093  0.00  0.00     0.022 A 
ENDBRANCH   1   9
TORSDOF 3
ENDMDL
MODEL 2
REMARK VINA RESULT:      -4.8      0.856      3.980
REMARK  3 active torsions:
REMARK  status: ('A' for Active; 'I' for Inactive)
REMARK    1  A    between atoms: N_2  and  N_1 
REMARK    2  A    between atoms: C_3  and  N_1 
REMARK    3  A    between atoms: C_4  and  N_2 
ROOT
ATOM      1  N   UNL d   1      57.381  -0.143  31.628  0.00  0.00    -0.148 NA
ENDROOT
BRANCH   1   2
ATOM      2  N   UNL d   1      57.229  -0.029  30.831  0.00  0.00    -0.148 NA
BRANCH   2   3
ATOM      3  C   UNL d   1      57.880  -0.035  30.289  0.00  0.00     0.103 A 
ATOM      4  C   UNL d   1      58.171  -0.749  30.005  0.00  0.00     0.021 A 
ATOM      5  C   UNL d   1      58.805  -0.759  29.477  0.00  0.00     0.002 A 
ATOM      6  C   UNL d   1      59.151  -0.042  29.232  0.00  0.00     0.000 A 
ATOM      7  C   UNL d   1      58.855   0.669  29.520  0.00  0.00     0.002 A 
ATOM      8  C   UNL d   1      58.226   0.682  30.044  0.00  0.00     0.021 A 
ENDBRANCH   2   3
ENDBRANCH   1   2
BRANCH   1   9
ATOM      9  C   UNL d   1      56.744  -0.120  32.155  0.00  0.00     0.103 A 
ATOM     10  C   UNL d   1      56.456   0.601  32.426  0.00  0.00     0.022 A 
ATOM     11  C   UNL d   1      55.815   0.610  32.957  0.00  0.00     0.022 A 
ATOM     12  C   UNL d   1      55.480  -0.070  33.203  0.00  0.00     0.103 A 
ATOM     13  C   UNL d   1      55.765  -0.804  32.934  0.00  0.00     0.022 A 
ATOM     14  N   UNL d   1      54.836  -0.041  33.736  0.00  0.00    -0.148 N 
ATOM     15  C   UNL d   1      56.396  -0.827  32.411  0.00  0.00     0.022 A 
ENDBRANCH   1   9
TORSDOF 3
ENDMDL
MODEL 3
REMARK VINA RESULT:      -2.3      1.757      4.239
REMARK  3 active torsions:
REMARK  status: ('A' for Active; 'I' for Inactive)
REMARK    1  A    between atoms: N_2  and  N_1 
REMARK    2  A    between atoms: C_3  and  N_1 
REMARK    3  A    between atoms: C_4  and  N_2 
ROOT
ATOM      1  N   UNL d   1      58.145  -1.600  30.003  0.00  0.00    -0.148 NA
ENDROOT
BRANCH   1   2
ATOM      2  N   UNL d   1      58.808  -1.392  29.568  0.00  0.00    -0.148 NA
BRANCH   2   3
ATOM      3  C   UNL d   1      59.255  -2.005  29.193  0.00  0.00     0.103 A 
ATOM      4  C   UNL d   1      60.032  -1.867  28.964  0.00  0.00     0.021 A 
ATOM      5  C   UNL d   1      60.470  -2.462  28.599  0.00  0.00     0.002 A 
ATOM      6  C   UNL d   1      60.123  -3.207  28.461  0.00  0.00     0.000 A 
ATOM      7  C   UNL d   1      59.345  -3.339  28.692  0.00  0.00     0.002 A 
ATOM      8  C   UNL d   1      58.908  -2.750  29.055  0.00  0.00     0.021 A 
ENDBRANCH   2   3
ENDBRANCH   1   2
BRANCH   1   9
ATOM      9  C   UNL d   1      57.808  -1.031  30.500  0.00  0.00     0.103 A 
ATOM     10  C   UNL d   1      57.957  -0.232  30.376  0.00  0.00     0.022 A 
ATOM     11  C   UNL d   1      57.611   0.331  30.883  0.00  0.00     0.022 A 
ATOM     12  C   UNL d   1      57.140   0.102  31.484  0.00  0.00     0.103 A 
ATOM     13  C   UNL d   1      56.984  -0.705  31.617  0.00  0.00     0.022 A 
ATOM     14  N   UNL d   1      56.802   0.681  31.983  0.00  0.00    -0.148 N 
ATOM     15  C   UNL d   1      57.318  -1.269  31.124  0.00  0.00     0.022 A 
ENDBRANCH   1   9
TORSDOF 3
ENDMDL
