MODEL 1
REMARK VINA RESULT:      -7.1      0.000      0.000
REMARK  4 active torsions:
REMARK  status: ('A' for Active; 'I' for Inactive)
REMARK    1  A    between atoms: C_3  and  C_1 
REMARK    2  A    between atoms: C_2  and  C_3 
REMARK    3  A    between atoms: C_6  and  C_2 
REMARK    4  A    between atoms: C_4  and  C_6 
ROOT
ATOM      1  C   UNL d   1      52.868  33.246  53.668  0.00  0.00     0.043 C 
ENDROOT
BRANCH   1   2
ATOM      2  C   UNL d   1      52.378  33.045  53.044  0.00  0.00     0.202 C 
ATOM      3  O   UNL d   1      52.520  32.404  52.553  0.00  0.00    -0.286 OA
BRANCH   2   4
ATOM      4  C   UNL d   1      51.686  33.494  52.869  0.00  0.00     0.068 A 
ATOM      5  S   UNL d   1      50.946  33.436  53.223  0.00  0.00    -0.083 SA
ATOM      6  C   UNL d   1      50.433  33.973  52.888  0.00  0.00     0.035 A 
ATOM      7  C   UNL d   1      50.874  34.376  52.306  0.00  0.00     0.008 A 
ATOM      8  C   UNL d   1      51.631  34.100  52.280  0.00  0.00     0.010 A 
ENDBRANCH   2   4
ENDBRANCH   1   2
BRANCH   1   9
ATOM      9  C   UNL d   1      53.576  32.830  53.764  0.00  0.00     0.010 C 
BRANCH   9  10
ATOM     10  C   UNL d   1      54.094  33.067  54.367  0.00  0.00     0.030 A 
ATOM     11  S   UNL d   1      54.060  33.009  55.181  0.00  0.00    -0.086 SA
ATOM     12  C   UNL d   1      54.752  33.350  55.485  0.00  0.00     0.035 A 
ATOM     13  C   UNL d   1      55.169  33.594  54.882  0.00  0.00     0.007 A 
ATOM     14  C   UNL d   1      54.809  33.442  54.195  0.00  0.00     0.007 A 
ENDBRANCH   9  10
ENDBRANCH   1   9
TORSDOF 4
ENDMDL
MODEL 2
REMARK VINA RESULT:      -7.0      2.044      2.864
REMARK  4 active torsions:
REMARK  status: ('A' for Active; 'I' for Inactive)
REMARK    1  A    between atoms: C_3  and  C_1 
REMARK    2  A    between atoms: C_2  and  C_3 
REMARK    3  A    between atoms: C_6  and  C_2 
REMARK    4  A    between atoms: C_4  and  C_6 
ROOT
ATOM      1  C   UNL d   1      53.433  32.397  53.654  0.00  0.00     0.043 C 
ENDROOT
BRANCH   1   2
ATOM      2  C   UNL d   1      53.851  33.084  53.809  0.00  0.00     0.202 C 
ATOM      3  O   UNL d   1      54.670  33.110  53.850  0.00  0.00    -0.286 OA
BRANCH   2   4
ATOM      4  C   UNL d   1      53.455  33.818  53.938  0.00  0.00     0.068 A 
ATOM      5  S   UNL d   1      53.425  34.257  54.632  0.00  0.00    -0.083 SA
ATOM      6  C   UNL d   1      52.982  34.931  54.517  0.00  0.00     0.035 A 
ATOM      7  C   UNL d   1      52.730  34.904  53.722  0.00  0.00     0.008 A 
ATOM      8  C   UNL d   1      53.006  34.240  53.358  0.00  0.00     0.010 A 
ENDBRANCH   2   4
ENDBRANCH   1   2
BRANCH   1   9
ATOM      9  C   UNL d   1      53.849  31.685  53.606  0.00  0.00     0.010 C 
BRANCH   9  10
ATOM     10  C   UNL d   1      53.423  30.987  53.466  0.00  0.00     0.030 A 
ATOM     11  S   UNL d   1      52.800  30.810  52.969  0.00  0.00    -0.086 SA
ATOM     12  C   UNL d   1      52.612  30.010  53.078  0.00  0.00     0.035 A 
ATOM     13  C   UNL d   1      53.098  29.733  53.611  0.00  0.00     0.007 A 
ATOM     14  C   UNL d   1      53.599  30.288  53.868  0.00  0.00     0.007 A 
ENDBRANCH   9  10
ENDBRANCH   1   9
TORSDOF 4
ENDMDL
MODEL 3
REMARK VINA RESULT:      -6.8      0.402      3.599
REMARK  4 active torsions:
REMARK  status: ('A' for Active; 'I' for Inactive)
REMARK    1  A    between atoms: C_3  and  C_1 
REMARK    2  A    between atoms: C_2  and  C_3 
REMARK    3  A    between atoms: C_6  and  C_2 
REMARK    4  A    between atoms: C_4  and  C_6 
ROOT
ATOM      1  C   UNL d   1      52.838  33.294  53.667  0.00  0.00     0.043 C 
ENDROOT
BRANCH   1   2
ATOM      2  C   UNL d   1      53.533  32.879  53.791  0.00  0.00     0.202 C 
ATOM      3  O   UNL d   1      53.741  32.216  53.355  0.00  0.00    -0.286 OA
BRANCH   2   4
ATOM      4  C   UNL d   1      54.084  33.114  54.384  0.00  0.00     0.068 A 
ATOM      5  S   UNL d   1      54.051  32.957  55.190  0.00  0.00    -0.083 SA
ATOM      6  C   UNL d   1      54.695  33.286  55.565  0.00  0.00     0.035 A 
ATOM      7  C   UNL d   1      55.139  33.660  54.967  0.00  0.00     0.008 A 
ATOM      8  C   UNL d   1      54.786  33.567  54.249  0.00  0.00     0.010 A 
ENDBRANCH   2   4
ENDBRANCH   1   2
BRANCH   1   9
ATOM      9  C   UNL d   1      52.383  33.113  53.002  0.00  0.00     0.010 C 
BRANCH   9  10
ATOM     10  C   UNL d   1      51.682  33.538  52.875  0.00  0.00     0.030 A 
ATOM     11  S   UNL d   1      50.962  33.546  53.259  0.00  0.00    -0.086 SA
ATOM     12  C   UNL d   1      50.475  34.093  52.869  0.00  0.00     0.035 A 
ATOM     13  C   UNL d   1      50.889  34.390  52.288  0.00  0.00     0.007 A 
ATOM     14  C   UNL d   1      51.617  34.083  52.257  0.00  0.00     0.007 A 
ENDBRANCH   9  10
ENDBRANCH   1   9
TORSDOF 4
ENDMDL
MODEL 4
REMARK VINA RESULT:      -6.8      2.035      2.756
REMARK  4 active torsions:
REMARK  status: ('A' for Active; 'I' for Inactive)
REMARK    1  A    between atoms: C_3  and  C_1 
REMARK    2  A    between atoms: C_2  and  C_3 
REMARK    3  A    between atoms: C_6  and  C_2 
REMARK    4  A    between atoms: C_4  and  C_6 
ROOT
ATOM      1  C   UNL d   1      53.688  32.006  53.824  0.00  0.00     0.043 C 
ENDROOT
BRANCH   1   2
ATOM      2  C   UNL d   1      53.303  31.575  53.243  0.00  0.00     0.202 C 
ATOM      3  O   UNL d   1      53.056  31.903  52.533  0.00  0.00    -0.286 OA
BRANCH   2   4
ATOM      4  C   UNL d   1      53.138  30.754  53.344  0.00  0.00     0.068 A 
ATOM      5  S   UNL d   1      52.470  30.342  53.100  0.00  0.00    -0.083 SA
ATOM      6  C   UNL d   1      52.534  29.558  53.309  0.00  0.00     0.035 A 
ATOM      7  C   UNL d   1      53.269  29.485  53.696  0.00  0.00     0.008 A 
ATOM      8  C   UNL d   1      53.647  30.196  53.727  0.00  0.00     0.010 A 
ENDBRANCH   2   4
ENDBRANCH   1   2
BRANCH   1   9
ATOM      9  C   UNL d   1      53.852  32.803  53.680  0.00  0.00     0.010 C 
BRANCH   9  10
ATOM     10  C   UNL d   1      54.150  33.263  54.302  0.00  0.00     0.030 A 
ATOM     11  S   UNL d   1      53.792  33.743  54.857  0.00  0.00    -0.086 SA
ATOM     12  C   UNL d   1      54.389  34.059  55.338  0.00  0.00     0.035 A 
ATOM     13  C   UNL d   1      55.061  33.779  55.079  0.00  0.00     0.007 A 
ATOM     14  C   UNL d   1      54.960  33.298  54.460  0.00  0.00     0.007 A 
ENDBRANCH   9  10
ENDBRANCH   1   9
TORSDOF 4
ENDMDL
MODEL 5
REMARK VINA RESULT:      -6.7      1.897      2.848
REMARK  4 active torsions:
REMARK  status: ('A' for Active; 'I' for Inactive)
REMARK    1  A    between atoms: C_3  and  C_1 
REMARK    2  A    between atoms: C_2  and  C_3 
REMARK    3  A    between atoms: C_6  and  C_2 
REMARK    4  A    between atoms: C_4  and  C_6 
ROOT
ATOM      1  C   UNL d   1      52.996  32.589  53.489  0.00  0.00     0.043 C 
ENDROOT
BRANCH   1   2
ATOM      2  C   UNL d   1      52.845  31.961  52.985  0.00  0.00     0.202 C 
ATOM      3  O   UNL d   1      52.525  32.057  52.236  0.00  0.00    -0.286 OA
BRANCH   2   4
ATOM      4  C   UNL d   1      53.013  31.167  53.213  0.00  0.00     0.068 A 
ATOM      5  S   UNL d   1      52.544  30.502  53.100  0.00  0.00    -0.083 SA
ATOM      6  C   UNL d   1      52.915  29.844  53.405  0.00  0.00     0.035 A 
ATOM      7  C   UNL d   1      53.639  30.114  53.716  0.00  0.00     0.008 A 
ATOM      8  C   UNL d   1      53.715  30.909  53.610  0.00  0.00     0.010 A 
ENDBRANCH   2   4
ENDBRANCH   1   2
BRANCH   1   9
ATOM      9  C   UNL d   1      52.780  33.350  53.247  0.00  0.00     0.010 C 
BRANCH   9  10
ATOM     10  C   UNL d   1      52.929  33.984  53.761  0.00  0.00     0.030 A 
ATOM     11  S   UNL d   1      53.260  34.026  54.506  0.00  0.00    -0.086 SA
ATOM     12  C   UNL d   1      53.259  34.823  54.736  0.00  0.00     0.035 A 
ATOM     13  C   UNL d   1      52.944  35.226  54.156  0.00  0.00     0.007 A 
ATOM     14  C   UNL d   1      52.734  34.759  53.554  0.00  0.00     0.007 A 
ENDBRANCH   9  10
ENDBRANCH   1   9
TORSDOF 4
ENDMDL
