MODEL 1
REMARK VINA RESULT:      -6.0      0.000      0.000
REMARK  3 active torsions:
REMARK  status: ('A' for Active; 'I' for Inactive)
REMARK    1  A    between atoms: S_6  and  C_2 
REMARK    2  A    between atoms: C_8  and  S_6 
REMARK    3  A    between atoms: C_9  and  C_8 
ROOT
ATOM      1  S   UNL d   1     -48.518  14.471  22.821  0.00  0.00    -0.048 SA
ENDROOT
BRANCH   1   2
ATOM      2  C   UNL d   1     -49.306  14.728  22.895  0.00  0.00     0.203 A 
ATOM      3  N   UNL d   1     -49.575  15.316  23.405  0.00  0.00    -0.193 NA
ATOM      4  C   UNL d   1     -50.392  15.392  23.297  0.00  0.00     0.234 A 
ATOM      5  S   UNL d   1     -50.624  14.852  22.722  0.00  0.00     0.056 SA
ATOM      6  N   UNL d   1     -50.881  15.918  23.697  0.00  0.00    -0.118 N 
ATOM      7  N   UNL d   1     -49.955  14.438  22.470  0.00  0.00    -0.181 NA
ENDBRANCH   1   2
BRANCH   1   8
ATOM      8  C   UNL d   1     -48.331  13.679  22.963  0.00  0.00     0.038 C 
BRANCH   8   9
ATOM      9  C   UNL d   1     -47.547  13.432  22.955  0.00  0.00     0.007 A 
ATOM     10  C   UNL d   1     -47.351  12.706  23.305  0.00  0.00     0.001 A 
ATOM     11  C   UNL d   1     -46.561  12.452  23.299  0.00  0.00     0.000 A 
ATOM     12  C   UNL d   1     -45.982  12.920  22.947  0.00  0.00     0.000 A 
ATOM     13  C   UNL d   1     -46.190  13.648  22.598  0.00  0.00     0.000 A 
ATOM     14  C   UNL d   1     -46.973  13.896  22.606  0.00  0.00     0.001 A 
ENDBRANCH   8   9
ENDBRANCH   1   8
TORSDOF 3
ENDMDL
MODEL 2
REMARK VINA RESULT:      -6.0      2.132      2.315
REMARK  3 active torsions:
REMARK  status: ('A' for Active; 'I' for Inactive)
REMARK    1  A    between atoms: S_6  and  C_2 
REMARK    2  A    between atoms: C_8  and  S_6 
REMARK    3  A    between atoms: C_9  and  C_8 
ROOT
ATOM      1  S   UNL d   1     -48.172  12.302  22.841  0.00  0.00    -0.048 SA
ENDROOT
BRANCH   1   2
ATOM      2  C   UNL d   1     -48.933  12.082  23.098  0.00  0.00     0.203 A 
ATOM      3  N   UNL d   1     -49.636  12.466  22.907  0.00  0.00    -0.193 NA
ATOM      4  C   UNL d   1     -50.255  12.063  23.279  0.00  0.00     0.234 A 
ATOM      5  S   UNL d   1     -49.933  11.432  23.698  0.00  0.00     0.056 SA
ATOM      6  N   UNL d   1     -51.051  12.262  23.234  0.00  0.00    -0.118 N 
ATOM      7  N   UNL d   1     -49.114  11.440  23.589  0.00  0.00    -0.181 NA
ENDBRANCH   1   2
BRANCH   1   8
ATOM      8  C   UNL d   1     -47.699  12.775  23.324  0.00  0.00     0.038 C 
BRANCH   8   9
ATOM      9  C   UNL d   1     -46.999  13.094  23.034  0.00  0.00     0.007 A 
ATOM     10  C   UNL d   1     -46.353  12.590  22.900  0.00  0.00     0.001 A 
ATOM     11  C   UNL d   1     -45.645  12.907  22.606  0.00  0.00     0.000 A 
ATOM     12  C   UNL d   1     -45.589  13.715  22.452  0.00  0.00     0.000 A 
ATOM     13  C   UNL d   1     -46.244  14.212  22.590  0.00  0.00     0.000 A 
ATOM     14  C   UNL d   1     -46.943  13.894  22.881  0.00  0.00     0.001 A 
ENDBRANCH   8   9
ENDBRANCH   1   8
TORSDOF 3
ENDMDL
MODEL 3
REMARK VINA RESULT:      -6.0      2.435      3.712
REMARK  3 active torsions:
REMARK  status: ('A' for Active; 'I' for Inactive)
REMARK    1  A    between atoms: S_6  and  C_2 
REMARK    2  A    between atoms: C_8  and  S_6 
REMARK    3  A    between atoms: C_9  and  C_8 
ROOT
ATOM      1  S   UNL d   1     -48.263  13.119  22.623  0.00  0.00    -0.048 SA
ENDROOT
BRANCH   1   2
ATOM      2  C   UNL d   1     -47.474  13.385  22.627  0.00  0.00     0.203 A 
ATOM      3  N   UNL d   1     -46.835  13.005  22.271  0.00  0.00    -0.193 NA
ATOM      4  C   UNL d   1     -46.159  13.459  22.411  0.00  0.00     0.234 A 
ATOM      5  S   UNL d   1     -46.380  14.117  22.853  0.00  0.00     0.056 SA
ATOM      6  N   UNL d   1     -45.400  13.280  22.152  0.00  0.00    -0.118 N 
ATOM      7  N   UNL d   1     -47.194  14.076  22.989  0.00  0.00    -0.181 NA
ENDBRANCH   1   2
BRANCH   1   8
ATOM      8  C   UNL d   1     -48.680  13.065  23.334  0.00  0.00     0.038 C 
BRANCH   8   9
ATOM      9  C   UNL d   1     -49.435  12.741  23.347  0.00  0.00     0.007 A 
ATOM     10  C   UNL d   1     -49.545  11.991  23.683  0.00  0.00     0.001 A 
ATOM     11  C   UNL d   1     -50.305  11.660  23.698  0.00  0.00     0.000 A 
ATOM     12  C   UNL d   1     -50.942  12.077  23.380  0.00  0.00     0.000 A 
ATOM     13  C   UNL d   1     -50.820  12.831  23.046  0.00  0.00     0.000 A 
ATOM     14  C   UNL d   1     -50.065  13.155  23.033  0.00  0.00     0.001 A 
ENDBRANCH   8   9
ENDBRANCH   1   8
TORSDOF 3
ENDMDL
MODEL 4
REMARK VINA RESULT:      -5.9      1.803      3.883
REMARK  3 active torsions:
REMARK  status: ('A' for Active; 'I' for Inactive)
REMARK    1  A    between atoms: S_6  and  C_2 
REMARK    2  A    between atoms: C_8  and  S_6 
REMARK    3  A    between atoms: C_9  and  C_8 
ROOT
ATOM      1  S   UNL d   1     -48.518  13.994  22.900  0.00  0.00    -0.048 SA
ENDROOT
BRANCH   1   2
ATOM      2  C   UNL d   1     -47.715  13.773  22.914  0.00  0.00     0.203 A 
ATOM      3  N   UNL d   1     -47.423  13.030  23.115  0.00  0.00    -0.193 NA
ATOM      4  C   UNL d   1     -46.598  13.056  23.055  0.00  0.00     0.234 A 
ATOM      5  S   UNL d   1     -46.384  13.814  22.817  0.00  0.00     0.056 SA
ATOM      6  N   UNL d   1     -46.087  12.431  23.207  0.00  0.00    -0.118 N 
ATOM      7  N   UNL d   1     -47.073  14.262  22.728  0.00  0.00    -0.181 NA
ENDBRANCH   1   2
BRANCH   1   8
ATOM      8  C   UNL d   1     -48.722  14.793  22.873  0.00  0.00     0.038 C 
BRANCH   8   9
ATOM      9  C   UNL d   1     -49.503  15.024  22.981  0.00  0.00     0.007 A 
ATOM     10  C   UNL d   1     -49.684  15.562  23.586  0.00  0.00     0.001 A 
ATOM     11  C   UNL d   1     -50.472  15.798  23.697  0.00  0.00     0.000 A 
ATOM     12  C   UNL d   1     -51.064  15.498  23.209  0.00  0.00     0.000 A 
ATOM     13  C   UNL d   1     -50.871  14.958  22.604  0.00  0.00     0.000 A 
ATOM     14  C   UNL d   1     -50.090  14.727  22.497  0.00  0.00     0.001 A 
ENDBRANCH   8   9
ENDBRANCH   1   8
TORSDOF 3
ENDMDL
