MODEL 1
REMARK VINA RESULT:      -8.7      0.000      0.000
REMARK  3 active torsions:
REMARK  status: ('A' for Active; 'I' for Inactive)
REMARK    1  A    between atoms: N_5  and  C_1 
REMARK    2  A    between atoms: C_8  and  C_3 
REMARK       I    between atoms: C_7  and  N_5 
REMARK    3  A    between atoms: C_13  and  C_7 
ROOT
ATOM      1  C   UNL d   1     -46.329  12.900  23.209  0.00  0.00     0.297 A 
ATOM      2  O   UNL d   1     -47.145  12.909  23.077  0.00  0.00    -0.253 OA
ATOM      3  C   UNL d   1     -47.363  13.686  22.879  0.00  0.00     0.206 A 
ATOM      4  N   UNL d   1     -46.681  14.146  22.891  0.00  0.00    -0.119 NA
ATOM      5  N   UNL d   1     -46.043  13.662  23.095  0.00  0.00    -0.101 NA
ENDROOT
BRANCH   3   6
ATOM      6  C   UNL d   1     -48.134  13.942  22.701  0.00  0.00     0.043 A 
ATOM      7  C   UNL d   1     -48.632  13.458  22.254  0.00  0.00     0.004 A 
ATOM      8  C   UNL d   1     -49.391  13.710  22.079  0.00  0.00     0.000 A 
ATOM      9  C   UNL d   1     -49.884  13.220  21.631  0.00  0.00     0.000 A 
ATOM     10  C   UNL d   1     -49.648  14.442  22.351  0.00  0.00     0.000 A 
ATOM     11  C   UNL d   1     -50.641  13.464  21.453  0.00  0.00     0.000 A 
ATOM     12  C   UNL d   1     -50.915  14.199  21.720  0.00  0.00     0.000 A 
ATOM     13  C   UNL d   1     -50.430  14.694  22.168  0.00  0.00     0.000 A 
ATOM     14  C   UNL d   1     -49.170  14.925  22.790  0.00  0.00     0.000 A 
ATOM     15  C   UNL d   1     -48.408  14.681  22.970  0.00  0.00     0.004 A 
ENDBRANCH   3   6
BRANCH   1  16
ATOM     16  N   UNL d   1     -45.885  12.234  23.421  0.00  0.00    -0.165 NA
ATOM     17  C   UNL d   1     -45.266  11.983  22.948  0.00  0.00     0.282 C 
ATOM     18  O   UNL d   1     -45.074  12.391  22.251  0.00  0.00    -0.265 OA
BRANCH  17  19
ATOM     19  C   UNL d   1     -44.825  11.317  23.162  0.00  0.00     0.058 A 
ATOM     20  C   UNL d   1     -44.009  11.323  23.046  0.00  0.00     0.005 A 
ATOM     21  C   UNL d   1     -43.565  10.655  23.261  0.00  0.00     0.000 A 
ATOM     22  C   UNL d   1     -43.936   9.993  23.586  0.00  0.00     0.000 A 
ATOM     23  C   UNL d   1     -44.753   9.998  23.698  0.00  0.00     0.000 A 
ATOM     24  C   UNL d   1     -45.202  10.661  23.486  0.00  0.00     0.005 A 
ENDBRANCH  17  19
ENDBRANCH   1  16
TORSDOF 3
ENDMDL
MODEL 2
REMARK VINA RESULT:      -7.8      1.060      5.498
REMARK  3 active torsions:
REMARK  status: ('A' for Active; 'I' for Inactive)
REMARK    1  A    between atoms: N_5  and  C_1 
REMARK    2  A    between atoms: C_8  and  C_3 
REMARK       I    between atoms: C_7  and  N_5 
REMARK    3  A    between atoms: C_13  and  C_7 
ROOT
ATOM      1  C   UNL d   1     -47.503  13.745  23.065  0.00  0.00     0.297 A 
ATOM      2  O   UNL d   1     -47.257  13.037  23.415  0.00  0.00    -0.253 OA
ATOM      3  C   UNL d   1     -46.578  12.778  23.014  0.00  0.00     0.206 A 
ATOM      4  N   UNL d   1     -46.413  13.326  22.422  0.00  0.00    -0.119 NA
ATOM      5  N   UNL d   1     -46.984  13.923  22.454  0.00  0.00    -0.101 NA
ENDROOT
BRANCH   3   6
ATOM      6  C   UNL d   1     -46.148  12.087  23.186  0.00  0.00     0.043 A 
ATOM      7  C   UNL d   1     -45.342  12.054  23.012  0.00  0.00     0.004 A 
ATOM      8  C   UNL d   1     -44.919  11.373  23.181  0.00  0.00     0.000 A 
ATOM      9  C   UNL d   1     -44.111  11.347  23.004  0.00  0.00     0.000 A 
ATOM     10  C   UNL d   1     -45.302  10.732  23.522  0.00  0.00     0.000 A 
ATOM     11  C   UNL d   1     -43.683  10.674  23.170  0.00  0.00     0.000 A 
ATOM     12  C   UNL d   1     -44.056  10.018  23.514  0.00  0.00     0.000 A 
ATOM     13  C   UNL d   1     -44.861  10.035  23.694  0.00  0.00     0.000 A 
ATOM     14  C   UNL d   1     -46.092  10.752  23.697  0.00  0.00     0.000 A 
ATOM     15  C   UNL d   1     -46.524  11.429  23.531  0.00  0.00     0.004 A 
ENDBRANCH   3   6
BRANCH   1  16
ATOM     16  N   UNL d   1     -48.162  14.190  23.298  0.00  0.00    -0.165 NA
ATOM     17  C   UNL d   1     -48.839  14.196  22.839  0.00  0.00     0.282 C 
ATOM     18  O   UNL d   1     -48.877  13.757  22.135  0.00  0.00    -0.265 OA
BRANCH  17  19
ATOM     19  C   UNL d   1     -49.494  14.642  23.075  0.00  0.00     0.058 A 
ATOM     20  C   UNL d   1     -50.175  14.250  23.327  0.00  0.00     0.005 A 
ATOM     21  C   UNL d   1     -50.834  14.697  23.563  0.00  0.00     0.000 A 
ATOM     22  C   UNL d   1     -50.809  15.521  23.547  0.00  0.00     0.000 A 
ATOM     23  C   UNL d   1     -50.123  15.903  23.293  0.00  0.00     0.000 A 
ATOM     24  C   UNL d   1     -49.462  15.464  23.055  0.00  0.00     0.005 A 
ENDBRANCH  17  19
ENDBRANCH   1  16
TORSDOF 3
ENDMDL
MODEL 3
REMARK VINA RESULT:      -7.4      1.357      1.921
REMARK  3 active torsions:
REMARK  status: ('A' for Active; 'I' for Inactive)
REMARK    1  A    between atoms: N_5  and  C_1 
REMARK    2  A    between atoms: C_8  and  C_3 
REMARK       I    between atoms: C_7  and  N_5 
REMARK    3  A    between atoms: C_13  and  C_7 
ROOT
ATOM      1  C   UNL d   1     -46.094  13.217  22.727  0.00  0.00     0.297 A 
ATOM      2  O   UNL d   1     -46.818  13.062  22.358  0.00  0.00    -0.253 OA
ATOM      3  C   UNL d   1     -47.410  13.080  22.940  0.00  0.00     0.206 A 
ATOM      4  N   UNL d   1     -47.047  13.245  23.660  0.00  0.00    -0.119 NA
ATOM      5  N   UNL d   1     -46.235  13.329  23.528  0.00  0.00    -0.101 NA
ENDROOT
BRANCH   3   6
ATOM      6  C   UNL d   1     -48.222  12.953  22.809  0.00  0.00     0.043 A 
ATOM      7  C   UNL d   1     -48.663  13.522  22.404  0.00  0.00     0.004 A 
ATOM      8  C   UNL d   1     -49.462  13.397  22.275  0.00  0.00     0.000 A 
ATOM      9  C   UNL d   1     -49.898  13.971  21.868  0.00  0.00     0.000 A 
ATOM     10  C   UNL d   1     -49.815  12.707  22.550  0.00  0.00     0.000 A 
ATOM     11  C   UNL d   1     -50.694  13.853  21.736  0.00  0.00     0.000 A 
ATOM     12  C   UNL d   1     -51.064  13.163  22.007  0.00  0.00     0.000 A 
ATOM     13  C   UNL d   1     -50.637  12.586  22.413  0.00  0.00     0.000 A 
ATOM     14  C   UNL d   1     -49.393  12.143  22.948  0.00  0.00     0.000 A 
ATOM     15  C   UNL d   1     -48.592  12.259  23.082  0.00  0.00     0.004 A 
ENDBRANCH   3   6
BRANCH   1  16
ATOM     16  N   UNL d   1     -45.360  13.250  22.346  0.00  0.00    -0.165 NA
ATOM     17  C   UNL d   1     -44.846  12.614  22.384  0.00  0.00     0.282 C 
ATOM     18  O   UNL d   1     -45.053  11.928  22.803  0.00  0.00    -0.265 OA
BRANCH  17  19
ATOM     19  C   UNL d   1     -44.114  12.651  22.003  0.00  0.00     0.058 A 
ATOM     20  C   UNL d   1     -43.534  12.097  22.195  0.00  0.00     0.005 A 
ATOM     21  C   UNL d   1     -42.798  12.132  21.812  0.00  0.00     0.000 A 
ATOM     22  C   UNL d   1     -42.648  12.715  21.247  0.00  0.00     0.000 A 
ATOM     23  C   UNL d   1     -43.235  13.264  21.063  0.00  0.00     0.000 A 
ATOM     24  C   UNL d   1     -43.971  13.234  21.440  0.00  0.00     0.005 A 
ENDBRANCH  17  19
ENDBRANCH   1  16
TORSDOF 3
ENDMDL
MODEL 4
REMARK VINA RESULT:      -6.9      3.313      4.525
REMARK  3 active torsions:
REMARK  status: ('A' for Active; 'I' for Inactive)
REMARK    1  A    between atoms: N_5  and  C_1 
REMARK    2  A    between atoms: C_8  and  C_3 
REMARK       I    between atoms: C_7  and  N_5 
REMARK    3  A    between atoms: C_13  and  C_7 
ROOT
ATOM      1  C   UNL d   1     -43.121  13.177  21.296  0.00  0.00     0.297 A 
ATOM      2  O   UNL d   1     -43.865  13.426  21.561  0.00  0.00    -0.253 OA
ATOM      3  C   UNL d   1     -44.223  12.787  21.951  0.00  0.00     0.206 A 
ATOM      4  N   UNL d   1     -43.700  12.153  21.923  0.00  0.00    -0.119 NA
ATOM      5  N   UNL d   1     -43.020  12.393  21.519  0.00  0.00    -0.101 NA
ENDROOT
BRANCH   3   6
ATOM      6  C   UNL d   1     -44.977  12.796  22.304  0.00  0.00     0.043 A 
ATOM      7  C   UNL d   1     -45.451  13.468  22.235  0.00  0.00     0.004 A 
ATOM      8  C   UNL d   1     -46.193  13.477  22.582  0.00  0.00     0.000 A 
ATOM      9  C   UNL d   1     -46.663  14.154  22.508  0.00  0.00     0.000 A 
ATOM     10  C   UNL d   1     -46.456  12.818  22.995  0.00  0.00     0.000 A 
ATOM     11  C   UNL d   1     -47.402  14.171  22.851  0.00  0.00     0.000 A 
ATOM     12  C   UNL d   1     -47.681  13.513  23.271  0.00  0.00     0.000 A 
ATOM     13  C   UNL d   1     -47.219  12.834  23.349  0.00  0.00     0.000 A 
ATOM     14  C   UNL d   1     -46.000  12.153  23.070  0.00  0.00     0.000 A 
ATOM     15  C   UNL d   1     -45.256  12.135  22.725  0.00  0.00     0.004 A 
ENDBRANCH   3   6
BRANCH   1  16
ATOM     16  N   UNL d   1     -42.580  13.645  20.879  0.00  0.00    -0.165 NA
ATOM     17  C   UNL d   1     -41.835  13.788  21.186  0.00  0.00     0.282 C 
ATOM     18  O   UNL d   1     -41.611  13.467  21.918  0.00  0.00    -0.265 OA
BRANCH  17  19
ATOM     19  C   UNL d   1     -41.298  14.255  20.767  0.00  0.00     0.058 A 
ATOM     20  C   UNL d   1     -41.207  15.047  20.978  0.00  0.00     0.005 A 
ATOM     21  C   UNL d   1     -40.667  15.518  20.557  0.00  0.00     0.000 A 
ATOM     22  C   UNL d   1     -40.227  15.198  19.937  0.00  0.00     0.000 A 
ATOM     23  C   UNL d   1     -40.326  14.404  19.734  0.00  0.00     0.000 A 
ATOM     24  C   UNL d   1     -40.862  13.929  20.149  0.00  0.00     0.005 A 
ENDBRANCH  17  19
ENDBRANCH   1  16
TORSDOF 3
ENDMDL
MODEL 5
REMARK VINA RESULT:      -6.7      3.767      6.488
REMARK  3 active torsions:
REMARK  status: ('A' for Active; 'I' for Inactive)
REMARK    1  A    between atoms: N_5  and  C_1 
REMARK    2  A    between atoms: C_8  and  C_3 
REMARK       I    between atoms: C_7  and  N_5 
REMARK    3  A    between atoms: C_13  and  C_7 
ROOT
ATOM      1  C   UNL d   1     -43.842  13.180  21.532  0.00  0.00     0.297 A 
ATOM      2  O   UNL d   1     -43.228  13.730  21.596  0.00  0.00    -0.253 OA
ATOM      3  C   UNL d   1     -42.554  13.401  21.238  0.00  0.00     0.206 A 
ATOM      4  N   UNL d   1     -42.759  12.655  20.958  0.00  0.00    -0.119 NA
ATOM      5  N   UNL d   1     -43.554  12.519  21.139  0.00  0.00    -0.101 NA
ENDROOT
BRANCH   3   6
ATOM      6  C   UNL d   1     -41.810  13.768  21.179  0.00  0.00     0.043 A 
ATOM      7  C   UNL d   1     -41.738  14.481  20.768  0.00  0.00     0.004 A 
ATOM      8  C   UNL d   1     -41.006  14.842  20.709  0.00  0.00     0.000 A 
ATOM      9  C   UNL d   1     -40.941  15.556  20.296  0.00  0.00     0.000 A 
ATOM     10  C   UNL d   1     -40.351  14.491  21.060  0.00  0.00     0.000 A 
ATOM     11  C   UNL d   1     -40.216  15.922  20.233  0.00  0.00     0.000 A 
ATOM     12  C   UNL d   1     -39.546  15.580  20.582  0.00  0.00     0.000 A 
ATOM     13  C   UNL d   1     -39.601  14.869  20.996  0.00  0.00     0.000 A 
ATOM     14  C   UNL d   1     -40.408  13.793  21.466  0.00  0.00     0.000 A 
ATOM     15  C   UNL d   1     -41.138  13.424  21.530  0.00  0.00     0.004 A 
ENDBRANCH   3   6
BRANCH   1  16
ATOM     16  N   UNL d   1     -44.612  13.287  21.817  0.00  0.00    -0.165 NA
ATOM     17  C   UNL d   1     -44.924  12.768  22.367  0.00  0.00     0.282 C 
ATOM     18  O   UNL d   1     -44.476  12.128  22.647  0.00  0.00    -0.265 OA
BRANCH  17  19
ATOM     19  C   UNL d   1     -45.693  12.878  22.650  0.00  0.00     0.058 A 
ATOM     20  C   UNL d   1     -46.068  12.258  23.043  0.00  0.00     0.005 A 
ATOM     21  C   UNL d   1     -46.840  12.367  23.328  0.00  0.00     0.000 A 
ATOM     22  C   UNL d   1     -47.229  13.087  23.219  0.00  0.00     0.000 A 
ATOM     23  C   UNL d   1     -46.844  13.701  22.824  0.00  0.00     0.000 A 
ATOM     24  C   UNL d   1     -46.074  13.599  22.538  0.00  0.00     0.005 A 
ENDBRANCH  17  19
ENDBRANCH   1  16
TORSDOF 3
ENDMDL
MODEL 6
REMARK VINA RESULT:      -6.6      8.420      9.653
REMARK  3 active torsions:
REMARK  status: ('A' for Active; 'I' for Inactive)
REMARK    1  A    between atoms: N_5  and  C_1 
REMARK    2  A    between atoms: C_8  and  C_3 
REMARK       I    between atoms: C_7  and  N_5 
REMARK    3  A    between atoms: C_13  and  C_7 
ROOT
ATOM      1  C   UNL d   1     -39.790  14.858  20.064  0.00  0.00     0.297 A 
ATOM      2  O   UNL d   1     -39.329  14.965  19.386  0.00  0.00    -0.253 OA
ATOM      3  C   UNL d   1     -39.727  14.610  18.749  0.00  0.00     0.206 A 
ATOM      4  N   UNL d   1     -40.427  14.289  19.040  0.00  0.00    -0.119 NA
ATOM      5  N   UNL d   1     -40.466  14.442  19.852  0.00  0.00    -0.101 NA
ENDROOT
BRANCH   3   6
ATOM      6  C   UNL d   1     -39.458  14.588  17.962  0.00  0.00     0.043 A 
ATOM      7  C   UNL d   1     -38.971  13.969  17.715  0.00  0.00     0.004 A 
ATOM      8  C   UNL d   1     -38.706  13.948  16.940  0.00  0.00     0.000 A 
ATOM      9  C   UNL d   1     -38.217  13.325  16.699  0.00  0.00     0.000 A 
ATOM     10  C   UNL d   1     -38.929  14.542  16.418  0.00  0.00     0.000 A 
ATOM     11  C   UNL d   1     -37.950  13.296  15.930  0.00  0.00     0.000 A 
ATOM     12  C   UNL d   1     -38.167  13.889  15.392  0.00  0.00     0.000 A 
ATOM     13  C   UNL d   1     -38.653  14.513  15.624  0.00  0.00     0.000 A 
ATOM     14  C   UNL d   1     -39.407  15.153  16.649  0.00  0.00     0.000 A 
ATOM     15  C   UNL d   1     -39.677  15.183  17.423  0.00  0.00     0.004 A 
ENDBRANCH   3   6
BRANCH   1  16
ATOM     16  N   UNL d   1     -39.596  15.128  20.822  0.00  0.00    -0.165 NA
ATOM     17  C   UNL d   1     -39.289  14.612  21.378  0.00  0.00     0.282 C 
ATOM     18  O   UNL d   1     -39.167  13.812  21.191  0.00  0.00    -0.265 OA
BRANCH  17  19
ATOM     19  C   UNL d   1     -39.096  14.885  22.134  0.00  0.00     0.058 A 
ATOM     20  C   UNL d   1     -38.707  14.378  22.655  0.00  0.00     0.005 A 
ATOM     21  C   UNL d   1     -38.512  14.652  23.415  0.00  0.00     0.000 A 
ATOM     22  C   UNL d   1     -38.706  15.420  23.646  0.00  0.00     0.000 A 
ATOM     23  C   UNL d   1     -39.096  15.918  23.117  0.00  0.00     0.000 A 
ATOM     24  C   UNL d   1     -39.292  15.653  22.358  0.00  0.00     0.005 A 
ENDBRANCH  17  19
ENDBRANCH   1  16
TORSDOF 3
ENDMDL
MODEL 7
REMARK VINA RESULT:      -6.4      8.504      9.824
REMARK  3 active torsions:
REMARK  status: ('A' for Active; 'I' for Inactive)
REMARK    1  A    between atoms: N_5  and  C_1 
REMARK    2  A    between atoms: C_8  and  C_3 
REMARK       I    between atoms: C_7  and  N_5 
REMARK    3  A    between atoms: C_13  and  C_7 
ROOT
ATOM      1  C   UNL d   1     -39.441  14.151  18.746  0.00  0.00     0.297 A 
ATOM      2  O   UNL d   1     -39.020  14.257  19.450  0.00  0.00    -0.253 OA
ATOM      3  C   UNL d   1     -39.568  14.421  20.052  0.00  0.00     0.206 A 
ATOM      4  N   UNL d   1     -40.319  14.415  19.715  0.00  0.00    -0.119 NA
ATOM      5  N   UNL d   1     -40.241  14.248  18.909  0.00  0.00    -0.101 NA
ENDROOT
BRANCH   3   6
ATOM      6  C   UNL d   1     -39.382  14.566  20.850  0.00  0.00     0.043 A 
ATOM      7  C   UNL d   1     -39.155  13.938  21.335  0.00  0.00     0.004 A 
ATOM      8  C   UNL d   1     -38.971  14.080  22.121  0.00  0.00     0.000 A 
ATOM      9  C   UNL d   1     -38.744  13.445  22.601  0.00  0.00     0.000 A 
ATOM     10  C   UNL d   1     -39.015  14.845  22.416  0.00  0.00     0.000 A 
ATOM     11  C   UNL d   1     -38.560  13.579  23.384  0.00  0.00     0.000 A 
ATOM     12  C   UNL d   1     -38.600  14.345  23.697  0.00  0.00     0.000 A 
ATOM     13  C   UNL d   1     -38.825  14.983  23.224  0.00  0.00     0.000 A 
ATOM     14  C   UNL d   1     -39.237  15.469  21.950  0.00  0.00     0.000 A 
ATOM     15  C   UNL d   1     -39.423  15.336  21.163  0.00  0.00     0.004 A 
ENDBRANCH   3   6
BRANCH   1  16
ATOM     16  N   UNL d   1     -39.106  13.977  18.009  0.00  0.00    -0.165 NA
ATOM     17  C   UNL d   1     -38.943  14.577  17.478  0.00  0.00     0.282 C 
ATOM     18  O   UNL d   1     -39.110  15.368  17.668  0.00  0.00    -0.265 OA
BRANCH  17  19
ATOM     19  C   UNL d   1     -38.608  14.400  16.743  0.00  0.00     0.058 A 
ATOM     20  C   UNL d   1     -38.441  15.015  16.220  0.00  0.00     0.005 A 
ATOM     21  C   UNL d   1     -38.105  14.838  15.482  0.00  0.00     0.000 A 
ATOM     22  C   UNL d   1     -37.940  14.057  15.274  0.00  0.00     0.000 A 
ATOM     23  C   UNL d   1     -38.111  13.449  15.804  0.00  0.00     0.000 A 
ATOM     24  C   UNL d   1     -38.446  13.618  16.542  0.00  0.00     0.005 A 
ENDBRANCH  17  19
ENDBRANCH   1  16
TORSDOF 3
ENDMDL
MODEL 8
REMARK VINA RESULT:      -6.3      1.397      5.416
REMARK  3 active torsions:
REMARK  status: ('A' for Active; 'I' for Inactive)
REMARK    1  A    between atoms: N_5  and  C_1 
REMARK    2  A    between atoms: C_8  and  C_3 
REMARK       I    between atoms: C_7  and  N_5 
REMARK    3  A    between atoms: C_13  and  C_7 
ROOT
ATOM      1  C   UNL d   1     -48.128  13.092  23.469  0.00  0.00     0.297 A 
ATOM      2  O   UNL d   1     -47.336  13.202  23.260  0.00  0.00    -0.253 OA
ATOM      3  C   UNL d   1     -46.984  12.453  23.188  0.00  0.00     0.206 A 
ATOM      4  N   UNL d   1     -47.561  11.890  23.354  0.00  0.00    -0.119 NA
ATOM      5  N   UNL d   1     -48.267  12.284  23.528  0.00  0.00    -0.101 NA
ENDROOT
BRANCH   3   6
ATOM      6  C   UNL d   1     -46.191  12.308  22.985  0.00  0.00     0.043 A 
ATOM      7  C   UNL d   1     -45.809  12.807  22.450  0.00  0.00     0.004 A 
ATOM      8  C   UNL d   1     -45.028  12.664  22.250  0.00  0.00     0.000 A 
ATOM      9  C   UNL d   1     -44.652  13.168  21.712  0.00  0.00     0.000 A 
ATOM     10  C   UNL d   1     -44.633  12.026  22.585  0.00  0.00     0.000 A 
ATOM     11  C   UNL d   1     -43.874  13.033  21.508  0.00  0.00     0.000 A 
ATOM     12  C   UNL d   1     -43.463  12.393  21.838  0.00  0.00     0.000 A 
ATOM     13  C   UNL d   1     -43.830  11.885  22.375  0.00  0.00     0.000 A 
ATOM     14  C   UNL d   1     -44.996  11.530  23.111  0.00  0.00     0.000 A 
ATOM     15  C   UNL d   1     -45.778  11.665  23.317  0.00  0.00     0.004 A 
ENDBRANCH   3   6
BRANCH   1  16
ATOM     16  N   UNL d   1     -48.679  13.697  23.596  0.00  0.00    -0.165 NA
ATOM     17  C   UNL d   1     -49.162  13.949  22.987  0.00  0.00     0.282 C 
ATOM     18  O   UNL d   1     -49.110  13.604  22.234  0.00  0.00    -0.265 OA
BRANCH  17  19
ATOM     19  C   UNL d   1     -49.711  14.554  23.117  0.00  0.00     0.058 A 
ATOM     20  C   UNL d   1     -50.512  14.401  22.994  0.00  0.00     0.005 A 
ATOM     21  C   UNL d   1     -51.064  15.008  23.125  0.00  0.00     0.000 A 
ATOM     22  C   UNL d   1     -50.815  15.754  23.374  0.00  0.00     0.000 A 
ATOM     23  C   UNL d   1     -50.011  15.896  23.495  0.00  0.00     0.000 A 
ATOM     24  C   UNL d   1     -49.455  15.296  23.366  0.00  0.00     0.005 A 
ENDBRANCH  17  19
ENDBRANCH   1  16
TORSDOF 3
ENDMDL
MODEL 9
REMARK VINA RESULT:      -6.0      2.311      2.945
REMARK  3 active torsions:
REMARK  status: ('A' for Active; 'I' for Inactive)
REMARK    1  A    between atoms: N_5  and  C_1 
REMARK    2  A    between atoms: C_8  and  C_3 
REMARK       I    between atoms: C_7  and  N_5 
REMARK    3  A    between atoms: C_13  and  C_7 
ROOT
ATOM      1  C   UNL d   1     -44.473  13.211  22.144  0.00  0.00     0.297 A 
ATOM      2  O   UNL d   1     -45.183  13.633  22.092  0.00  0.00    -0.253 OA
ATOM      3  C   UNL d   1     -45.799  13.126  22.321  0.00  0.00     0.206 A 
ATOM      4  N   UNL d   1     -45.465  12.398  22.512  0.00  0.00    -0.119 NA
ATOM      5  N   UNL d   1     -44.647  12.451  22.403  0.00  0.00    -0.101 NA
ENDROOT
BRANCH   3   6
ATOM      6  C   UNL d   1     -46.605  13.326  22.350  0.00  0.00     0.043 A 
ATOM      7  C   UNL d   1     -47.140  12.940  21.853  0.00  0.00     0.004 A 
ATOM      8  C   UNL d   1     -47.934  13.138  21.881  0.00  0.00     0.000 A 
ATOM      9  C   UNL d   1     -48.464  12.746  21.380  0.00  0.00     0.000 A 
ATOM     10  C   UNL d   1     -48.190  13.718  22.404  0.00  0.00     0.000 A 
ATOM     11  C   UNL d   1     -49.256  12.937  21.402  0.00  0.00     0.000 A 
ATOM     12  C   UNL d   1     -49.528  13.521  21.925  0.00  0.00     0.000 A 
ATOM     13  C   UNL d   1     -49.007  13.916  22.427  0.00  0.00     0.000 A 
ATOM     14  C   UNL d   1     -47.676  14.104  22.896  0.00  0.00     0.000 A 
ATOM     15  C   UNL d   1     -46.879  13.913  22.875  0.00  0.00     0.004 A 
ENDBRANCH   3   6
BRANCH   1  16
ATOM     16  N   UNL d   1     -43.723  13.511  21.964  0.00  0.00    -0.165 NA
ATOM     17  C   UNL d   1     -43.281  13.183  21.358  0.00  0.00     0.282 C 
ATOM     18  O   UNL d   1     -43.578  12.546  20.916  0.00  0.00    -0.265 OA
BRANCH  17  19
ATOM     19  C   UNL d   1     -42.533  13.485  21.181  0.00  0.00     0.058 A 
ATOM     20  C   UNL d   1     -42.468  14.261  20.911  0.00  0.00     0.005 A 
ATOM     21  C   UNL d   1     -41.716  14.566  20.733  0.00  0.00     0.000 A 
ATOM     22  C   UNL d   1     -41.042  14.098  20.826  0.00  0.00     0.000 A 
ATOM     23  C   UNL d   1     -41.118  13.323  21.097  0.00  0.00     0.000 A 
ATOM     24  C   UNL d   1     -41.865  13.013  21.276  0.00  0.00     0.005 A 
ENDBRANCH  17  19
ENDBRANCH   1  16
TORSDOF 3
ENDMDL
