MODEL 1
REMARK VINA RESULT:      58.3      0.000      0.000
REMARK  5 active torsions:
REMARK  status: ('A' for Active; 'I' for Inactive)
REMARK    1  A    between atoms: N_2  and  C_1 
REMARK    2  A    between atoms: C_13  and  N_6 
REMARK    3  A    between atoms: C_12  and  C_7 
REMARK    4  A    between atoms: O_22  and  C_19 
REMARK    5  A    between atoms: C_25  and  O_22 
ROOT
ATOM      1  N   UNL d   1      15.482  13.019  -0.737  0.00  0.00    -0.288 N 
ATOM      2  C   UNL d   1      15.648  13.825  -0.637  0.00  0.00     0.196 A 
ATOM      3  S   UNL d   1      16.344  13.868  -0.188  0.00  0.00    -0.092 SA
ATOM      4  C   UNL d   1      16.065  12.585  -0.356  0.00  0.00     0.268 A 
ATOM      5  C   UNL d   1      16.601  13.142  -0.016  0.00  0.00     0.093 A 
ATOM      6  O   UNL d   1      16.108  11.780  -0.321  0.00  0.00    -0.266 OA
ENDROOT
BRANCH   1   7
ATOM      7  C   UNL d   1      14.832  12.792  -1.154  0.00  0.00     0.139 A 
ATOM      8  C   UNL d   1      14.800  12.799  -1.948  0.00  0.00     0.296 A 
ATOM      9  N   UNL d   1      14.065  12.536  -2.185  0.00  0.00    -0.209 N 
ATOM     10  O   UNL d   1      15.430  13.039  -2.450  0.00  0.00    -0.264 OA
ATOM     11  N   UNL d   1      13.642  12.367  -1.519  0.00  0.00    -0.238 N 
ATOM     12  C   UNL d   1      14.136  12.532  -0.864  0.00  0.00     0.102 A 
ATOM     13  C   UNL d   1      12.880  12.089  -1.490  0.00  0.00     0.120 C 
ATOM     14  C   UNL d   1      13.951  12.446  -0.043  0.00  0.00     0.022 C 
BRANCH   9  15
ATOM     15  C   UNL d   1      13.721  12.428  -2.916  0.00  0.00     0.085 A 
ATOM     16  C   UNL d   1      13.979  12.859  -3.564  0.00  0.00     0.019 A 
ATOM     17  C   UNL d   1      13.632  12.748  -4.295  0.00  0.00     0.002 A 
ATOM     18  C   UNL d   1      13.022  12.206  -4.398  0.00  0.00     0.000 A 
ATOM     19  C   UNL d   1      12.771  11.779  -3.738  0.00  0.00     0.002 A 
ATOM     20  C   UNL d   1      13.114  11.888  -3.012  0.00  0.00     0.019 A 
ENDBRANCH   9  15
ENDBRANCH   1   7
BRANCH   2  21
ATOM     21  C   UNL d   1      15.321  14.544  -0.855  0.00  0.00    -0.001 A 
ATOM     22  C   UNL d   1      15.127  14.779  -1.692  0.00  0.00    -0.000 A 
ATOM     23  C   UNL d   1      14.778  15.572  -1.837  0.00  0.00     0.024 A 
ATOM     24  C   UNL d   1      14.641  16.086  -1.153  0.00  0.00     0.100 A 
ATOM     25  C   UNL d   1      14.834  15.836  -0.382  0.00  0.00     0.024 A 
ATOM     26  C   UNL d   1      15.168  15.085  -0.210  0.00  0.00    -0.000 A 
BRANCH  24  27
ATOM     27  O   UNL d   1      14.318  16.812  -1.314  0.00  0.00    -0.305 OA
BRANCH  27  28
ATOM     28  C   UNL d   1      14.861  17.477  -1.572  0.00  0.00     0.123 C 
ATOM     29  C   UNL d   1      15.133  17.473  -2.368  0.00  0.00     0.029 C 
ENDBRANCH  27  28
ENDBRANCH  24  27
ENDBRANCH   2  21
TORSDOF 5
ENDMDL
