MODEL 1
REMARK VINA RESULT:      -7.5      0.000      0.000
REMARK  9 active torsions:
REMARK  status: ('A' for Active; 'I' for Inactive)
REMARK    1  A    between atoms: N_3  and  C_1 
REMARK       I    between atoms: C_7  and  N_3 
REMARK    2  A    between atoms: S_10  and  C_4 
REMARK    3  A    between atoms: C_9  and  C_7 
REMARK    4  A    between atoms: C_8  and  C_17 
REMARK       I    between atoms: N_12  and  C_8 
REMARK    5  A    between atoms: C_17  and  S_10 
REMARK    6  A    between atoms: C_18  and  N_12 
REMARK    7  A    between atoms: C_22  and  C_18 
REMARK    8  A    between atoms: O_23  and  C_19 
REMARK    9  A    between atoms: C_25  and  O_23 
ROOT
ATOM      1  C   UNL d   1      51.373  33.306  52.882  0.00  0.00     0.219 A 
ATOM      2  S   UNL d   1      50.718  33.685  53.209  0.00  0.00    -0.019 SA
ATOM      3  C   UNL d   1      50.580  34.378  52.793  0.00  0.00     0.165 A 
ATOM      4  N   UNL d   1      51.641  33.774  52.254  0.00  0.00    -0.120 NA
ATOM      5  N   UNL d   1      51.152  34.436  52.200  0.00  0.00    -0.133 NA
ENDROOT
BRANCH   1   6
ATOM      6  N   UNL d   1      51.699  32.588  53.137  0.00  0.00    -0.181 NA
ATOM      7  C   UNL d   1      52.475  32.396  52.922  0.00  0.00     0.281 C 
ATOM      8  O   UNL d   1      52.917  32.913  52.460  0.00  0.00    -0.265 OA
BRANCH   7   9
ATOM      9  C   UNL d   1      52.803  31.680  53.175  0.00  0.00     0.058 A 
ATOM     10  C   UNL d   1      53.405  31.685  53.736  0.00  0.00     0.007 A 
ATOM     11  C   UNL d   1      53.728  30.968  53.984  0.00  0.00     0.025 A 
ATOM     12  C   UNL d   1      53.454  30.263  53.677  0.00  0.00     0.100 A 
ATOM     13  C   UNL d   1      52.848  30.260  53.112  0.00  0.00     0.025 A 
ATOM     14  C   UNL d   1      52.525  30.978  52.864  0.00  0.00     0.007 A 
BRANCH  12  15
ATOM     15  O   UNL d   1      53.774  29.543  53.922  0.00  0.00    -0.305 OA
BRANCH  15  16
ATOM     16  C   UNL d   1      53.353  29.035  54.404  0.00  0.00     0.123 C 
ATOM     17  C   UNL d   1      53.742  28.415  54.814  0.00  0.00     0.029 C 
ENDBRANCH  15  16
ENDBRANCH  12  15
ENDBRANCH   7   9
ENDBRANCH   1   6
BRANCH   3  18
ATOM     18  S   UNL d   1      49.976  34.919  52.945  0.00  0.00    -0.054 SA
BRANCH  18  19
ATOM     19  C   UNL d   1      49.276  34.882  52.499  0.00  0.00     0.100 C 
BRANCH  19  20
ATOM     20  C   UNL d   1      48.675  35.428  52.634  0.00  0.00     0.286 C 
ATOM     21  N   UNL d   1      48.002  35.418  52.163  0.00  0.00    -0.204 NA
ATOM     22  O   UNL d   1      48.743  35.989  53.241  0.00  0.00    -0.265 OA
BRANCH  21  23
ATOM     23  C   UNL d   1      47.395  35.968  52.297  0.00  0.00     0.127 C 
BRANCH  23  24
ATOM     24  C   UNL d   1      46.686  35.903  51.887  0.00  0.00     0.119 A 
ATOM     25  O   UNL d   1      46.544  35.444  51.213  0.00  0.00    -0.304 OA
ATOM     26  C   UNL d   1      45.749  35.548  50.988  0.00  0.00     0.123 A 
ATOM     27  C   UNL d   1      45.398  36.066  51.516  0.00  0.00     0.029 A 
ATOM     28  C   UNL d   1      45.973  36.282  52.067  0.00  0.00     0.028 A 
ENDBRANCH  23  24
ENDBRANCH  21  23
ENDBRANCH  19  20
ENDBRANCH  18  19
ENDBRANCH   3  18
TORSDOF 9
ENDMDL
MODEL 2
REMARK VINA RESULT:      -6.8      1.073      7.143
REMARK  9 active torsions:
REMARK  status: ('A' for Active; 'I' for Inactive)
REMARK    1  A    between atoms: N_3  and  C_1 
REMARK       I    between atoms: C_7  and  N_3 
REMARK    2  A    between atoms: S_10  and  C_4 
REMARK    3  A    between atoms: C_9  and  C_7 
REMARK    4  A    between atoms: C_8  and  C_17 
REMARK       I    between atoms: N_12  and  C_8 
REMARK    5  A    between atoms: C_17  and  S_10 
REMARK    6  A    between atoms: C_18  and  N_12 
REMARK    7  A    between atoms: C_22  and  C_18 
REMARK    8  A    between atoms: O_23  and  C_19 
REMARK    9  A    between atoms: C_25  and  O_23 
ROOT
ATOM      1  C   UNL d   1      50.499  34.497  52.651  0.00  0.00     0.219 A 
ATOM      2  S   UNL d   1      50.892  34.026  53.200  0.00  0.00    -0.019 SA
ATOM      3  C   UNL d   1      51.555  33.701  52.842  0.00  0.00     0.165 A 
ATOM      4  N   UNL d   1      50.926  34.461  51.944  0.00  0.00    -0.120 NA
ATOM      5  N   UNL d   1      51.578  33.970  52.061  0.00  0.00    -0.133 NA
ENDROOT
BRANCH   1   6
ATOM      6  N   UNL d   1      49.802  34.926  52.787  0.00  0.00    -0.181 NA
ATOM      7  C   UNL d   1      49.214  34.937  52.206  0.00  0.00     0.281 C 
ATOM      8  O   UNL d   1      49.319  34.526  51.501  0.00  0.00    -0.265 OA
BRANCH   7   9
ATOM      9  C   UNL d   1      48.518  35.364  52.338  0.00  0.00     0.058 A 
ATOM     10  C   UNL d   1      47.928  35.369  51.763  0.00  0.00     0.007 A 
ATOM     11  C   UNL d   1      47.237  35.797  51.902  0.00  0.00     0.025 A 
ATOM     12  C   UNL d   1      47.139  36.210  52.599  0.00  0.00     0.100 A 
ATOM     13  C   UNL d   1      47.733  36.204  53.177  0.00  0.00     0.025 A 
ATOM     14  C   UNL d   1      48.425  35.776  53.037  0.00  0.00     0.007 A 
BRANCH  12  15
ATOM     15  O   UNL d   1      46.450  36.640  52.743  0.00  0.00    -0.305 OA
BRANCH  15  16
ATOM     16  C   UNL d   1      45.739  36.264  52.888  0.00  0.00     0.123 C 
ATOM     17  C   UNL d   1      45.045  36.709  53.047  0.00  0.00     0.029 C 
ENDBRANCH  15  16
ENDBRANCH  12  15
ENDBRANCH   7   9
ENDBRANCH   1   6
BRANCH   3  18
ATOM     18  S   UNL d   1      52.099  33.196  53.201  0.00  0.00    -0.054 SA
BRANCH  18  19
ATOM     19  C   UNL d   1      52.435  32.578  52.759  0.00  0.00     0.100 C 
BRANCH  19  20
ATOM     20  C   UNL d   1      53.014  32.101  53.096  0.00  0.00     0.286 C 
ATOM     21  N   UNL d   1      52.864  31.302  53.215  0.00  0.00    -0.204 NA
ATOM     22  O   UNL d   1      53.748  32.418  53.316  0.00  0.00    -0.265 OA
BRANCH  21  23
ATOM     23  C   UNL d   1      53.448  30.818  53.555  0.00  0.00     0.127 C 
BRANCH  23  24
ATOM     24  C   UNL d   1      53.255  30.060  53.804  0.00  0.00     0.119 A 
ATOM     25  O   UNL d   1      52.638  29.586  53.521  0.00  0.00    -0.304 OA
ATOM     26  C   UNL d   1      52.652  28.862  53.933  0.00  0.00     0.123 A 
ATOM     27  C   UNL d   1      53.272  28.883  54.468  0.00  0.00     0.029 A 
ATOM     28  C   UNL d   1      53.641  29.617  54.388  0.00  0.00     0.028 A 
ENDBRANCH  23  24
ENDBRANCH  21  23
ENDBRANCH  19  20
ENDBRANCH  18  19
ENDBRANCH   3  18
TORSDOF 9
ENDMDL
MODEL 3
REMARK VINA RESULT:      -6.8      1.684      7.294
REMARK  9 active torsions:
REMARK  status: ('A' for Active; 'I' for Inactive)
REMARK    1  A    between atoms: N_3  and  C_1 
REMARK       I    between atoms: C_7  and  N_3 
REMARK    2  A    between atoms: S_10  and  C_4 
REMARK    3  A    between atoms: C_9  and  C_7 
REMARK    4  A    between atoms: C_8  and  C_17 
REMARK       I    between atoms: N_12  and  C_8 
REMARK    5  A    between atoms: C_17  and  S_10 
REMARK    6  A    between atoms: C_18  and  N_12 
REMARK    7  A    between atoms: C_22  and  C_18 
REMARK    8  A    between atoms: O_23  and  C_19 
REMARK    9  A    between atoms: C_25  and  O_23 
ROOT
ATOM      1  C   UNL d   1      49.812  34.623  52.409  0.00  0.00     0.219 A 
ATOM      2  S   UNL d   1      50.231  34.268  53.023  0.00  0.00    -0.019 SA
ATOM      3  C   UNL d   1      50.911  33.928  52.716  0.00  0.00     0.165 A 
ATOM      4  N   UNL d   1      50.242  34.499  51.713  0.00  0.00    -0.120 NA
ATOM      5  N   UNL d   1      50.920  34.070  51.902  0.00  0.00    -0.133 NA
ENDROOT
BRANCH   1   6
ATOM      6  N   UNL d   1      49.092  35.029  52.480  0.00  0.00    -0.181 NA
ATOM      7  C   UNL d   1      48.574  35.050  51.835  0.00  0.00     0.281 C 
ATOM      8  O   UNL d   1      48.772  34.672  51.132  0.00  0.00    -0.265 OA
BRANCH   7   9
ATOM      9  C   UNL d   1      47.856  35.454  51.902  0.00  0.00     0.058 A 
ATOM     10  C   UNL d   1      47.224  35.244  51.418  0.00  0.00     0.007 A 
ATOM     11  C   UNL d   1      46.510  35.651  51.491  0.00  0.00     0.025 A 
ATOM     12  C   UNL d   1      46.431  36.254  52.035  0.00  0.00     0.100 A 
ATOM     13  C   UNL d   1      47.068  36.464  52.522  0.00  0.00     0.025 A 
ATOM     14  C   UNL d   1      47.782  36.056  52.449  0.00  0.00     0.007 A 
BRANCH  12  15
ATOM     15  O   UNL d   1      45.720  36.664  52.112  0.00  0.00    -0.305 OA
BRANCH  15  16
ATOM     16  C   UNL d   1      45.183  36.474  52.697  0.00  0.00     0.123 C 
ATOM     17  C   UNL d   1      44.379  36.708  52.632  0.00  0.00     0.029 C 
ENDBRANCH  15  16
ENDBRANCH  12  15
ENDBRANCH   7   9
ENDBRANCH   1   6
BRANCH   3  18
ATOM     18  S   UNL d   1      51.482  33.517  53.147  0.00  0.00    -0.054 SA
BRANCH  18  19
ATOM     19  C   UNL d   1      52.063  33.083  52.743  0.00  0.00     0.100 C 
BRANCH  19  20
ATOM     20  C   UNL d   1      52.619  32.649  53.167  0.00  0.00     0.286 C 
ATOM     21  N   UNL d   1      53.175  33.040  53.629  0.00  0.00    -0.204 NA
ATOM     22  O   UNL d   1      52.625  31.821  53.132  0.00  0.00    -0.265 OA
BRANCH  21  23
ATOM     23  C   UNL d   1      53.737  32.604  54.057  0.00  0.00     0.127 C 
BRANCH  23  24
ATOM     24  C   UNL d   1      54.234  32.987  54.587  0.00  0.00     0.119 A 
ATOM     25  O   UNL d   1      54.148  33.023  55.410  0.00  0.00    -0.304 OA
ATOM     26  C   UNL d   1      54.780  33.469  55.720  0.00  0.00     0.123 A 
ATOM     27  C   UNL d   1      55.256  33.708  55.097  0.00  0.00     0.029 A 
ATOM     28  C   UNL d   1      54.920  33.412  54.404  0.00  0.00     0.028 A 
ENDBRANCH  23  24
ENDBRANCH  21  23
ENDBRANCH  19  20
ENDBRANCH  18  19
ENDBRANCH   3  18
TORSDOF 9
ENDMDL
MODEL 4
REMARK VINA RESULT:      -6.7      2.180      3.097
REMARK  9 active torsions:
REMARK  status: ('A' for Active; 'I' for Inactive)
REMARK    1  A    between atoms: N_3  and  C_1 
REMARK       I    between atoms: C_7  and  N_3 
REMARK    2  A    between atoms: S_10  and  C_4 
REMARK    3  A    between atoms: C_9  and  C_7 
REMARK    4  A    between atoms: C_8  and  C_17 
REMARK       I    between atoms: N_12  and  C_8 
REMARK    5  A    between atoms: C_17  and  S_10 
REMARK    6  A    between atoms: C_18  and  N_12 
REMARK    7  A    between atoms: C_22  and  C_18 
REMARK    8  A    between atoms: O_23  and  C_19 
REMARK    9  A    between atoms: C_25  and  O_23 
ROOT
ATOM      1  C   UNL d   1      49.710  34.681  52.545  0.00  0.00     0.219 A 
ATOM      2  S   UNL d   1      49.154  35.212  52.839  0.00  0.00    -0.019 SA
ATOM      3  C   UNL d   1      48.544  35.283  52.294  0.00  0.00     0.165 A 
ATOM      4  N   UNL d   1      49.439  34.420  51.808  0.00  0.00    -0.120 NA
ATOM      5  N   UNL d   1      48.720  34.792  51.654  0.00  0.00    -0.133 NA
ENDROOT
BRANCH   1   6
ATOM      6  N   UNL d   1      50.412  34.452  52.922  0.00  0.00    -0.181 NA
ATOM      7  C   UNL d   1      51.080  34.279  52.465  0.00  0.00     0.281 C 
ATOM      8  O   UNL d   1      51.047  34.334  51.646  0.00  0.00    -0.265 OA
BRANCH   7   9
ATOM      9  C   UNL d   1      51.782  34.050  52.838  0.00  0.00     0.058 A 
ATOM     10  C   UNL d   1      52.290  34.625  53.137  0.00  0.00     0.007 A 
ATOM     11  C   UNL d   1      52.988  34.390  53.507  0.00  0.00     0.025 A 
ATOM     12  C   UNL d   1      53.173  33.598  53.578  0.00  0.00     0.100 A 
ATOM     13  C   UNL d   1      52.660  33.020  53.277  0.00  0.00     0.025 A 
ATOM     14  C   UNL d   1      51.961  33.256  52.905  0.00  0.00     0.007 A 
BRANCH  12  15
ATOM     15  O   UNL d   1      53.869  33.357  53.947  0.00  0.00    -0.305 OA
BRANCH  15  16
ATOM     16  C   UNL d   1      53.985  33.473  54.748  0.00  0.00     0.123 C 
ATOM     17  C   UNL d   1      54.711  33.255  55.110  0.00  0.00     0.029 C 
ENDBRANCH  15  16
ENDBRANCH  12  15
ENDBRANCH   7   9
ENDBRANCH   1   6
BRANCH   3  18
ATOM     18  S   UNL d   1      47.877  35.761  52.377  0.00  0.00    -0.054 SA
BRANCH  18  19
ATOM     19  C   UNL d   1      47.549  35.875  53.131  0.00  0.00     0.100 C 
BRANCH  19  20
ATOM     20  C   UNL d   1      46.802  36.210  53.206  0.00  0.00     0.286 C 
ATOM     21  N   UNL d   1      46.357  36.068  53.882  0.00  0.00    -0.204 NA
ATOM     22  O   UNL d   1      46.492  36.691  52.606  0.00  0.00    -0.265 OA
BRANCH  21  23
ATOM     23  C   UNL d   1      45.603  36.406  53.960  0.00  0.00     0.127 C 
BRANCH  23  24
ATOM     24  C   UNL d   1      45.147  36.240  54.623  0.00  0.00     0.119 A 
ATOM     25  O   UNL d   1      44.674  35.572  54.745  0.00  0.00    -0.304 OA
ATOM     26  C   UNL d   1      44.314  35.638  55.494  0.00  0.00     0.123 A 
ATOM     27  C   UNL d   1      44.560  36.341  55.836  0.00  0.00     0.029 A 
ATOM     28  C   UNL d   1      45.070  36.708  55.301  0.00  0.00     0.028 A 
ENDBRANCH  23  24
ENDBRANCH  21  23
ENDBRANCH  19  20
ENDBRANCH  18  19
ENDBRANCH   3  18
TORSDOF 9
ENDMDL
MODEL 5
REMARK VINA RESULT:      -6.2      1.755      2.327
REMARK  9 active torsions:
REMARK  status: ('A' for Active; 'I' for Inactive)
REMARK    1  A    between atoms: N_3  and  C_1 
REMARK       I    between atoms: C_7  and  N_3 
REMARK    2  A    between atoms: S_10  and  C_4 
REMARK    3  A    between atoms: C_9  and  C_7 
REMARK    4  A    between atoms: C_8  and  C_17 
REMARK       I    between atoms: N_12  and  C_8 
REMARK    5  A    between atoms: C_17  and  S_10 
REMARK    6  A    between atoms: C_18  and  N_12 
REMARK    7  A    between atoms: C_22  and  C_18 
REMARK    8  A    between atoms: O_23  and  C_19 
REMARK    9  A    between atoms: C_25  and  O_23 
ROOT
ATOM      1  C   UNL d   1      50.701  34.413  52.588  0.00  0.00     0.219 A 
ATOM      2  S   UNL d   1      50.069  34.829  52.913  0.00  0.00    -0.019 SA
ATOM      3  C   UNL d   1      49.441  34.808  52.385  0.00  0.00     0.165 A 
ATOM      4  N   UNL d   1      50.459  34.131  51.849  0.00  0.00    -0.120 NA
ATOM      5  N   UNL d   1      49.681  34.375  51.724  0.00  0.00    -0.133 NA
ENDROOT
BRANCH   1   6
ATOM      6  N   UNL d   1      51.443  34.300  52.941  0.00  0.00    -0.181 NA
ATOM      7  C   UNL d   1      51.626  33.564  53.273  0.00  0.00     0.281 C 
ATOM      8  O   UNL d   1      51.077  32.952  53.252  0.00  0.00    -0.265 OA
BRANCH   7   9
ATOM      9  C   UNL d   1      52.365  33.447  53.625  0.00  0.00     0.058 A 
ATOM     10  C   UNL d   1      52.701  34.051  54.072  0.00  0.00     0.007 A 
ATOM     11  C   UNL d   1      53.439  33.928  54.421  0.00  0.00     0.025 A 
ATOM     12  C   UNL d   1      53.829  33.218  54.325  0.00  0.00     0.100 A 
ATOM     13  C   UNL d   1      53.489  32.611  53.875  0.00  0.00     0.025 A 
ATOM     14  C   UNL d   1      52.751  32.734  53.525  0.00  0.00     0.007 A 
BRANCH  12  15
ATOM     15  O   UNL d   1      54.566  33.090  54.672  0.00  0.00    -0.305 OA
BRANCH  15  16
ATOM     16  C   UNL d   1      55.082  33.708  54.808  0.00  0.00     0.123 C 
ATOM     17  C   UNL d   1      55.570  33.715  55.492  0.00  0.00     0.029 C 
ENDBRANCH  15  16
ENDBRANCH  12  15
ENDBRANCH   7   9
ENDBRANCH   1   6
BRANCH   3  18
ATOM     18  S   UNL d   1      48.703  35.158  52.499  0.00  0.00    -0.054 SA
BRANCH  18  19
ATOM     19  C   UNL d   1      48.286  35.452  51.844  0.00  0.00     0.100 C 
BRANCH  19  20
ATOM     20  C   UNL d   1      47.570  35.842  51.955  0.00  0.00     0.286 C 
ATOM     21  N   UNL d   1      46.885  35.538  51.618  0.00  0.00    -0.204 NA
ATOM     22  O   UNL d   1      47.533  36.539  52.403  0.00  0.00    -0.265 OA
BRANCH  21  23
ATOM     23  C   UNL d   1      46.162  35.930  51.729  0.00  0.00     0.127 C 
BRANCH  23  24
ATOM     24  C   UNL d   1      45.465  35.585  51.465  0.00  0.00     0.119 A 
ATOM     25  O   UNL d   1      44.946  35.115  51.907  0.00  0.00    -0.304 OA
ATOM     26  C   UNL d   1      44.315  34.886  51.414  0.00  0.00     0.123 A 
ATOM     27  C   UNL d   1      44.438  35.210  50.672  0.00  0.00     0.029 A 
ATOM     28  C   UNL d   1      45.143  35.637  50.705  0.00  0.00     0.028 A 
ENDBRANCH  23  24
ENDBRANCH  21  23
ENDBRANCH  19  20
ENDBRANCH  18  19
ENDBRANCH   3  18
TORSDOF 9
ENDMDL
