MODEL 1
REMARK VINA RESULT:      -2.6      0.000      0.000
REMARK  5 active torsions:
REMARK  status: ('A' for Active; 'I' for Inactive)
REMARK    1  A    between atoms: O_8  and  S_1 
REMARK    2  A    between atoms: C_9  and  S_1 
REMARK    3  A    between atoms: C_7  and  C_2 
REMARK    4  A    between atoms: C_20  and  C_7 
REMARK    5  A    between atoms: C_14  and  O_8 
ROOT
ATOM      1  C   UNL d   1      30.920  16.620 -24.258  0.00  0.00     0.139 A 
ATOM      2  C   UNL d   1      32.112  16.974 -23.788  0.00  0.00     0.064 A 
ATOM      3  C   UNL d   1      31.615  16.333 -23.917  0.00  0.00     0.220 A 
ATOM      4  C   UNL d   1      31.732  17.658 -24.048  0.00  0.00     0.105 A 
ATOM      5  O   UNL d   1      30.992  17.438 -24.340  0.00  0.00    -0.304 OA
ATOM      6  C   UNL d   1      32.108  18.379 -23.983  0.00  0.00     0.050 A 
ATOM      7  C   UNL d   1      32.869  17.020 -23.465  0.00  0.00     0.007 A 
ATOM      8  C   UNL d   1      32.864  18.425 -23.660  0.00  0.00     0.116 A 
ATOM      9  O   UNL d   1      31.771  15.543 -23.740  0.00  0.00    -0.284 OA
ATOM     10  C   UNL d   1      33.241  17.747 -23.403  0.00  0.00     0.026 A 
ENDROOT
BRANCH   8  11
ATOM     11  O   UNL d   1      33.240  19.154 -23.597  0.00  0.00    -0.227 OA
BRANCH  11  12
ATOM     12  S   UNL d   1      33.109  19.630 -22.936  0.00  0.00     0.304 S 
ATOM     13  O   UNL d   1      33.102  20.289 -23.413  0.00  0.00    -0.193 OA
ATOM     14  O   UNL d   1      33.114  18.973 -22.445  0.00  0.00    -0.193 OA
BRANCH  12  15
ATOM     15  C   UNL d   1      32.976  20.116 -22.271  0.00  0.00     0.111 A 
ATOM     16  C   UNL d   1      32.578  20.835 -22.364  0.00  0.00     0.014 A 
ATOM     17  C   UNL d   1      32.447  21.316 -21.707  0.00  0.00     0.012 A 
ATOM     18  C   UNL d   1      32.713  21.078 -20.957  0.00  0.00     0.058 A 
ATOM     19  C   UNL d   1      33.111  20.355 -20.877  0.00  0.00     0.012 A 
ATOM     20 CL   UNL d   1      32.584  21.552 -20.310  0.00  0.00    -0.082 Cl
ATOM     21  C   UNL d   1      33.241  19.877 -21.537  0.00  0.00     0.014 A 
ENDBRANCH  12  15
ENDBRANCH  11  12
ENDBRANCH   8  11
BRANCH   1  22
ATOM     22  C   UNL d   1      30.265  16.171 -24.482  0.00  0.00     0.029 C 
BRANCH  22  23
ATOM     23  C   UNL d   1      29.505  16.379 -24.226  0.00  0.00     0.021 A 
ATOM     24  C   UNL d   1      29.079  16.935 -24.651  0.00  0.00     0.099 A 
ATOM     25  N   UNL d   1      28.326  17.150 -24.409  0.00  0.00    -0.242 NA
ATOM     26  C   UNL d   1      27.993  16.801 -23.729  0.00  0.00     0.099 A 
ATOM     27  C   UNL d   1      28.428  16.240 -23.304  0.00  0.00     0.021 A 
ATOM     28  C   UNL d   1      29.187  16.033 -23.559  0.00  0.00     0.003 A 
ENDBRANCH  22  23
ENDBRANCH   1  22
TORSDOF 5
ENDMDL
MODEL 2
REMARK VINA RESULT:      -0.6      1.024      1.365
REMARK  5 active torsions:
REMARK  status: ('A' for Active; 'I' for Inactive)
REMARK    1  A    between atoms: O_8  and  S_1 
REMARK    2  A    between atoms: C_9  and  S_1 
REMARK    3  A    between atoms: C_7  and  C_2 
REMARK    4  A    between atoms: C_20  and  C_7 
REMARK    5  A    between atoms: C_14  and  O_8 
ROOT
ATOM      1  C   UNL d   1      31.484  17.707 -24.274  0.00  0.00     0.139 A 
ATOM      2  C   UNL d   1      32.374  18.215 -23.425  0.00  0.00     0.064 A 
ATOM      3  C   UNL d   1      31.997  17.521 -23.654  0.00  0.00     0.220 A 
ATOM      4  C   UNL d   1      32.100  18.832 -23.899  0.00  0.00     0.105 A 
ATOM      5  O   UNL d   1      31.547  18.516 -24.426  0.00  0.00    -0.304 OA
ATOM      6  C   UNL d   1      32.387  19.586 -23.787  0.00  0.00     0.050 A 
ATOM      7  C   UNL d   1      32.936  18.362 -22.842  0.00  0.00     0.007 A 
ATOM      8  C   UNL d   1      32.949  19.734 -23.204  0.00  0.00     0.116 A 
ATOM      9  O   UNL d   1      32.104  16.771 -23.329  0.00  0.00    -0.284 OA
ATOM     10  C   UNL d   1      33.221  19.123 -22.734  0.00  0.00     0.026 A 
ENDROOT
BRANCH   8  11
ATOM     11  O   UNL d   1      33.236  20.497 -23.094  0.00  0.00    -0.227 OA
BRANCH  11  12
ATOM     12  S   UNL d   1      32.927  20.973 -22.496  0.00  0.00     0.304 S 
ATOM     13  O   UNL d   1      32.631  21.484 -23.054  0.00  0.00    -0.193 OA
ATOM     14  O   UNL d   1      33.221  20.464 -21.922  0.00  0.00    -0.193 OA
BRANCH  12  15
ATOM     15  C   UNL d   1      32.613  21.457 -21.894  0.00  0.00     0.111 A 
ATOM     16  C   UNL d   1      32.518  22.267 -22.030  0.00  0.00     0.014 A 
ATOM     17  C   UNL d   1      32.207  22.747 -21.435  0.00  0.00     0.012 A 
ATOM     18  C   UNL d   1      31.992  22.416 -20.704  0.00  0.00     0.058 A 
ATOM     19  C   UNL d   1      32.092  21.603 -20.580  0.00  0.00     0.012 A 
ATOM     20 CL   UNL d   1      31.686  22.889 -20.118  0.00  0.00    -0.082 Cl
ATOM     21  C   UNL d   1      32.403  21.126 -21.177  0.00  0.00     0.014 A 
ENDBRANCH  12  15
ENDBRANCH  11  12
ENDBRANCH   8  11
BRANCH   1  22
ATOM     22  C   UNL d   1      30.993  17.180 -24.675  0.00  0.00     0.029 C 
BRANCH  22  23
ATOM     23  C   UNL d   1      30.170  17.229 -24.597  0.00  0.00     0.021 A 
ATOM     24  C   UNL d   1      29.802  17.956 -24.690  0.00  0.00     0.099 A 
ATOM     25  N   UNL d   1      28.989  18.018 -24.616  0.00  0.00    -0.242 NA
ATOM     26  C   UNL d   1      28.534  17.340 -24.444  0.00  0.00     0.099 A 
ATOM     27  C   UNL d   1      28.910  16.610 -24.350  0.00  0.00     0.021 A 
ATOM     28  C   UNL d   1      29.732  16.561 -24.428  0.00  0.00     0.003 A 
ENDBRANCH  22  23
ENDBRANCH   1  22
TORSDOF 5
ENDMDL
