MODEL 1
REMARK VINA RESULT:      45.1      0.000      0.000
REMARK  3 active torsions:
REMARK  status: ('A' for Active; 'I' for Inactive)
REMARK    1  A    between atoms: N_5  and  C_1 
REMARK       I    between atoms: C_6  and  N_5 
REMARK    2  A    between atoms: C_8  and  C_6 
REMARK    3  A    between atoms: O_16  and  C_12 
ROOT
ATOM      1  C   UNL d   1      14.754  15.352  -0.826  0.00  0.00     0.124 A 
ATOM      2  C   UNL d   1      14.830  15.784  -1.510  0.00  0.00     0.093 A 
ATOM      3  S   UNL d   1      15.124  15.741  -0.206  0.00  0.00    -0.067 SA
ATOM      4  C   UNL d   1      15.253  16.467  -1.347  0.00  0.00     0.018 A 
ATOM      5  C   UNL d   1      15.443  16.439  -0.508  0.00  0.00     0.032 A 
ATOM      6  C   UNL d   1      14.519  15.573  -2.297  0.00  0.00     0.103 C 
ATOM      7  N   UNL d   1      14.218  15.361  -3.043  0.00  0.00    -0.191 NA
ATOM      8  C   UNL d   1      15.576  17.166  -1.633  0.00  0.00     0.001 A 
ATOM      9  C   UNL d   1      15.870  17.123  -0.329  0.00  0.00     0.006 A 
ATOM     10  C   UNL d   1      15.948  17.562  -1.023  0.00  0.00     0.001 A 
ENDROOT
BRANCH   1  11
ATOM     11  N   UNL d   1      14.346  14.597  -0.759  0.00  0.00    -0.201 NA
ATOM     12  C   UNL d   1      14.725  13.976  -0.391  0.00  0.00     0.281 C 
ATOM     13  O   UNL d   1      15.503  14.033  -0.069  0.00  0.00    -0.265 OA
BRANCH  12  14
ATOM     14  C   UNL d   1      14.329  13.242  -0.326  0.00  0.00     0.080 A 
ATOM     15  C   UNL d   1      14.742  12.507  -0.511  0.00  0.00     0.099 A 
ATOM     16  C   UNL d   1      14.354  11.788  -0.447  0.00  0.00     0.024 A 
ATOM     17  C   UNL d   1      13.548  11.796  -0.197  0.00  0.00     0.002 A 
ATOM     18  C   UNL d   1      13.150  12.429  -0.025  0.00  0.00     0.000 A 
ATOM     19  C   UNL d   1      13.530  13.200  -0.082  0.00  0.00     0.007 A 
BRANCH  15  20
ATOM     20  O   UNL d   1      15.542  12.502  -0.759  0.00  0.00    -0.328 OA
ATOM     21  C   UNL d   1      15.856  11.870  -1.195  0.00  0.00     0.181 C 
ENDBRANCH  15  20
ENDBRANCH  12  14
ENDBRANCH   1  11
TORSDOF 3
ENDMDL
MODEL 2
REMARK VINA RESULT:      47.1      2.221      2.645
REMARK  3 active torsions:
REMARK  status: ('A' for Active; 'I' for Inactive)
REMARK    1  A    between atoms: N_5  and  C_1 
REMARK       I    between atoms: C_6  and  N_5 
REMARK    2  A    between atoms: C_8  and  C_6 
REMARK    3  A    between atoms: O_16  and  C_12 
ROOT
ATOM      1  C   UNL d   1      14.528  14.670  -1.997  0.00  0.00     0.124 A 
ATOM      2  C   UNL d   1      14.843  14.751  -1.253  0.00  0.00     0.093 A 
ATOM      3  S   UNL d   1      14.516  15.397  -2.376  0.00  0.00    -0.067 SA
ATOM      4  C   UNL d   1      15.043  15.537  -1.132  0.00  0.00     0.018 A 
ATOM      5  C   UNL d   1      14.832  15.953  -1.856  0.00  0.00     0.032 A 
ATOM      6  C   UNL d   1      14.958  14.117  -0.664  0.00  0.00     0.103 C 
ATOM      7  N   UNL d   1      15.062  13.505  -0.110  0.00  0.00    -0.191 NA
ATOM      8  C   UNL d   1      15.355  16.101  -0.625  0.00  0.00     0.001 A 
ATOM      9  C   UNL d   1      15.028  16.747  -1.749  0.00  0.00     0.006 A 
ATOM     10  C   UNL d   1      15.348  16.830  -0.994  0.00  0.00     0.001 A 
ENDROOT
BRANCH   1  11
ATOM     11  N   UNL d   1      14.248  13.932  -2.340  0.00  0.00    -0.201 NA
ATOM     12  C   UNL d   1      13.877  13.950  -3.066  0.00  0.00     0.281 C 
ATOM     13  O   UNL d   1      13.751  14.661  -3.504  0.00  0.00    -0.265 OA
BRANCH  12  14
ATOM     14  C   UNL d   1      13.605  13.233  -3.399  0.00  0.00     0.080 A 
ATOM     15  C   UNL d   1      13.638  12.501  -2.942  0.00  0.00     0.099 A 
ATOM     16  C   UNL d   1      13.372  11.798  -3.269  0.00  0.00     0.024 A 
ATOM     17  C   UNL d   1      13.069  11.819  -4.056  0.00  0.00     0.002 A 
ATOM     18  C   UNL d   1      13.024  12.450  -4.491  0.00  0.00     0.000 A 
ATOM     19  C   UNL d   1      13.296  13.204  -4.176  0.00  0.00     0.007 A 
BRANCH  15  20
ATOM     20  O   UNL d   1      13.940  12.484  -2.161  0.00  0.00    -0.328 OA
ATOM     21  C   UNL d   1      14.212  11.779  -1.818  0.00  0.00     0.181 C 
ENDBRANCH  15  20
ENDBRANCH  12  14
ENDBRANCH   1  11
TORSDOF 3
ENDMDL
