MODEL 1
REMARK VINA RESULT:      -9.2      0.000      0.000
REMARK  2 active torsions:
REMARK  status: ('A' for Active; 'I' for Inactive)
REMARK    1  A    between atoms: C_8  and  N_1 
REMARK    2  A    between atoms: N_5  and  C_9 
ROOT
ATOM      1  N   UNL d   1     -48.345  13.503  22.708  0.00  0.00    -0.192 N 
ATOM      2  C   UNL d   1     -48.931  13.190  22.214  0.00  0.00     0.281 A 
ATOM      3  N   UNL d   1     -48.465  14.203  23.075  0.00  0.00    -0.120 NA
ATOM      4  C   UNL d   1     -49.170  14.621  22.968  0.00  0.00     0.296 A 
ATOM      5  C   UNL d   1     -49.640  13.594  22.095  0.00  0.00     0.063 A 
ATOM      6  C   UNL d   1     -49.768  14.347  22.491  0.00  0.00     0.064 A 
ATOM      7  O   UNL d   1     -48.818  12.465  21.827  0.00  0.00    -0.265 OA
ATOM      8  O   UNL d   1     -49.280  15.328  23.344  0.00  0.00    -0.264 OA
ATOM      9  C   UNL d   1     -50.228  13.295  21.608  0.00  0.00     0.005 A 
ATOM     10  C   UNL d   1     -50.471  14.731  22.363  0.00  0.00     0.005 A 
ATOM     11  C   UNL d   1     -50.939  13.718  21.500  0.00  0.00     0.000 A 
ATOM     12  C   UNL d   1     -51.064  14.421  21.866  0.00  0.00     0.000 A 
ENDROOT
BRANCH   1  13
ATOM     13  C   UNL d   1     -47.650  13.113  22.828  0.00  0.00     0.086 A 
ATOM     14  C   UNL d   1     -46.968  13.339  22.420  0.00  0.00     0.021 A 
ATOM     15  C   UNL d   1     -46.253  12.918  22.560  0.00  0.00     0.025 A 
ATOM     16  C   UNL d   1     -46.248  12.282  23.105  0.00  0.00     0.127 A 
ATOM     17  C   UNL d   1     -46.935  12.093  23.483  0.00  0.00     0.025 A 
ATOM     18  C   UNL d   1     -47.637  12.479  23.369  0.00  0.00     0.021 A 
BRANCH  16  19
ATOM     19  N   UNL d   1     -45.533  11.866  23.240  0.00  0.00    -0.114 N 
ATOM     20  O   UNL d   1     -44.853  12.156  22.904  0.00  0.00    -0.532 OA
ATOM     21  O   UNL d   1     -45.480  11.175  23.698  0.00  0.00    -0.532 OA
ENDBRANCH  16  19
ENDBRANCH   1  13
TORSDOF 2
ENDMDL
MODEL 2
REMARK VINA RESULT:      -9.0      1.251      4.180
REMARK  2 active torsions:
REMARK  status: ('A' for Active; 'I' for Inactive)
REMARK    1  A    between atoms: C_8  and  N_1 
REMARK    2  A    between atoms: N_5  and  C_9 
ROOT
ATOM      1  N   UNL d   1     -47.936  13.455  22.950  0.00  0.00    -0.192 N 
ATOM      2  C   UNL d   1     -47.974  12.671  23.216  0.00  0.00     0.281 A 
ATOM      3  N   UNL d   1     -47.228  13.791  22.800  0.00  0.00    -0.120 NA
ATOM      4  C   UNL d   1     -46.527  13.366  22.906  0.00  0.00     0.296 A 
ATOM      5  C   UNL d   1     -47.285  12.233  23.328  0.00  0.00     0.063 A 
ATOM      6  C   UNL d   1     -46.522  12.596  23.166  0.00  0.00     0.064 A 
ATOM      7  O   UNL d   1     -48.703  12.311  23.376  0.00  0.00    -0.265 OA
ATOM      8  O   UNL d   1     -45.815  13.717  22.751  0.00  0.00    -0.264 OA
ATOM      9  C   UNL d   1     -47.307  11.456  23.591  0.00  0.00     0.005 A 
ATOM     10  C   UNL d   1     -45.854  12.150  23.281  0.00  0.00     0.005 A 
ATOM     11  C   UNL d   1     -46.599  11.028  23.698  0.00  0.00     0.000 A 
ATOM     12  C   UNL d   1     -45.886  11.361  23.548  0.00  0.00     0.000 A 
ENDROOT
BRANCH   1  13
ATOM     13  C   UNL d   1     -48.606  13.888  22.839  0.00  0.00     0.086 A 
ATOM     14  C   UNL d   1     -49.052  13.800  22.150  0.00  0.00     0.021 A 
ATOM     15  C   UNL d   1     -49.749  14.262  22.054  0.00  0.00     0.025 A 
ATOM     16  C   UNL d   1     -49.975  14.799  22.657  0.00  0.00     0.127 A 
ATOM     17  C   UNL d   1     -49.512  14.855  23.315  0.00  0.00     0.025 A 
ATOM     18  C   UNL d   1     -48.837  14.424  23.435  0.00  0.00     0.021 A 
BRANCH  16  19
ATOM     19  N   UNL d   1     -50.669  15.256  22.556  0.00  0.00    -0.114 N 
ATOM     20  O   UNL d   1     -51.058  15.209  21.845  0.00  0.00    -0.532 OA
ATOM     21  O   UNL d   1     -50.983  15.755  23.142  0.00  0.00    -0.532 OA
ENDBRANCH  16  19
ENDBRANCH   1  13
TORSDOF 2
ENDMDL
MODEL 3
REMARK VINA RESULT:      -8.8      0.656      1.419
REMARK  2 active torsions:
REMARK  status: ('A' for Active; 'I' for Inactive)
REMARK    1  A    between atoms: C_8  and  N_1 
REMARK    2  A    between atoms: N_5  and  C_9 
ROOT
ATOM      1  N   UNL d   1     -48.531  13.225  22.525  0.00  0.00    -0.192 N 
ATOM      2  C   UNL d   1     -48.773  13.951  22.844  0.00  0.00     0.281 A 
ATOM      3  N   UNL d   1     -49.034  12.800  22.074  0.00  0.00    -0.120 NA
ATOM      4  C   UNL d   1     -49.798  13.076  21.918  0.00  0.00     0.296 A 
ATOM      5  C   UNL d   1     -49.532  14.240  22.698  0.00  0.00     0.063 A 
ATOM      6  C   UNL d   1     -50.073  13.782  22.212  0.00  0.00     0.064 A 
ATOM      7  O   UNL d   1     -48.261  14.401  23.314  0.00  0.00    -0.265 OA
ATOM      8  O   UNL d   1     -50.299  12.637  21.459  0.00  0.00    -0.264 OA
ATOM      9  C   UNL d   1     -49.785  14.957  23.007  0.00  0.00     0.005 A 
ATOM     10  C   UNL d   1     -50.815  14.081  22.079  0.00  0.00     0.005 A 
ATOM     11  C   UNL d   1     -50.556  15.234  22.849  0.00  0.00     0.000 A 
ATOM     12  C   UNL d   1     -51.064  14.811  22.396  0.00  0.00     0.000 A 
ENDROOT
BRANCH   1  13
ATOM     13  C   UNL d   1     -47.792  12.938  22.664  0.00  0.00     0.086 A 
ATOM     14  C   UNL d   1     -47.145  13.223  22.236  0.00  0.00     0.021 A 
ATOM     15  C   UNL d   1     -46.381  12.909  22.397  0.00  0.00     0.025 A 
ATOM     16  C   UNL d   1     -46.293  12.317  22.984  0.00  0.00     0.127 A 
ATOM     17  C   UNL d   1     -46.950  12.066  23.379  0.00  0.00     0.025 A 
ATOM     18  C   UNL d   1     -47.696  12.349  23.247  0.00  0.00     0.021 A 
BRANCH  16  19
ATOM     19  N   UNL d   1     -45.530  12.008  23.140  0.00  0.00    -0.114 N 
ATOM     20  O   UNL d   1     -45.463  11.410  23.685  0.00  0.00    -0.532 OA
ATOM     21  O   UNL d   1     -44.837  12.279  22.768  0.00  0.00    -0.532 OA
ENDBRANCH  16  19
ENDBRANCH   1  13
TORSDOF 2
ENDMDL
MODEL 4
REMARK VINA RESULT:      -6.7      8.215      9.734
REMARK  2 active torsions:
REMARK  status: ('A' for Active; 'I' for Inactive)
REMARK    1  A    between atoms: C_8  and  N_1 
REMARK    2  A    between atoms: N_5  and  C_9 
ROOT
ATOM      1  N   UNL d   1     -40.063  14.587  19.763  0.00  0.00    -0.192 N 
ATOM      2  C   UNL d   1     -39.261  14.486  19.946  0.00  0.00     0.281 A 
ATOM      3  N   UNL d   1     -40.621  14.422  20.310  0.00  0.00    -0.120 NA
ATOM      4  C   UNL d   1     -40.410  14.151  21.061  0.00  0.00     0.296 A 
ATOM      5  C   UNL d   1     -39.033  14.215  20.691  0.00  0.00     0.063 A 
ATOM      6  C   UNL d   1     -39.635  14.039  21.279  0.00  0.00     0.064 A 
ATOM      7  O   UNL d   1     -38.673  14.653  19.388  0.00  0.00    -0.265 OA
ATOM      8  O   UNL d   1     -40.984  13.987  21.607  0.00  0.00    -0.264 OA
ATOM      9  C   UNL d   1     -38.243  14.111  20.887  0.00  0.00     0.005 A 
ATOM     10  C   UNL d   1     -39.393  13.774  22.007  0.00  0.00     0.005 A 
ATOM     11  C   UNL d   1     -38.031  13.836  21.646  0.00  0.00     0.000 A 
ATOM     12  C   UNL d   1     -38.588  13.670  22.198  0.00  0.00     0.000 A 
ENDROOT
BRANCH   1  13
ATOM     13  C   UNL d   1     -40.292  14.850  19.037  0.00  0.00     0.086 A 
ATOM     14  C   UNL d   1     -40.436  15.654  18.910  0.00  0.00     0.021 A 
ATOM     15  C   UNL d   1     -40.674  15.908  18.144  0.00  0.00     0.025 A 
ATOM     16  C   UNL d   1     -40.760  15.344  17.529  0.00  0.00     0.127 A 
ATOM     17  C   UNL d   1     -40.609  14.569  17.695  0.00  0.00     0.025 A 
ATOM     18  C   UNL d   1     -40.379  14.295  18.420  0.00  0.00     0.021 A 
BRANCH  16  19
ATOM     19  N   UNL d   1     -40.997  15.603  16.769  0.00  0.00    -0.114 N 
ATOM     20  O   UNL d   1     -41.782  15.539  16.571  0.00  0.00    -0.532 OA
ATOM     21  O   UNL d   1     -40.475  15.921  16.206  0.00  0.00    -0.532 OA
ENDBRANCH  16  19
ENDBRANCH   1  13
TORSDOF 2
ENDMDL
MODEL 5
REMARK VINA RESULT:      -6.6      8.686      9.289
REMARK  2 active torsions:
REMARK  status: ('A' for Active; 'I' for Inactive)
REMARK    1  A    between atoms: C_8  and  N_1 
REMARK    2  A    between atoms: N_5  and  C_9 
ROOT
ATOM      1  N   UNL d   1     -39.942  14.646  19.387  0.00  0.00    -0.192 N 
ATOM      2  C   UNL d   1     -40.376  15.280  19.077  0.00  0.00     0.281 A 
ATOM      3  N   UNL d   1     -39.716  14.047  18.910  0.00  0.00    -0.120 NA
ATOM      4  C   UNL d   1     -39.910  14.050  18.107  0.00  0.00     0.296 A 
ATOM      5  C   UNL d   1     -40.578  15.299  18.278  0.00  0.00     0.063 A 
ATOM      6  C   UNL d   1     -40.334  14.653  17.765  0.00  0.00     0.064 A 
ATOM      7  O   UNL d   1     -40.616  15.909  19.562  0.00  0.00    -0.265 OA
ATOM      8  O   UNL d   1     -39.676  13.437  17.634  0.00  0.00    -0.264 OA
ATOM      9  C   UNL d   1     -41.007  15.921  17.957  0.00  0.00     0.005 A 
ATOM     10  C   UNL d   1     -40.541  14.687  16.981  0.00  0.00     0.005 A 
ATOM     11  C   UNL d   1     -41.202  15.922  17.146  0.00  0.00     0.000 A 
ATOM     12  C   UNL d   1     -40.978  15.323  16.664  0.00  0.00     0.000 A 
ENDROOT
BRANCH   1  13
ATOM     13  C   UNL d   1     -39.742  14.623  20.167  0.00  0.00     0.086 A 
ATOM     14  C   UNL d   1     -40.283  14.354  20.730  0.00  0.00     0.021 A 
ATOM     15  C   UNL d   1     -40.054  14.338  21.539  0.00  0.00     0.025 A 
ATOM     16  C   UNL d   1     -39.286  14.593  21.756  0.00  0.00     0.127 A 
ATOM     17  C   UNL d   1     -38.787  14.848  21.176  0.00  0.00     0.025 A 
ATOM     18  C   UNL d   1     -38.979  14.875  20.391  0.00  0.00     0.021 A 
BRANCH  16  19
ATOM     19  N   UNL d   1     -39.063  14.574  22.564  0.00  0.00    -0.114 N 
ATOM     20  O   UNL d   1     -38.843  13.862  22.884  0.00  0.00    -0.532 OA
ATOM     21  O   UNL d   1     -39.054  15.244  23.056  0.00  0.00    -0.532 OA
ENDBRANCH  16  19
ENDBRANCH   1  13
TORSDOF 2
ENDMDL
MODEL 6
REMARK VINA RESULT:      -6.4      8.296     10.445
REMARK  2 active torsions:
REMARK  status: ('A' for Active; 'I' for Inactive)
REMARK    1  A    between atoms: C_8  and  N_1 
REMARK    2  A    between atoms: N_5  and  C_9 
ROOT
ATOM      1  N   UNL d   1     -39.406  14.350  18.327  0.00  0.00    -0.192 N 
ATOM      2  C   UNL d   1     -39.215  14.807  17.662  0.00  0.00     0.281 A 
ATOM      3  N   UNL d   1     -39.238  13.570  18.336  0.00  0.00    -0.120 NA
ATOM      4  C   UNL d   1     -38.875  13.208  17.688  0.00  0.00     0.296 A 
ATOM      5  C   UNL d   1     -38.852  14.461  17.007  0.00  0.00     0.063 A 
ATOM      6  C   UNL d   1     -38.672  13.620  17.018  0.00  0.00     0.064 A 
ATOM      7  O   UNL d   1     -39.384  15.618  17.640  0.00  0.00    -0.265 OA
ATOM      8  O   UNL d   1     -38.710  12.416  17.709  0.00  0.00    -0.264 OA
ATOM      9  C   UNL d   1     -38.657  14.901  16.342  0.00  0.00     0.005 A 
ATOM     10  C   UNL d   1     -38.315  13.297  16.365  0.00  0.00     0.005 A 
ATOM     11  C   UNL d   1     -38.291  14.534  15.689  0.00  0.00     0.000 A 
ATOM     12  C   UNL d   1     -38.120  13.750  15.693  0.00  0.00     0.000 A 
ENDROOT
BRANCH   1  13
ATOM     13  C   UNL d   1     -39.760  14.682  18.969  0.00  0.00     0.086 A 
ATOM     14  C   UNL d   1     -40.584  14.689  19.036  0.00  0.00     0.021 A 
ATOM     15  C   UNL d   1     -40.933  15.041  19.716  0.00  0.00     0.025 A 
ATOM     16  C   UNL d   1     -40.443  15.376  20.307  0.00  0.00     0.127 A 
ATOM     17  C   UNL d   1     -39.643  15.348  20.204  0.00  0.00     0.025 A 
ATOM     18  C   UNL d   1     -39.278  15.017  19.562  0.00  0.00     0.021 A 
BRANCH  16  19
ATOM     19  N   UNL d   1     -40.797  15.724  20.981  0.00  0.00    -0.114 N 
ATOM     20  O   UNL d   1     -40.326  15.879  21.624  0.00  0.00    -0.532 OA
ATOM     21  O   UNL d   1     -41.603  15.922  21.030  0.00  0.00    -0.532 OA
ENDBRANCH  16  19
ENDBRANCH   1  13
TORSDOF 2
ENDMDL
