MODEL 1
REMARK VINA RESULT:      32.4      0.000      0.000
REMARK  6 active torsions:
REMARK  status: ('A' for Active; 'I' for Inactive)
REMARK    1  A    between atoms: S_9  and  C_3 
REMARK    2  A    between atoms: C_4  and  C_17 
REMARK       I    between atoms: N_8  and  C_4 
REMARK    3  A    between atoms: C_5  and  C_16 
REMARK    4  A    between atoms: C_14  and  C_6 
REMARK    5  A    between atoms: C_16  and  N_8 
REMARK    6  A    between atoms: C_17  and  S_9 
ROOT
ATOM      1  N   UNL d   1      14.338  12.836  -2.755  0.00  0.00    -0.148 NA
ATOM      2  N   UNL d   1      13.992  12.947  -3.495  0.00  0.00    -0.141 NA
ATOM      3  C   UNL d   1      13.357  12.481  -3.733  0.00  0.00     0.133 A 
ATOM      4  C   UNL d   1      14.037  12.248  -2.252  0.00  0.00     0.103 A 
ATOM      5  C   UNL d   1      13.408  11.784  -2.484  0.00  0.00     0.023 A 
ATOM      6  C   UNL d   1      13.061  11.892  -3.220  0.00  0.00     0.029 A 
ENDROOT
BRANCH   3   7
ATOM      7  S   UNL d   1      13.018  12.598  -4.471  0.00  0.00    -0.061 SA
BRANCH   7   8
ATOM      8  C   UNL d   1      12.772  13.350  -4.695  0.00  0.00     0.099 C 
BRANCH   8   9
ATOM      9  C   UNL d   1      13.323  13.914  -4.941  0.00  0.00     0.286 C 
ATOM     10  N   UNL d   1      13.324  14.662  -4.608  0.00  0.00    -0.204 NA
ATOM     11  O   UNL d   1      13.872  13.721  -5.520  0.00  0.00    -0.265 OA
BRANCH  10  12
ATOM     12  C   UNL d   1      13.867  15.220  -4.848  0.00  0.00     0.127 C 
BRANCH  12  13
ATOM     13  C   UNL d   1      14.233  15.704  -4.294  0.00  0.00     0.119 A 
ATOM     14  O   UNL d   1      14.211  15.615  -3.479  0.00  0.00    -0.304 OA
ATOM     15  C   UNL d   1      14.650  16.217  -3.140  0.00  0.00     0.123 A 
ATOM     16  C   UNL d   1      14.945  16.683  -3.747  0.00  0.00     0.029 A 
ATOM     17  C   UNL d   1      14.693  16.374  -4.463  0.00  0.00     0.028 A 
ENDBRANCH  12  13
ENDBRANCH  10  12
ENDBRANCH   8   9
ENDBRANCH   7   8
ENDBRANCH   3   7
BRANCH   4  18
ATOM     18  C   UNL d   1      14.382  12.133  -1.508  0.00  0.00     0.019 A 
ATOM     19  C   UNL d   1      15.202  12.255  -1.394  0.00  0.00     0.002 A 
ATOM     20  C   UNL d   1      15.538  12.139  -0.649  0.00  0.00     0.000 A 
ATOM     21  C   UNL d   1      15.074  11.903  -0.018  0.00  0.00     0.000 A 
ATOM     22  C   UNL d   1      14.259  11.779  -0.120  0.00  0.00     0.000 A 
ATOM     23  C   UNL d   1      13.919  11.894  -0.863  0.00  0.00     0.002 A 
ENDBRANCH   4  18
TORSDOF 6
ENDMDL
MODEL 2
REMARK VINA RESULT:      35.0      1.305      1.580
REMARK  6 active torsions:
REMARK  status: ('A' for Active; 'I' for Inactive)
REMARK    1  A    between atoms: S_9  and  C_3 
REMARK    2  A    between atoms: C_4  and  C_17 
REMARK       I    between atoms: N_8  and  C_4 
REMARK    3  A    between atoms: C_5  and  C_16 
REMARK    4  A    between atoms: C_14  and  C_6 
REMARK    5  A    between atoms: C_16  and  N_8 
REMARK    6  A    between atoms: C_17  and  S_9 
ROOT
ATOM      1  N   UNL d   1      14.074  13.319  -2.488  0.00  0.00    -0.148 NA
ATOM      2  N   UNL d   1      13.832  13.560  -3.239  0.00  0.00    -0.141 NA
ATOM      3  C   UNL d   1      13.515  13.017  -3.769  0.00  0.00     0.133 A 
ATOM      4  C   UNL d   1      13.995  12.521  -2.275  0.00  0.00     0.103 A 
ATOM      5  C   UNL d   1      13.682  11.979  -2.797  0.00  0.00     0.023 A 
ATOM      6  C   UNL d   1      13.440  12.215  -3.545  0.00  0.00     0.029 A 
ENDROOT
BRANCH   3   7
ATOM      7  S   UNL d   1      13.276  13.264  -4.514  0.00  0.00    -0.061 SA
BRANCH   7   8
ATOM      8  C   UNL d   1      13.125  14.061  -4.653  0.00  0.00     0.099 C 
BRANCH   8   9
ATOM      9  C   UNL d   1      13.354  14.411  -5.365  0.00  0.00     0.286 C 
ATOM     10  N   UNL d   1      13.278  15.220  -5.470  0.00  0.00    -0.204 NA
ATOM     11  O   UNL d   1      13.657  13.945  -5.970  0.00  0.00    -0.265 OA
BRANCH  10  12
ATOM     12  C   UNL d   1      13.503  15.568  -6.172  0.00  0.00     0.127 C 
BRANCH  12  13
ATOM     13  C   UNL d   1      13.589  16.384  -6.218  0.00  0.00     0.119 A 
ATOM     14  O   UNL d   1      14.288  16.806  -6.134  0.00  0.00    -0.304 OA
ATOM     15  C   UNL d   1      14.121  17.603  -6.221  0.00  0.00     0.123 A 
ATOM     16  C   UNL d   1      13.317  17.676  -6.359  0.00  0.00     0.029 A 
ATOM     17  C   UNL d   1      12.979  16.929  -6.359  0.00  0.00     0.028 A 
ENDBRANCH  12  13
ENDBRANCH  10  12
ENDBRANCH   8   9
ENDBRANCH   7   8
ENDBRANCH   3   7
BRANCH   4  18
ATOM     18  C   UNL d   1      14.238  12.275  -1.521  0.00  0.00     0.019 A 
ATOM     19  C   UNL d   1      13.677  12.027  -0.952  0.00  0.00     0.002 A 
ATOM     20  C   UNL d   1      13.927  11.784  -0.205  0.00  0.00     0.000 A 
ATOM     21  C   UNL d   1      14.722  11.782  -0.014  0.00  0.00     0.000 A 
ATOM     22  C   UNL d   1      15.287  12.026  -0.571  0.00  0.00     0.000 A 
ATOM     23  C   UNL d   1      15.042  12.270  -1.320  0.00  0.00     0.002 A 
ENDBRANCH   4  18
TORSDOF 6
ENDMDL
