MODEL 1
REMARK VINA RESULT:      51.2      0.000      0.000
REMARK  3 active torsions:
REMARK  status: ('A' for Active; 'I' for Inactive)
REMARK    1  A    between atoms: C_2  and  C_1 
REMARK       I    between atoms: N_8  and  C_2 
REMARK    2  A    between atoms: C_12  and  C_4 
REMARK    3  A    between atoms: C_9  and  N_8 
ROOT
ATOM      1  C   UNL d   1     -58.224 -99.000 -44.522  0.00  0.00     0.106 A 
ATOM      2  C   UNL d   1     -57.900 -98.853 -45.337  0.00  0.00     0.093 A 
ATOM      3  C   UNL d   1     -58.932 -99.053 -44.375  0.00  0.00     0.093 A 
ATOM      4  C   UNL d   1     -59.267 -98.842 -45.731  0.00  0.00     0.369 A 
ATOM      5  N   UNL d   1     -58.462 -98.779 -45.919  0.00  0.00    -0.191 NA
ATOM      6  N   UNL d   1     -59.502 -98.979 -44.960  0.00  0.00    -0.191 NA
ATOM      7  O   UNL d   1     -59.834 -98.765 -46.330  0.00  0.00    -0.242 OA
ATOM      8  C   UNL d   1     -57.097 -98.797 -45.478  0.00  0.00     0.021 C 
ENDROOT
BRANCH   1   9
ATOM      9  C   UNL d   1     -57.690 -99.081 -43.904  0.00  0.00     0.331 C 
ATOM     10  N   UNL d   1     -56.985 -99.480 -44.014  0.00  0.00    -0.365 NA
ATOM     11  O   UNL d   1     -57.868 -98.757 -43.170  0.00  0.00    -0.251 OA
BRANCH  10  12
ATOM     12  C   UNL d   1     -56.242 -99.911 -44.159  0.00  0.00     0.135 A 
ATOM     13  C   UNL d   1     -55.466 -99.556 -43.941  0.00  0.00     0.030 A 
ATOM     14  C   UNL d   1     -55.448 -98.755 -43.572  0.00  0.00     0.003 C 
ATOM     15  C   UNL d   1     -54.730 -99.983 -44.085  0.00  0.00     0.003 A 
ATOM     16  C   UNL d   1     -54.743-100.784 -44.454  0.00  0.00     0.000 A 
ATOM     17  C   UNL d   1     -55.512-101.140 -44.671  0.00  0.00     0.003 A 
ATOM     18  C   UNL d   1     -56.260-100.708 -44.526  0.00  0.00     0.032 A 
ENDBRANCH  10  12
ENDBRANCH   1   9
BRANCH   3  19
ATOM     19  C   UNL d   1     -59.164 -99.190 -43.600  0.00  0.00     0.018 A 
ATOM     20  C   UNL d   1     -59.738 -99.758 -43.428  0.00  0.00     0.002 A 
ATOM     21  C   UNL d   1     -59.961 -99.886 -42.653  0.00  0.00     0.000 A 
ATOM     22  C   UNL d   1     -59.618 -99.454 -42.046  0.00  0.00     0.000 A 
ATOM     23  C   UNL d   1     -59.051 -98.893 -42.216  0.00  0.00     0.000 A 
ATOM     24  C   UNL d   1     -58.820 -98.755 -42.985  0.00  0.00     0.002 A 
ENDBRANCH   3  19
TORSDOF 3
ENDMDL
