MODEL 1
REMARK VINA RESULT:      -3.2      0.000      0.000
REMARK  0 active torsions:
REMARK  status: ('A' for Active; 'I' for Inactive)
ROOT
ATOM      1  C   UNL d   1      29.830  16.577 -23.967  0.00  0.00     0.086 A 
ATOM      2  S   UNL d   1      30.375  17.076 -24.325  0.00  0.00    -0.081 SA
ATOM      3  C   UNL d   1      30.099  15.984 -23.429  0.00  0.00     0.090 A 
ATOM      4  N   UNL d   1      30.901  15.915 -23.271  0.00  0.00    -0.244 NA
ATOM      5  C   UNL d   1      31.176  17.006 -24.167  0.00  0.00     0.047 A 
ATOM      6  C   UNL d   1      31.439  16.427 -23.641  0.00  0.00     0.087 A 
ATOM      7  C   UNL d   1      29.011  16.641 -24.122  0.00  0.00     0.203 A 
ATOM      8  O   UNL d   1      28.742  17.233 -24.659  0.00  0.00    -0.286 OA
ATOM      9  C   UNL d   1      29.537  15.480 -23.069  0.00  0.00     0.020 A 
ATOM     10  C   UNL d   1      28.467  16.142 -23.765  0.00  0.00     0.043 A 
ATOM     11  C   UNL d   1      28.730  15.563 -23.239  0.00  0.00     0.005 A 
ATOM     12  C   UNL d   1      31.721  17.505 -24.525  0.00  0.00     0.008 A 
ATOM     13  C   UNL d   1      32.243  16.354 -23.481  0.00  0.00     0.020 A 
ATOM     14  C   UNL d   1      32.530  17.420 -24.352  0.00  0.00     0.001 A 
ATOM     15  C   UNL d   1      32.785  16.856 -23.841  0.00  0.00     0.002 A 
ENDROOT
TORSDOF 0
ENDMDL
MODEL 2
REMARK VINA RESULT:      -3.1      1.267      3.209
REMARK  0 active torsions:
REMARK  status: ('A' for Active; 'I' for Inactive)
ROOT
ATOM      1  C   UNL d   1      31.263  16.530 -23.961  0.00  0.00     0.086 A 
ATOM      2  S   UNL d   1      30.795  15.972 -23.583  0.00  0.00    -0.081 SA
ATOM      3  C   UNL d   1      30.897  17.156 -24.394  0.00  0.00     0.090 A 
ATOM      4  N   UNL d   1      30.078  17.197 -24.431  0.00  0.00    -0.244 NA
ATOM      5  C   UNL d   1      29.977  16.013 -23.621  0.00  0.00     0.047 A 
ATOM      6  C   UNL d   1      29.619  16.624 -24.044  0.00  0.00     0.087 A 
ATOM      7  C   UNL d   1      32.098  16.496 -23.928  0.00  0.00     0.203 A 
ATOM      8  O   UNL d   1      32.464  15.871 -23.496  0.00  0.00    -0.286 OA
ATOM      9  C   UNL d   1      31.381  17.721 -24.776  0.00  0.00     0.020 A 
ATOM     10  C   UNL d   1      32.565  17.054 -24.306  0.00  0.00     0.043 A 
ATOM     11  C   UNL d   1      32.207  17.666 -24.729  0.00  0.00     0.005 A 
ATOM     12  C   UNL d   1      29.510  15.454 -23.243  0.00  0.00     0.008 A 
ATOM     13  C   UNL d   1      28.799  16.669 -24.083  0.00  0.00     0.020 A 
ATOM     14  C   UNL d   1      28.682  15.512 -23.292  0.00  0.00     0.001 A 
ATOM     15  C   UNL d   1      28.334  16.107 -23.703  0.00  0.00     0.002 A 
ENDROOT
TORSDOF 0
ENDMDL
MODEL 3
REMARK VINA RESULT:      -2.9      1.108      1.590
REMARK  0 active torsions:
REMARK  status: ('A' for Active; 'I' for Inactive)
ROOT
ATOM      1  C   UNL d   1      30.380  16.590 -23.909  0.00  0.00     0.086 A 
ATOM      2  S   UNL d   1      31.137  16.482 -23.612  0.00  0.00    -0.081 SA
ATOM      3  C   UNL d   1      30.229  17.223 -24.447  0.00  0.00     0.090 A 
ATOM      4  N   UNL d   1      30.843  17.723 -24.666  0.00  0.00    -0.244 NA
ATOM      5  C   UNL d   1      31.750  16.982 -23.830  0.00  0.00     0.047 A 
ATOM      6  C   UNL d   1      31.603  17.601 -24.356  0.00  0.00     0.087 A 
ATOM      7  C   UNL d   1      29.749  16.085 -23.691  0.00  0.00     0.203 A 
ATOM      8  O   UNL d   1      29.900  15.453 -23.154  0.00  0.00    -0.286 OA
ATOM      9  C   UNL d   1      29.455  17.325 -24.745  0.00  0.00     0.020 A 
ATOM     10  C   UNL d   1      28.993  16.193 -23.989  0.00  0.00     0.043 A 
ATOM     11  C   UNL d   1      28.846  16.811 -24.514  0.00  0.00     0.005 A 
ATOM     12  C   UNL d   1      32.507  16.875 -23.533  0.00  0.00     0.008 A 
ATOM     13  C   UNL d   1      32.215  18.104 -24.577  0.00  0.00     0.020 A 
ATOM     14  C   UNL d   1      33.115  17.391 -23.766  0.00  0.00     0.001 A 
ATOM     15  C   UNL d   1      32.972  17.993 -24.278  0.00  0.00     0.002 A 
ENDROOT
TORSDOF 0
ENDMDL
MODEL 4
REMARK VINA RESULT:      -2.8      5.664      6.607
REMARK  0 active torsions:
REMARK  status: ('A' for Active; 'I' for Inactive)
ROOT
ATOM      1  C   UNL d   1      32.805  22.081 -20.892  0.00  0.00     0.086 A 
ATOM      2  S   UNL d   1      32.915  21.287 -20.716  0.00  0.00    -0.081 SA
ATOM      3  C   UNL d   1      32.804  22.333 -21.697  0.00  0.00     0.090 A 
ATOM      4  N   UNL d   1      32.912  21.780 -22.294  0.00  0.00    -0.244 NA
ATOM      5  C   UNL d   1      33.023  20.735 -21.313  0.00  0.00     0.047 A 
ATOM      6  C   UNL d   1      33.022  20.981 -22.100  0.00  0.00     0.087 A 
ATOM      7  C   UNL d   1      32.694  22.651 -20.289  0.00  0.00     0.203 A 
ATOM      8  O   UNL d   1      32.696  22.399 -19.484  0.00  0.00    -0.286 OA
ATOM      9  C   UNL d   1      32.692  23.144 -21.868  0.00  0.00     0.020 A 
ATOM     10  C   UNL d   1      32.585  23.444 -20.465  0.00  0.00     0.043 A 
ATOM     11  C   UNL d   1      32.584  23.690 -21.253  0.00  0.00     0.005 A 
ATOM     12  C   UNL d   1      33.133  19.941 -21.137  0.00  0.00     0.008 A 
ATOM     13  C   UNL d   1      33.130  20.430 -22.701  0.00  0.00     0.020 A 
ATOM     14  C   UNL d   1      33.241  19.396 -21.755  0.00  0.00     0.001 A 
ATOM     15  C   UNL d   1      33.240  19.635 -22.521  0.00  0.00     0.002 A 
ENDROOT
TORSDOF 0
ENDMDL
MODEL 5
REMARK VINA RESULT:      -2.7      4.199      5.270
REMARK  0 active torsions:
REMARK  status: ('A' for Active; 'I' for Inactive)
ROOT
ATOM      1  C   UNL d   1      33.207  20.855 -22.151  0.00  0.00     0.086 A 
ATOM      2  S   UNL d   1      33.224  20.548 -22.912  0.00  0.00    -0.081 SA
ATOM      3  C   UNL d   1      33.190  20.329 -21.491  0.00  0.00     0.090 A 
ATOM      4  N   UNL d   1      33.190  19.518 -21.618  0.00  0.00    -0.244 NA
ATOM      5  C   UNL d   1      33.224  19.737 -23.039  0.00  0.00     0.047 A 
ATOM      6  C   UNL d   1      33.207  19.224 -22.393  0.00  0.00     0.087 A 
ATOM      7  C   UNL d   1      33.207  21.680 -22.013  0.00  0.00     0.203 A 
ATOM      8  O   UNL d   1      33.224  22.204 -22.672  0.00  0.00    -0.286 OA
ATOM      9  C   UNL d   1      33.173  20.650 -20.718  0.00  0.00     0.020 A 
ATOM     10  C   UNL d   1      33.190  21.986 -21.252  0.00  0.00     0.043 A 
ATOM     11  C   UNL d   1      33.174  21.472 -20.607  0.00  0.00     0.005 A 
ATOM     12  C   UNL d   1      33.241  19.431 -23.800  0.00  0.00     0.008 A 
ATOM     13  C   UNL d   1      33.207  18.411 -22.517  0.00  0.00     0.020 A 
ATOM     14  C   UNL d   1      33.240  18.607 -23.909  0.00  0.00     0.001 A 
ATOM     15  C   UNL d   1      33.224  18.107 -23.281  0.00  0.00     0.002 A 
ENDROOT
TORSDOF 0
ENDMDL
MODEL 6
REMARK VINA RESULT:      -2.3      3.501      4.679
REMARK  0 active torsions:
REMARK  status: ('A' for Active; 'I' for Inactive)
ROOT
ATOM      1  C   UNL d   1      32.978  18.953 -23.290  0.00  0.00     0.086 A 
ATOM      2  S   UNL d   1      32.895  19.123 -22.491  0.00  0.00    -0.081 SA
ATOM      3  C   UNL d   1      33.154  19.576 -23.832  0.00  0.00     0.090 A 
ATOM      4  N   UNL d   1      33.241  20.343 -23.553  0.00  0.00    -0.244 NA
ATOM      5  C   UNL d   1      32.981  19.889 -22.213  0.00  0.00     0.047 A 
ATOM      6  C   UNL d   1      33.154  20.498 -22.743  0.00  0.00     0.087 A 
ATOM      7  C   UNL d   1      32.891  18.175 -23.583  0.00  0.00     0.203 A 
ATOM      8  O   UNL d   1      32.715  17.552 -23.042  0.00  0.00    -0.286 OA
ATOM      9  C   UNL d   1      33.237  19.395 -24.645  0.00  0.00     0.020 A 
ATOM     10  C   UNL d   1      32.974  18.006 -24.381  0.00  0.00     0.043 A 
ATOM     11  C   UNL d   1      33.147  18.615 -24.911  0.00  0.00     0.005 A 
ATOM     12  C   UNL d   1      32.899  20.059 -21.414  0.00  0.00     0.008 A 
ATOM     13  C   UNL d   1      33.241  21.268 -22.466  0.00  0.00     0.020 A 
ATOM     14  C   UNL d   1      32.990  20.841 -21.150  0.00  0.00     0.001 A 
ATOM     15  C   UNL d   1      33.157  21.434 -21.665  0.00  0.00     0.002 A 
ENDROOT
TORSDOF 0
ENDMDL
MODEL 7
REMARK VINA RESULT:      -2.3      6.505      6.987
REMARK  0 active torsions:
REMARK  status: ('A' for Active; 'I' for Inactive)
ROOT
ATOM      1  C   UNL d   1      32.614  22.720 -21.423  0.00  0.00     0.086 A 
ATOM      2  S   UNL d   1      32.507  23.288 -22.006  0.00  0.00    -0.081 SA
ATOM      3  C   UNL d   1      32.941  21.969 -21.627  0.00  0.00     0.090 A 
ATOM      4  N   UNL d   1      33.147  21.816 -22.407  0.00  0.00    -0.244 NA
ATOM      5  C   UNL d   1      32.713  23.134 -22.784  0.00  0.00     0.047 A 
ATOM      6  C   UNL d   1      33.033  22.401 -22.985  0.00  0.00     0.087 A 
ATOM      7  C   UNL d   1      32.406  22.867 -20.626  0.00  0.00     0.203 A 
ATOM      8  O   UNL d   1      32.080  23.617 -20.421  0.00  0.00    -0.286 OA
ATOM      9  C   UNL d   1      33.047  21.396 -21.027  0.00  0.00     0.020 A 
ATOM     10  C   UNL d   1      32.513  22.300 -20.044  0.00  0.00     0.043 A 
ATOM     11  C   UNL d   1      32.833  21.566 -20.244  0.00  0.00     0.005 A 
ATOM     12  C   UNL d   1      32.606  23.702 -23.368  0.00  0.00     0.008 A 
ATOM     13  C   UNL d   1      33.241  22.244 -23.765  0.00  0.00     0.020 A 
ATOM     14  C   UNL d   1      32.821  23.530 -24.152  0.00  0.00     0.001 A 
ATOM     15  C   UNL d   1      33.132  22.815 -24.346  0.00  0.00     0.002 A 
ENDROOT
TORSDOF 0
ENDMDL
MODEL 8
REMARK VINA RESULT:      -2.2      6.252      6.866
REMARK  0 active torsions:
REMARK  status: ('A' for Active; 'I' for Inactive)
ROOT
ATOM      1  C   UNL d   1      32.863  21.927 -21.698  0.00  0.00     0.086 A 
ATOM      2  S   UNL d   1      33.044  21.748 -22.479  0.00  0.00    -0.081 SA
ATOM      3  C   UNL d   1      32.686  22.724 -21.484  0.00  0.00     0.090 A 
ATOM      4  N   UNL d   1      32.696  23.310 -22.059  0.00  0.00    -0.244 NA
ATOM      5  C   UNL d   1      33.054  22.334 -23.053  0.00  0.00     0.047 A 
ATOM      6  C   UNL d   1      32.881  23.112 -22.843  0.00  0.00     0.087 A 
ATOM      7  C   UNL d   1      32.851  21.336 -21.106  0.00  0.00     0.203 A 
ATOM      8  O   UNL d   1      33.028  20.540 -21.320  0.00  0.00    -0.286 OA
ATOM      9  C   UNL d   1      32.503  22.898 -20.686  0.00  0.00     0.020 A 
ATOM     10  C   UNL d   1      32.670  21.515 -20.327  0.00  0.00     0.043 A 
ATOM     11  C   UNL d   1      32.497  22.294 -20.117  0.00  0.00     0.005 A 
ATOM     12  C   UNL d   1      33.235  22.155 -23.833  0.00  0.00     0.008 A 
ATOM     13  C   UNL d   1      32.890  23.702 -23.417  0.00  0.00     0.020 A 
ATOM     14  C   UNL d   1      33.240  22.761 -24.401  0.00  0.00     0.001 A 
ATOM     15  C   UNL d   1      33.072  23.519 -24.198  0.00  0.00     0.002 A 
ENDROOT
TORSDOF 0
ENDMDL
MODEL 9
REMARK VINA RESULT:      -2.2      5.153      6.149
REMARK  0 active torsions:
REMARK  status: ('A' for Active; 'I' for Inactive)
ROOT
ATOM      1  C   UNL d   1      33.223  20.413 -21.801  0.00  0.00     0.086 A 
ATOM      2  S   UNL d   1      33.219  20.836 -21.098  0.00  0.00    -0.081 SA
ATOM      3  C   UNL d   1      33.217  20.828 -22.536  0.00  0.00     0.090 A 
ATOM      4  N   UNL d   1      33.207  21.648 -22.538  0.00  0.00    -0.244 NA
ATOM      5  C   UNL d   1      33.209  21.656 -21.100  0.00  0.00     0.047 A 
ATOM      6  C   UNL d   1      33.203  22.061 -21.819  0.00  0.00     0.087 A 
ATOM      7  C   UNL d   1      33.233  19.576 -21.808  0.00  0.00     0.203 A 
ATOM      8  O   UNL d   1      33.239  19.162 -21.074  0.00  0.00    -0.286 OA
ATOM      9  C   UNL d   1      33.221  20.389 -23.249  0.00  0.00     0.020 A 
ATOM     10  C   UNL d   1      33.237  19.155 -22.511  0.00  0.00     0.043 A 
ATOM     11  C   UNL d   1      33.231  19.560 -23.230  0.00  0.00     0.005 A 
ATOM     12  C   UNL d   1      33.205  22.078 -20.396  0.00  0.00     0.008 A 
ATOM     13  C   UNL d   1      33.194  22.884 -21.824  0.00  0.00     0.020 A 
ATOM     14  C   UNL d   1      33.195  22.909 -20.418  0.00  0.00     0.001 A 
ATOM     15  C   UNL d   1      33.190  23.304 -21.117  0.00  0.00     0.002 A 
ENDROOT
TORSDOF 0
ENDMDL
