MODEL 1
REMARK VINA RESULT:      -3.8      0.000      0.000
REMARK  7 active torsions:
REMARK  status: ('A' for Active; 'I' for Inactive)
REMARK    1  A    between atoms: C_6  and  N_1 
REMARK    2  A    between atoms: C_7  and  C_2 
REMARK    3  A    between atoms: C_11  and  C_6 
REMARK    4  A    between atoms: N_8  and  C_12 
REMARK    5  A    between atoms: C_9  and  N_8 
REMARK    6  A    between atoms: C_17  and  C_9 
REMARK    7  A    between atoms: C_12  and  C_11 
ROOT
ATOM      1  N   UNL d   1     -41.892-122.665 -50.729  0.00  0.00    -0.301 N 
ATOM      2  C   UNL d   1     -43.049-122.530 -50.080  0.00  0.00     0.061 A 
ATOM      3  C   UNL d   1     -42.679-122.420 -50.805  0.00  0.00     0.084 A 
ATOM      4  C   UNL d   1     -41.784-122.928 -49.949  0.00  0.00     0.064 A 
ATOM      5  C   UNL d   1     -42.504-122.843 -49.546  0.00  0.00     0.021 A 
ATOM      6  C   UNL d   1     -41.124-123.232 -49.554  0.00  0.00     0.018 A 
ATOM      7  C   UNL d   1     -42.562-123.061 -48.759  0.00  0.00     0.002 A 
ATOM      8  C   UNL d   1     -41.906-123.363 -48.366  0.00  0.00     0.000 A 
ATOM      9  C   UNL d   1     -41.193-123.447 -48.764  0.00  0.00     0.002 A 
ENDROOT
BRANCH   1  10
ATOM     10  C   UNL d   1     -41.315-122.655 -51.317  0.00  0.00     0.124 C 
BRANCH  10  11
ATOM     11  C   UNL d   1     -41.467-123.002 -52.050  0.00  0.00     0.232 C 
ATOM     12  O   UNL d   1     -41.628-123.817 -52.093  0.00  0.00    -0.283 OA
BRANCH  11  13
ATOM     13  C   UNL d   1     -41.460-122.546 -52.744  0.00  0.00     0.137 C 
BRANCH  13  14
ATOM     14  N   UNL d   1     -41.586-122.900 -53.476  0.00  0.00    -0.262 NA
BRANCH  14  15
ATOM     15  C   UNL d   1     -41.689-122.437 -54.148  0.00  0.00     0.143 C 
ATOM     16  C   UNL d   1     -41.589-122.762 -54.899  0.00  0.00     0.032 C 
ATOM     17  C   UNL d   1     -41.491-123.185 -54.443  0.00  0.00     0.032 C 
BRANCH  15  18
ATOM     18  C   UNL d   1     -41.896-121.635 -54.071  0.00  0.00     0.229 C 
ATOM     19  O   UNL d   1     -42.290-121.251 -54.687  0.00  0.00    -0.286 OA
ENDBRANCH  15  18
ENDBRANCH  14  15
ENDBRANCH  13  14
ENDBRANCH  11  13
ENDBRANCH  10  11
ENDBRANCH   1  10
BRANCH   2  20
ATOM     20  C   UNL d   1     -43.844-122.330 -49.995  0.00  0.00     0.236 C 
ATOM     21  O   UNL d   1     -44.210-121.829 -50.538  0.00  0.00    -0.283 OA
ENDBRANCH   2  20
TORSDOF 7
ENDMDL
MODEL 2
REMARK VINA RESULT:      -2.3      1.099      4.451
REMARK  7 active torsions:
REMARK  status: ('A' for Active; 'I' for Inactive)
REMARK    1  A    between atoms: C_6  and  N_1 
REMARK    2  A    between atoms: C_7  and  C_2 
REMARK    3  A    between atoms: C_11  and  C_6 
REMARK    4  A    between atoms: N_8  and  C_12 
REMARK    5  A    between atoms: C_9  and  N_8 
REMARK    6  A    between atoms: C_17  and  C_9 
REMARK    7  A    between atoms: C_12  and  C_11 
ROOT
ATOM      1  N   UNL d   1     -41.426-122.402 -52.956  0.00  0.00    -0.301 N 
ATOM      2  C   UNL d   1     -42.001-121.635 -53.883  0.00  0.00     0.061 A 
ATOM      3  C   UNL d   1     -41.792-121.672 -53.090  0.00  0.00     0.084 A 
ATOM      4  C   UNL d   1     -41.413-122.813 -53.677  0.00  0.00     0.064 A 
ATOM      5  C   UNL d   1     -41.771-122.336 -54.253  0.00  0.00     0.021 A 
ATOM      6  C   UNL d   1     -41.123-123.560 -53.883  0.00  0.00     0.018 A 
ATOM      7  C   UNL d   1     -41.837-122.602 -55.024  0.00  0.00     0.002 A 
ATOM      8  C   UNL d   1     -41.548-123.344 -55.230  0.00  0.00     0.000 A 
ATOM      9  C   UNL d   1     -41.194-123.817 -54.660  0.00  0.00     0.002 A 
ENDROOT
BRANCH   1  10
ATOM     10  C   UNL d   1     -41.126-122.678 -52.240  0.00  0.00     0.124 C 
BRANCH  10  11
ATOM     11  C   UNL d   1     -41.375-122.338 -51.530  0.00  0.00     0.232 C 
ATOM     12  O   UNL d   1     -41.513-121.519 -51.493  0.00  0.00    -0.283 OA
BRANCH  11  13
ATOM     13  C   UNL d   1     -41.490-122.807 -50.854  0.00  0.00     0.137 C 
BRANCH  13  14
ATOM     14  N   UNL d   1     -42.086-122.625 -50.318  0.00  0.00    -0.262 NA
BRANCH  14  15
ATOM     15  C   UNL d   1     -42.140-123.031 -49.604  0.00  0.00     0.143 C 
ATOM     16  C   UNL d   1     -42.860-123.082 -49.206  0.00  0.00     0.032 C 
ATOM     17  C   UNL d   1     -42.909-122.755 -49.742  0.00  0.00     0.032 C 
BRANCH  15  18
ATOM     18  C   UNL d   1     -41.464-123.392 -49.281  0.00  0.00     0.229 C 
ATOM     19  O   UNL d   1     -41.505-123.749 -48.537  0.00  0.00    -0.286 OA
ENDBRANCH  15  18
ENDBRANCH  14  15
ENDBRANCH  13  14
ENDBRANCH  11  13
ENDBRANCH  10  11
ENDBRANCH   1  10
BRANCH   2  20
ATOM     20  C   UNL d   1     -42.379-120.963 -54.173  0.00  0.00     0.236 C 
ATOM     21  O   UNL d   1     -43.169-120.996 -54.410  0.00  0.00    -0.283 OA
ENDBRANCH   2  20
TORSDOF 7
ENDMDL
MODEL 3
REMARK VINA RESULT:      -1.5      1.034      4.593
REMARK  7 active torsions:
REMARK  status: ('A' for Active; 'I' for Inactive)
REMARK    1  A    between atoms: C_6  and  N_1 
REMARK    2  A    between atoms: C_7  and  C_2 
REMARK    3  A    between atoms: C_11  and  C_6 
REMARK    4  A    between atoms: N_8  and  C_12 
REMARK    5  A    between atoms: C_9  and  N_8 
REMARK    6  A    between atoms: C_17  and  C_9 
REMARK    7  A    between atoms: C_12  and  C_11 
ROOT
ATOM      1  N   UNL d   1     -41.475-122.553 -52.887  0.00  0.00    -0.301 N 
ATOM      2  C   UNL d   1     -41.370-123.189 -54.055  0.00  0.00     0.061 A 
ATOM      3  C   UNL d   1     -41.154-123.217 -53.264  0.00  0.00     0.084 A 
ATOM      4  C   UNL d   1     -41.892-122.118 -53.459  0.00  0.00     0.064 A 
ATOM      5  C   UNL d   1     -41.826-122.514 -54.185  0.00  0.00     0.021 A 
ATOM      6  C   UNL d   1     -42.322-121.413 -53.411  0.00  0.00     0.018 A 
ATOM      7  C   UNL d   1     -42.187-122.209 -54.853  0.00  0.00     0.002 A 
ATOM      8  C   UNL d   1     -42.614-121.508 -54.807  0.00  0.00     0.000 A 
ATOM      9  C   UNL d   1     -42.680-121.116 -54.089  0.00  0.00     0.002 A 
ENDROOT
BRANCH   1  10
ATOM     10  C   UNL d   1     -41.399-122.354 -52.092  0.00  0.00     0.124 C 
BRANCH  10  11
ATOM     11  C   UNL d   1     -41.443-122.941 -51.514  0.00  0.00     0.232 C 
ATOM     12  O   UNL d   1     -41.147-123.701 -51.677  0.00  0.00    -0.283 OA
BRANCH  11  13
ATOM     13  C   UNL d   1     -41.781-122.781 -50.772  0.00  0.00     0.137 C 
BRANCH  13  14
ATOM     14  N   UNL d   1     -41.500-123.157 -50.097  0.00  0.00    -0.262 NA
BRANCH  14  15
ATOM     15  C   UNL d   1     -41.890-123.065 -49.379  0.00  0.00     0.143 C 
ATOM     16  C   UNL d   1     -41.537-123.315 -48.676  0.00  0.00     0.032 C 
ATOM     17  C   UNL d   1     -41.171-123.424 -49.177  0.00  0.00     0.032 C 
BRANCH  15  18
ATOM     18  C   UNL d   1     -42.645-122.716 -49.359  0.00  0.00     0.229 C 
ATOM     19  O   UNL d   1     -43.084-122.728 -48.659  0.00  0.00    -0.286 OA
ENDBRANCH  15  18
ENDBRANCH  14  15
ENDBRANCH  13  14
ENDBRANCH  11  13
ENDBRANCH  10  11
ENDBRANCH   1  10
BRANCH   2  20
ATOM     20  C   UNL d   1     -41.124-123.787 -54.565  0.00  0.00     0.236 C 
ATOM     21  O   UNL d   1     -41.323-123.763 -55.366  0.00  0.00    -0.283 OA
ENDBRANCH   2  20
TORSDOF 7
ENDMDL
