MODEL 1
REMARK VINA RESULT:       7.0      0.000      0.000
REMARK  3 active torsions:
REMARK  status: ('A' for Active; 'I' for Inactive)
REMARK    1  A    between atoms: C_3  and  S_1 
REMARK    2  A    between atoms: N_4  and  S_1 
REMARK       I    between atoms: C_2  and  N_5 
REMARK       I    between atoms: N_6  and  C_2 
REMARK    3  A    between atoms: C_13  and  N_6 
ROOT
ATOM      1  C   UNL d   1      57.797  -6.280  28.549  0.00  0.00     0.339 C 
ATOM      2  N   UNL d   1      59.055  -4.139  28.550  0.00  0.00    -0.226 N 
ATOM      3  N   UNL d   1      58.220  -5.572  28.549  0.00  0.00    -0.254 N 
ATOM      4  N   UNL d   1      58.198  -7.006  28.526  0.00  0.00    -0.257 N 
ATOM      5  C   UNL d   1      59.468  -4.853  28.526  0.00  0.00     0.111 A 
ATOM      6  C   UNL d   1      58.220  -4.140  28.572  0.00  0.00     0.111 A 
ATOM      7  O   UNL d   1      56.963  -6.272  28.572  0.00  0.00    -0.245 OA
ATOM      8  C   UNL d   1      59.046  -5.577  28.526  0.00  0.00     0.104 A 
ATOM      9  C   UNL d   1      57.805  -4.853  28.572  0.00  0.00     0.104 A 
ATOM     10  C   UNL d   1      59.021  -7.009  28.503  0.00  0.00     0.104 C 
ENDROOT
BRANCH   2  11
ATOM     11  S   UNL d   1      59.466  -3.433  28.550  0.00  0.00     0.271 S 
ATOM     12  O   UNL d   1      60.176  -3.847  28.631  0.00  0.00    -0.200 OA
ATOM     13  O   UNL d   1      58.757  -3.020  28.469  0.00  0.00    -0.200 OA
BRANCH  11  14
ATOM     14  C   UNL d   1      59.882  -2.721  28.550  0.00  0.00     0.104 A 
ATOM     15  C   UNL d   1      60.701  -2.722  28.547  0.00  0.00     0.012 A 
ATOM     16  C   UNL d   1      61.111  -2.019  28.547  0.00  0.00     0.001 A 
ATOM     17  C   UNL d   1      61.108  -3.440  28.542  0.00  0.00     0.001 C 
ATOM     18  C   UNL d   1      60.703  -1.305  28.551  0.00  0.00     0.000 A 
ATOM     19  C   UNL d   1      59.883  -1.303  28.555  0.00  0.00     0.001 A 
ATOM     20  C   UNL d   1      61.119  -0.592  28.551  0.00  0.00     0.000 C 
ATOM     21  C   UNL d   1      59.472  -2.009  28.554  0.00  0.00     0.012 A 
ATOM     22  C   UNL d   1      58.644  -2.014  28.558  0.00  0.00     0.001 C 
ENDBRANCH  11  14
ENDBRANCH   2  11
BRANCH   4  23
ATOM     23  C   UNL d   1      57.769  -7.717  28.526  0.00  0.00     0.068 A 
ATOM     24  C   UNL d   1      58.151  -8.449  28.581  0.00  0.00     0.018 A 
ATOM     25  C   UNL d   1      57.719  -9.143  28.580  0.00  0.00     0.002 A 
ATOM     26  C   UNL d   1      56.891  -9.113  28.523  0.00  0.00     0.000 A 
ATOM     27  C   UNL d   1      56.504  -8.381  28.467  0.00  0.00     0.002 A 
ATOM     28  C   UNL d   1      56.462  -9.817  28.523  0.00  0.00     0.000 C 
ATOM     29  C   UNL d   1      56.951  -7.688  28.469  0.00  0.00     0.018 A 
ENDBRANCH   4  23
TORSDOF 3
ENDMDL
