MODEL 1
REMARK VINA RESULT:      20.1      0.000      0.000
REMARK  8 active torsions:
REMARK  status: ('A' for Active; 'I' for Inactive)
REMARK    1  A    between atoms: C_13  and  C_4 
REMARK    2  A    between atoms: N_16  and  C_5 
REMARK    3  A    between atoms: C_20  and  C_9 
REMARK    4  A    between atoms: N_11  and  C_18 
REMARK    5  A    between atoms: C_21  and  N_16 
REMARK    6  A    between atoms: C_18  and  C_19 
REMARK    7  A    between atoms: C_19  and  C_21 
REMARK    8  A    between atoms: C_24  and  C_20 
ROOT
ATOM      1  N   UNL d   1      45.846 -17.370  43.490  0.00  0.00    -0.184 N 
ATOM      2  C   UNL d   1      46.060 -18.095  43.139  0.00  0.00     0.168 A 
ATOM      3  N   UNL d   1      45.537 -16.844  42.213  0.00  0.00    -0.162 NA
ATOM      4  C   UNL d   1      46.011 -18.187  42.339  0.00  0.00     0.055 A 
ATOM      5  C   UNL d   1      45.902 -17.299  44.298  0.00  0.00     0.218 A 
ATOM      6  C   UNL d   1      45.751 -17.569  41.862  0.00  0.00     0.104 A 
ATOM      7  N   UNL d   1      46.319 -18.713  43.616  0.00  0.00    -0.227 NA
ATOM      8  C   UNL d   1      46.156 -17.899  44.775  0.00  0.00     0.071 A 
ATOM      9  C   UNL d   1      46.370 -18.624  44.425  0.00  0.00     0.087 A 
ATOM     10  C   UNL d   1      45.700 -17.654  41.055  0.00  0.00     0.023 C 
ENDROOT
BRANCH   5  11
ATOM     11  N   UNL d   1      45.681 -16.552  44.660  0.00  0.00    -0.380 NA
BRANCH  11  12
ATOM     12  C   UNL d   1      45.446 -15.781  44.953  0.00  0.00     0.164 C 
BRANCH  12  13
ATOM     13  C   UNL d   1      45.579 -15.090  44.474  0.00  0.00     0.054 C 
BRANCH  13  14
ATOM     14  C   UNL d   1      45.634 -14.325  44.842  0.00  0.00     0.084 C 
BRANCH  14  15
ATOM     15  N   UNL d   1      45.709 -13.635  44.367  0.00  0.00    -0.285 N 
ATOM     16  C   UNL d   1      46.144 -12.933  44.558  0.00  0.00     0.183 A 
ATOM     17  N   UNL d   1      46.064 -12.380  43.914  0.00  0.00    -0.222 NA
ATOM     18  C   UNL d   1      45.580 -12.732  43.319  0.00  0.00     0.120 A 
ATOM     19  C   UNL d   1      45.358 -13.505  43.591  0.00  0.00     0.102 A 
ENDBRANCH  14  15
ENDBRANCH  13  14
ENDBRANCH  12  13
ENDBRANCH  11  12
ENDBRANCH   5  11
BRANCH   9  20
ATOM     20  C   UNL d   1      46.641 -19.271  44.915  0.00  0.00     0.019 C 
BRANCH  20  21
ATOM     21  C   UNL d   1      46.380 -20.080  44.760  0.00  0.00     0.002 C 
ATOM     22  C   UNL d   1      45.578 -20.308  44.913  0.00  0.00     0.000 C 
ENDBRANCH  20  21
ENDBRANCH   9  20
BRANCH   4  23
ATOM     23  C   UNL d   1      46.222 -18.901  41.994  0.00  0.00     0.004 A 
ATOM     24  C   UNL d   1      46.242 -19.579  42.451  0.00  0.00     0.000 A 
ATOM     25  C   UNL d   1      46.453 -20.294  42.106  0.00  0.00     0.000 A 
ATOM     26  C   UNL d   1      46.644 -20.329  41.304  0.00  0.00     0.000 A 
ATOM     27  C   UNL d   1      46.624 -19.648  40.844  0.00  0.00     0.000 A 
ATOM     28  C   UNL d   1      46.410 -18.923  41.194  0.00  0.00     0.000 A 
ENDBRANCH   4  23
TORSDOF 8
ENDMDL
