MODEL 1
REMARK VINA RESULT:      76.7      0.000      0.000
REMARK  7 active torsions:
REMARK  status: ('A' for Active; 'I' for Inactive)
REMARK    1  A    between atoms: C_3  and  S_1 
REMARK    2  A    between atoms: N_4  and  S_1 
REMARK    3  A    between atoms: C_2  and  C_11 
REMARK       I    between atoms: N_5  and  C_2 
REMARK    4  A    between atoms: C_18  and  N_4 
REMARK    5  A    between atoms: C_12  and  N_5 
REMARK    6  A    between atoms: C_22  and  C_18 
REMARK    7  A    between atoms: O_26  and  C_19 
ROOT
ATOM      1  C   UNL d   1     -55.032-101.176 -42.044  0.00  0.00     0.058 A 
ATOM      2  C   UNL d   1     -55.030-100.859 -41.274  0.00  0.00     0.005 A 
ATOM      3  C   UNL d   1     -55.017-101.993 -42.152  0.00  0.00     0.005 A 
ATOM      4  C   UNL d   1     -54.998-102.173 -40.729  0.00  0.00     0.020 A 
ATOM      5  C   UNL d   1     -55.013-101.356 -40.622  0.00  0.00     0.002 A 
ATOM      6  C   UNL d   1     -55.000-102.496 -41.489  0.00  0.00     0.002 A 
ENDROOT
BRANCH   4   7
ATOM      7  C   UNL d   1     -54.981-102.681 -40.073  0.00  0.00     0.112 C 
BRANCH   7   8
ATOM      8  N   UNL d   1     -54.711-102.400 -39.337  0.00  0.00    -0.157 NA
BRANCH   8   9
ATOM      9  S   UNL d   1     -55.232-102.347 -38.691  0.00  0.00     0.285 S 
ATOM     10  O   UNL d   1     -55.720-101.821 -39.116  0.00  0.00    -0.198 OA
ATOM     11  O   UNL d   1     -54.747-102.876 -38.254  0.00  0.00    -0.198 OA
BRANCH   9  12
ATOM     12  C   UNL d   1     -55.753-102.298 -38.036  0.00  0.00     0.107 A 
ATOM     13  C   UNL d   1     -55.488-102.000 -37.314  0.00  0.00     0.037 A 
ATOM     14  C   UNL d   1     -55.998-101.951 -36.672  0.00  0.00     0.095 A 
ATOM     15  C   UNL d   1     -56.777-102.199 -36.745  0.00  0.00     0.024 A 
ATOM     16  C   UNL d   1     -57.050-102.499 -37.470  0.00  0.00     0.003 A 
ATOM     17  C   UNL d   1     -56.540-102.549 -38.112  0.00  0.00     0.013 A 
BRANCH  14  18
ATOM     18  O   UNL d   1     -55.733-101.651 -35.941  0.00  0.00    -0.328 OA
ATOM     19  C   UNL d   1     -55.520-102.171 -35.344  0.00  0.00     0.181 C 
ENDBRANCH  14  18
ENDBRANCH   9  12
ENDBRANCH   8   9
ENDBRANCH   7   8
ENDBRANCH   4   7
BRANCH   1  20
ATOM     20  C   UNL d   1     -55.049-100.683 -42.704  0.00  0.00     0.279 C 
ATOM     21  N   UNL d   1     -55.291-100.979 -43.432  0.00  0.00    -0.208 NA
ATOM     22  O   UNL d   1     -54.823 -99.890 -42.640  0.00  0.00    -0.265 OA
BRANCH  21  23
ATOM     23  C   UNL d   1     -55.308-100.480 -44.098  0.00  0.00     0.086 A 
ATOM     24  C   UNL d   1     -55.922 -99.924 -44.172  0.00  0.00     0.032 A 
ATOM     25  C   UNL d   1     -55.934 -99.428 -44.839  0.00  0.00     0.070 A 
ATOM     26 CL   UNL d   1     -56.542 -98.876 -44.915  0.00  0.00    -0.081 Cl
ATOM     27  C   UNL d   1     -55.346 -99.492 -45.413  0.00  0.00     0.068 A 
ATOM     28  C   UNL d   1     -54.740-100.051 -45.327  0.00  0.00     0.014 A 
ATOM     29 CL   UNL d   1     -55.366 -98.994 -46.075  0.00  0.00    -0.082 Cl
ATOM     30  C   UNL d   1     -54.727-100.542 -44.667  0.00  0.00     0.020 A 
ENDBRANCH  21  23
ENDBRANCH   1  20
TORSDOF 7
ENDMDL
