MODEL 1
REMARK VINA RESULT:      -3.1      0.000      0.000
REMARK  5 active torsions:
REMARK  status: ('A' for Active; 'I' for Inactive)
REMARK    1  A    between atoms: S_10  and  C_6 
REMARK    2  A    between atoms: C_15  and  S_10 
REMARK    3  A    between atoms: C_11  and  C_15 
REMARK       I    between atoms: N_13  and  C_11 
REMARK    4  A    between atoms: C_17  and  N_13 
REMARK    5  A    between atoms: O_25  and  C_18 
ROOT
ATOM      1  C   UNL d   1     -42.993-122.776 -49.210  0.00  0.00     0.155 A 
ATOM      2  C   UNL d   1     -42.167-122.834 -49.195  0.00  0.00     0.107 A 
ATOM      3  N   UNL d   1     -42.928-122.231 -50.530  0.00  0.00    -0.250 N 
ATOM      4  C   UNL d   1     -43.372-122.477 -49.872  0.00  0.00     0.285 A 
ATOM      5  N   UNL d   1     -41.723-122.589 -49.851  0.00  0.00    -0.220 NA
ATOM      6  C   UNL d   1     -42.111-122.290 -50.512  0.00  0.00     0.182 A 
ATOM      7  N   UNL d   1     -43.283-123.057 -48.491  0.00  0.00    -0.239 NA
ATOM      8  C   UNL d   1     -41.941-123.150 -48.470  0.00  0.00     0.037 A 
ATOM      9  C   UNL d   1     -42.635-123.290 -48.029  0.00  0.00     0.083 A 
ATOM     10  O   UNL d   1     -44.200-122.415 -49.895  0.00  0.00    -0.265 OA
ATOM     11  C   UNL d   1     -43.309-121.928 -51.200  0.00  0.00     0.104 C 
ATOM     12  C   UNL d   1     -41.207-123.331 -48.147  0.00  0.00     0.003 A 
ATOM     13  C   UNL d   1     -42.585-123.610 -47.267  0.00  0.00     0.019 A 
ATOM     14  C   UNL d   1     -41.157-123.651 -47.385  0.00  0.00     0.000 A 
ATOM     15  C   UNL d   1     -41.844-123.788 -46.950  0.00  0.00     0.002 A 
ENDROOT
BRANCH   6  16
ATOM     16  S   UNL d   1     -41.671-122.045 -51.167  0.00  0.00    -0.044 SA
BRANCH  16  17
ATOM     17  C   UNL d   1     -41.424-122.593 -51.731  0.00  0.00     0.101 C 
BRANCH  17  18
ATOM     18  C   UNL d   1     -41.415-122.390 -52.528  0.00  0.00     0.286 C 
ATOM     19  N   UNL d   1     -41.703-122.920 -53.081  0.00  0.00    -0.208 NA
ATOM     20  O   UNL d   1     -41.123-121.666 -52.777  0.00  0.00    -0.265 OA
BRANCH  19  21
ATOM     21  C   UNL d   1     -41.697-122.720 -53.886  0.00  0.00     0.085 A 
ATOM     22  C   UNL d   1     -41.129-123.032 -54.377  0.00  0.00     0.021 A 
ATOM     23  C   UNL d   1     -41.123-122.832 -55.182  0.00  0.00     0.026 A 
ATOM     24  C   UNL d   1     -41.692-122.318 -55.485  0.00  0.00     0.094 A 
ATOM     25  C   UNL d   1     -42.273-122.003 -54.969  0.00  0.00     0.026 A 
ATOM     26  C   UNL d   1     -42.271-122.206 -54.176  0.00  0.00     0.021 A 
BRANCH  24  27
ATOM     27  O   UNL d   1     -41.675-122.125 -56.292  0.00  0.00    -0.328 OA
ATOM     28  C   UNL d   1     -42.152-121.525 -56.585  0.00  0.00     0.181 C 
ENDBRANCH  24  27
ENDBRANCH  19  21
ENDBRANCH  17  18
ENDBRANCH  16  17
ENDBRANCH   6  16
TORSDOF 5
ENDMDL
MODEL 2
REMARK VINA RESULT:      -1.7      1.366      5.896
REMARK  5 active torsions:
REMARK  status: ('A' for Active; 'I' for Inactive)
REMARK    1  A    between atoms: S_10  and  C_6 
REMARK    2  A    between atoms: C_15  and  S_10 
REMARK    3  A    between atoms: C_11  and  C_15 
REMARK       I    between atoms: N_13  and  C_11 
REMARK    4  A    between atoms: C_17  and  N_13 
REMARK    5  A    between atoms: O_25  and  C_18 
ROOT
ATOM      1  C   UNL d   1     -41.909-121.466 -53.935  0.00  0.00     0.155 A 
ATOM      2  C   UNL d   1     -41.929-122.294 -53.940  0.00  0.00     0.107 A 
ATOM      3  N   UNL d   1     -41.399-121.489 -52.600  0.00  0.00    -0.250 N 
ATOM      4  C   UNL d   1     -41.646-121.065 -53.270  0.00  0.00     0.285 A 
ATOM      5  N   UNL d   1     -41.682-122.718 -53.271  0.00  0.00    -0.220 NA
ATOM      6  C   UNL d   1     -41.419-122.307 -52.608  0.00  0.00     0.182 A 
ATOM      7  N   UNL d   1     -42.182-121.198 -54.665  0.00  0.00    -0.239 NA
ATOM      8  C   UNL d   1     -42.213-122.543 -54.670  0.00  0.00     0.037 A 
ATOM      9  C   UNL d   1     -42.373-121.862 -55.125  0.00  0.00     0.083 A 
ATOM     10  O   UNL d   1     -41.623-120.235 -53.257  0.00  0.00    -0.265 OA
ATOM     11  C   UNL d   1     -41.133-121.085 -51.927  0.00  0.00     0.104 C 
ATOM     12  C   UNL d   1     -42.351-123.289 -54.988  0.00  0.00     0.003 A 
ATOM     13  C   UNL d   1     -42.668-121.937 -55.894  0.00  0.00     0.019 A 
ATOM     14  C   UNL d   1     -42.647-123.363 -55.757  0.00  0.00     0.000 A 
ATOM     15  C   UNL d   1     -42.804-122.689 -56.205  0.00  0.00     0.002 A 
ENDROOT
BRANCH   6  16
ATOM     16  S   UNL d   1     -41.173-122.727 -51.940  0.00  0.00    -0.044 SA
BRANCH  16  17
ATOM     17  C   UNL d   1     -41.638-123.337 -51.637  0.00  0.00     0.101 C 
BRANCH  17  18
ATOM     18  C   UNL d   1     -41.711-123.436 -50.823  0.00  0.00     0.286 C 
ATOM     19  N   UNL d   1     -42.376-123.149 -50.442  0.00  0.00    -0.208 NA
ATOM     20  O   UNL d   1     -41.129-123.815 -50.389  0.00  0.00    -0.265 OA
BRANCH  19  21
ATOM     21  C   UNL d   1     -42.455-123.245 -49.622  0.00  0.00     0.085 A 
ATOM     22  C   UNL d   1     -41.883-122.955 -49.123  0.00  0.00     0.021 A 
ATOM     23  C   UNL d   1     -41.962-123.051 -48.303  0.00  0.00     0.026 A 
ATOM     24  C   UNL d   1     -42.620-123.440 -47.994  0.00  0.00     0.094 A 
ATOM     25  C   UNL d   1     -43.203-123.735 -48.518  0.00  0.00     0.026 A 
ATOM     26  C   UNL d   1     -43.117-123.636 -49.327  0.00  0.00     0.021 A 
BRANCH  24  27
ATOM     27  O   UNL d   1     -42.687-123.530 -47.171  0.00  0.00    -0.328 OA
ATOM     28  C   UNL d   1     -42.080-123.288 -46.676  0.00  0.00     0.181 C 
ENDBRANCH  24  27
ENDBRANCH  19  21
ENDBRANCH  17  18
ENDBRANCH  16  17
ENDBRANCH   6  16
TORSDOF 5
ENDMDL
