MODEL 1
REMARK VINA RESULT:      31.4      0.000      0.000
REMARK  4 active torsions:
REMARK  status: ('A' for Active; 'I' for Inactive)
REMARK    1  A    between atoms: C_5  and  C_1 
REMARK    2  A    between atoms: O_8  and  C_5 
REMARK    3  A    between atoms: C_11  and  O_8 
REMARK    4  A    between atoms: C_12  and  C_11 
ROOT
ATOM      1  C   UNL d   1      13.646  12.223  -2.822  0.00  0.00     0.127 A 
ATOM      2  C   UNL d   1      14.428  12.081  -2.890  0.00  0.00     0.305 A 
ATOM      3  C   UNL d   1      13.270  12.227  -2.087  0.00  0.00     0.013 A 
ATOM      4  O   UNL d   1      14.899  11.930  -2.230  0.00  0.00    -0.273 OA
ATOM      5  C   UNL d   1      13.742  12.076  -1.427  0.00  0.00     0.023 A 
ATOM      6  C   UNL d   1      14.524  11.933  -1.496  0.00  0.00     0.103 A 
ATOM      7  O   UNL d   1      14.803  12.077  -3.625  0.00  0.00    -0.259 OA
ATOM      8  C   UNL d   1      13.366  12.079  -0.692  0.00  0.00     0.002 A 
ATOM      9  C   UNL d   1      14.995  11.782  -0.835  0.00  0.00     0.025 A 
ATOM     10  C   UNL d   1      14.620  11.786  -0.101  0.00  0.00     0.002 A 
ATOM     11  C   UNL d   1      13.838  11.928  -0.032  0.00  0.00     0.000 A 
ENDROOT
BRANCH   1  12
ATOM     12  C   UNL d   1      13.174  12.374  -3.482  0.00  0.00     0.305 C 
ATOM     13  O   UNL d   1      13.007  11.781  -4.044  0.00  0.00    -0.259 OA
BRANCH  12  14
ATOM     14  O   UNL d   1      12.870  13.114  -3.584  0.00  0.00    -0.271 OA
BRANCH  14  15
ATOM     15  C   UNL d   1      12.888  13.478  -4.303  0.00  0.00     0.126 C 
BRANCH  15  16
ATOM     16  C   UNL d   1      13.154  14.235  -4.382  0.00  0.00     0.025 A 
ATOM     17  C   UNL d   1      13.139  14.599  -5.133  0.00  0.00     0.002 A 
ATOM     18  C   UNL d   1      13.420  15.387  -5.197  0.00  0.00     0.000 A 
ATOM     19  C   UNL d   1      13.700  15.800  -4.563  0.00  0.00     0.000 A 
ATOM     20  C   UNL d   1      13.716  15.436  -3.812  0.00  0.00     0.000 A 
ATOM     21  C   UNL d   1      13.450  14.679  -3.734  0.00  0.00     0.002 A 
ENDBRANCH  15  16
ENDBRANCH  14  15
ENDBRANCH  12  14
ENDBRANCH   1  12
TORSDOF 4
ENDMDL
MODEL 2
REMARK VINA RESULT:      32.5      0.916      1.353
REMARK  4 active torsions:
REMARK  status: ('A' for Active; 'I' for Inactive)
REMARK    1  A    between atoms: C_5  and  C_1 
REMARK    2  A    between atoms: O_8  and  C_5 
REMARK    3  A    between atoms: C_11  and  O_8 
REMARK    4  A    between atoms: C_12  and  C_11 
ROOT
ATOM      1  C   UNL d   1      13.783  12.779  -2.745  0.00  0.00     0.127 A 
ATOM      2  C   UNL d   1      13.382  12.131  -2.509  0.00  0.00     0.305 A 
ATOM      3  C   UNL d   1      14.356  13.130  -2.266  0.00  0.00     0.013 A 
ATOM      4  O   UNL d   1      13.520  11.780  -1.775  0.00  0.00    -0.273 OA
ATOM      5  C   UNL d   1      14.494  12.779  -1.532  0.00  0.00     0.023 A 
ATOM      6  C   UNL d   1      14.093  12.131  -1.296  0.00  0.00     0.103 A 
ATOM      7  O   UNL d   1      12.809  11.779  -2.988  0.00  0.00    -0.259 OA
ATOM      8  C   UNL d   1      15.067  13.131  -1.053  0.00  0.00     0.002 A 
ATOM      9  C   UNL d   1      14.231  11.781  -0.562  0.00  0.00     0.025 A 
ATOM     10  C   UNL d   1      14.804  12.132  -0.083  0.00  0.00     0.002 A 
ATOM     11  C   UNL d   1      15.205  12.780  -0.319  0.00  0.00     0.000 A 
ENDROOT
BRANCH   1  12
ATOM     12  C   UNL d   1      13.645  13.129  -3.479  0.00  0.00     0.305 C 
ATOM     13  O   UNL d   1      13.415  12.678  -4.143  0.00  0.00    -0.259 OA
BRANCH  12  14
ATOM     14  O   UNL d   1      13.736  13.927  -3.555  0.00  0.00    -0.271 OA
BRANCH  14  15
ATOM     15  C   UNL d   1      13.493  14.313  -4.220  0.00  0.00     0.126 C 
BRANCH  15  16
ATOM     16  C   UNL d   1      13.852  14.994  -4.462  0.00  0.00     0.025 A 
ATOM     17  C   UNL d   1      14.103  15.549  -3.893  0.00  0.00     0.002 A 
ATOM     18  C   UNL d   1      14.475  16.252  -4.162  0.00  0.00     0.000 A 
ATOM     19  C   UNL d   1      14.595  16.406  -4.945  0.00  0.00     0.000 A 
ATOM     20  C   UNL d   1      14.344  15.851  -5.514  0.00  0.00     0.000 A 
ATOM     21  C   UNL d   1      13.985  15.170  -5.272  0.00  0.00     0.002 A 
ENDBRANCH  15  16
ENDBRANCH  14  15
ENDBRANCH  12  14
ENDBRANCH   1  12
TORSDOF 4
ENDMDL
