MODEL 1
REMARK VINA RESULT:      -5.2      0.000      0.000
REMARK  5 active torsions:
REMARK  status: ('A' for Active; 'I' for Inactive)
REMARK    1  A    between atoms: C_10  and  C_4 
REMARK       I    between atoms: C_6  and  N_8 
REMARK    2  A    between atoms: C_9  and  C_6 
REMARK    3  A    between atoms: N_8  and  C_13 
REMARK    4  A    between atoms: C_11  and  C_9 
REMARK    5  A    between atoms: C_13  and  C_10 
ROOT
ATOM      1  C   UNL d   1      57.441   0.005  30.640  0.00  0.00     0.279 C 
ATOM      2  O   UNL d   1      56.969   0.682  30.678  0.00  0.00    -0.265 OA
ATOM      3  N   UNL d   1      57.857  -0.165  29.957  0.00  0.00    -0.206 NA
ENDROOT
BRANCH   1   4
ATOM      4  C   UNL d   1      57.489  -0.494  31.295  0.00  0.00     0.062 C 
BRANCH   4   5
ATOM      5  C   UNL d   1      56.940  -0.427  31.915  0.00  0.00     0.005 A 
ATOM      6  C   UNL d   1      56.443  -1.050  32.062  0.00  0.00     0.001 A 
ATOM      7  C   UNL d   1      55.896  -0.990  32.676  0.00  0.00     0.011 A 
ATOM      8  C   UNL d   1      55.851  -0.311  33.134  0.00  0.00     0.058 A 
ATOM      9  C   UNL d   1      56.358   0.321  32.983  0.00  0.00     0.011 A 
ATOM     10 CL   UNL d   1      55.296  -0.260  33.752  0.00  0.00    -0.082 Cl
ATOM     11  C   UNL d   1      56.905   0.261  32.370  0.00  0.00     0.001 A 
ENDBRANCH   4   5
ENDBRANCH   1   4
BRANCH   3  12
ATOM     12  C   UNL d   1      58.338  -0.855  29.924  0.00  0.00     0.104 C 
BRANCH  12  13
ATOM     13  C   UNL d   1      58.788  -1.000  29.247  0.00  0.00     0.040 C 
BRANCH  13  14
ATOM     14  C   UNL d   1      59.151  -1.743  29.154  0.00  0.00     0.090 A 
ATOM     15  N   UNL d   1      59.973  -1.793  29.099  0.00  0.00    -0.238 NA
ATOM     16  C   UNL d   1      60.174  -2.588  29.011  0.00  0.00     0.111 A 
ATOM     17  S   UNL d   1      59.485  -3.025  29.011  0.00  0.00    -0.066 SA
ATOM     18  C   UNL d   1      60.940  -2.900  28.935  0.00  0.00     0.028 C 
ATOM     19  C   UNL d   1      58.845  -2.513  29.099  0.00  0.00     0.056 A 
ENDBRANCH  13  14
ENDBRANCH  12  13
ENDBRANCH   3  12
TORSDOF 5
ENDMDL
MODEL 2
REMARK VINA RESULT:      -5.0      1.735      2.173
REMARK  5 active torsions:
REMARK  status: ('A' for Active; 'I' for Inactive)
REMARK    1  A    between atoms: C_10  and  C_4 
REMARK       I    between atoms: C_6  and  N_8 
REMARK    2  A    between atoms: C_9  and  C_6 
REMARK    3  A    between atoms: N_8  and  C_13 
REMARK    4  A    between atoms: C_11  and  C_9 
REMARK    5  A    between atoms: C_13  and  C_10 
ROOT
ATOM      1  C   UNL d   1      56.608  -0.963  32.079  0.00  0.00     0.279 C 
ATOM      2  O   UNL d   1      56.178  -1.531  32.497  0.00  0.00    -0.265 OA
ATOM      3  N   UNL d   1      57.034  -1.180  31.417  0.00  0.00    -0.206 NA
ENDROOT
BRANCH   1   4
ATOM      4  C   UNL d   1      56.602  -0.179  32.336  0.00  0.00     0.062 C 
BRANCH   4   5
ATOM      5  C   UNL d   1      56.186   0.035  33.023  0.00  0.00     0.005 A 
ATOM      6  C   UNL d   1      56.603   0.333  33.651  0.00  0.00     0.001 A 
ATOM      7  C   UNL d   1      56.195   0.547  34.336  0.00  0.00     0.011 A 
ATOM      8  C   UNL d   1      55.380   0.462  34.384  0.00  0.00     0.058 A 
ATOM      9  C   UNL d   1      54.960   0.159  33.743  0.00  0.00     0.011 A 
ATOM     10 CL   UNL d   1      54.978   0.681  35.079  0.00  0.00    -0.082 Cl
ATOM     11  C   UNL d   1      55.367  -0.055  33.060  0.00  0.00     0.001 A 
ENDBRANCH   4   5
ENDBRANCH   1   4
BRANCH   3  12
ATOM     12  C   UNL d   1      57.471  -0.597  30.994  0.00  0.00     0.104 C 
BRANCH  12  13
ATOM     13  C   UNL d   1      57.799  -0.793  30.262  0.00  0.00     0.040 C 
BRANCH  13  14
ATOM     14  C   UNL d   1      58.387  -0.301  29.938  0.00  0.00     0.090 A 
ATOM     15  N   UNL d   1      59.117  -0.622  29.722  0.00  0.00    -0.238 NA
ATOM     16  C   UNL d   1      59.583  -0.012  29.421  0.00  0.00     0.111 A 
ATOM     17  S   UNL d   1      59.149   0.679  29.450  0.00  0.00    -0.066 SA
ATOM     18  C   UNL d   1      60.360  -0.077  29.135  0.00  0.00     0.028 C 
ATOM     19  C   UNL d   1      58.407   0.512  29.768  0.00  0.00     0.056 A 
ENDBRANCH  13  14
ENDBRANCH  12  13
ENDBRANCH   3  12
TORSDOF 5
ENDMDL
MODEL 3
REMARK VINA RESULT:      -3.8      2.550      4.815
REMARK  5 active torsions:
REMARK  status: ('A' for Active; 'I' for Inactive)
REMARK    1  A    between atoms: C_10  and  C_4 
REMARK       I    between atoms: C_6  and  N_8 
REMARK    2  A    between atoms: C_9  and  C_6 
REMARK    3  A    between atoms: N_8  and  C_13 
REMARK    4  A    between atoms: C_11  and  C_9 
REMARK    5  A    between atoms: C_13  and  C_10 
ROOT
ATOM      1  C   UNL d   1      58.600  -0.856  29.286  0.00  0.00     0.279 C 
ATOM      2  O   UNL d   1      58.800  -0.845  28.485  0.00  0.00    -0.265 OA
ATOM      3  N   UNL d   1      58.157  -0.247  29.605  0.00  0.00    -0.206 NA
ENDROOT
BRANCH   1   4
ATOM      4  C   UNL d   1      58.850  -1.484  29.758  0.00  0.00     0.062 C 
BRANCH   4   5
ATOM      5  C   UNL d   1      59.299  -2.103  29.432  0.00  0.00     0.005 A 
ATOM      6  C   UNL d   1      58.911  -2.761  29.159  0.00  0.00     0.001 A 
ATOM      7  C   UNL d   1      59.351  -3.378  28.834  0.00  0.00     0.011 A 
ATOM      8  C   UNL d   1      60.169  -3.331  28.785  0.00  0.00     0.058 A 
ATOM      9  C   UNL d   1      60.560  -2.661  29.063  0.00  0.00     0.011 A 
ATOM     10 CL   UNL d   1      60.604  -3.959  28.455  0.00  0.00    -0.082 Cl
ATOM     11  C   UNL d   1      60.121  -2.045  29.388  0.00  0.00     0.001 A 
ENDBRANCH   4   5
ENDBRANCH   1   4
BRANCH   3  12
ATOM     12  C   UNL d   1      57.956  -0.263  30.422  0.00  0.00     0.104 C 
BRANCH  12  13
ATOM     13  C   UNL d   1      57.429   0.299  30.718  0.00  0.00     0.040 C 
BRANCH  13  14
ATOM     14  C   UNL d   1      57.175   0.240  31.508  0.00  0.00     0.090 A 
ATOM     15  N   UNL d   1      56.557  -0.271  31.703  0.00  0.00    -0.238 NA
ATOM     16  C   UNL d   1      56.427  -0.215  32.516  0.00  0.00     0.111 A 
ATOM     17  S   UNL d   1      56.959   0.324  32.821  0.00  0.00    -0.066 SA
ATOM     18  C   UNL d   1      55.859  -0.630  32.957  0.00  0.00     0.028 C 
ATOM     19  C   UNL d   1      57.427   0.612  32.207  0.00  0.00     0.056 A 
ENDBRANCH  13  14
ENDBRANCH  12  13
ENDBRANCH   3  12
TORSDOF 5
ENDMDL
