MODEL 1
REMARK VINA RESULT:      -9.0      0.000      0.000
REMARK  5 active torsions:
REMARK  status: ('A' for Active; 'I' for Inactive)
REMARK       I    between atoms: N_3  and  C_1 
REMARK    1  A    between atoms: C_4  and  C_1 
REMARK    2  A    between atoms: C_2  and  C_6 
REMARK    3  A    between atoms: O_5  and  C_2 
REMARK    4  A    between atoms: C_11  and  N_3 
REMARK    5  A    between atoms: C_14  and  O_5 
ROOT
ATOM      1  C   UNL d   1      51.523  34.001  52.673  0.00  0.00     0.064 A 
ATOM      2  C   UNL d   1      52.077  34.573  52.895  0.00  0.00     0.008 A 
ATOM      3  C   UNL d   1      51.683  33.197  52.804  0.00  0.00     0.008 A 
ATOM      4  C   UNL d   1      52.945  33.542  53.377  0.00  0.00     0.135 A 
ATOM      5  C   UNL d   1      52.785  34.346  53.246  0.00  0.00     0.032 A 
ATOM      6  C   UNL d   1      52.396  32.972  53.157  0.00  0.00     0.032 A 
ENDROOT
BRANCH   1   7
ATOM      7  C   UNL d   1      50.812  34.236  52.320  0.00  0.00     0.300 C 
ATOM      8  O   UNL d   1      50.811  34.478  51.534  0.00  0.00    -0.259 OA
BRANCH   7   9
ATOM      9  O   UNL d   1      50.111  34.226  52.755  0.00  0.00    -0.273 OA
BRANCH   9  10
ATOM     10  C   UNL d   1      49.451  34.634  52.476  0.00  0.00     0.103 A 
ATOM     11  C   UNL d   1      49.125  34.435  51.746  0.00  0.00     0.025 A 
ATOM     12  C   UNL d   1      48.472  34.841  51.473  0.00  0.00     0.002 A 
ATOM     13  C   UNL d   1      48.133  35.448  51.918  0.00  0.00     0.000 A 
ATOM     14  C   UNL d   1      48.465  35.645  52.653  0.00  0.00     0.002 A 
ATOM     15  C   UNL d   1      49.123  35.238  52.932  0.00  0.00     0.025 A 
ENDBRANCH   9  10
ENDBRANCH   7   9
ENDBRANCH   1   7
BRANCH   4  16
ATOM     16  N   UNL d   1      53.662  33.317  53.731  0.00  0.00    -0.368 NA
ATOM     17  C   UNL d   1      54.370  33.095  54.084  0.00  0.00     0.303 C 
ATOM     18  O   UNL d   1      55.011  32.873  53.616  0.00  0.00    -0.256 OA
BRANCH  17  19
ATOM     19  C   UNL d   1      54.437  33.095  54.905  0.00  0.00     0.085 C 
ATOM     20  C   UNL d   1      53.928  32.637  55.365  0.00  0.00     0.011 C 
ATOM     21  C   UNL d   1      55.030  33.610  54.643  0.00  0.00     0.011 C 
ATOM     22  C   UNL d   1      55.015  33.554  55.271  0.00  0.00     0.011 C 
ENDBRANCH  17  19
ENDBRANCH   4  16
TORSDOF 5
ENDMDL
MODEL 2
REMARK VINA RESULT:      -8.5      1.432      5.251
REMARK  5 active torsions:
REMARK  status: ('A' for Active; 'I' for Inactive)
REMARK       I    between atoms: N_3  and  C_1 
REMARK    1  A    between atoms: C_4  and  C_1 
REMARK    2  A    between atoms: C_2  and  C_6 
REMARK    3  A    between atoms: O_5  and  C_2 
REMARK    4  A    between atoms: C_11  and  N_3 
REMARK    5  A    between atoms: C_14  and  O_5 
ROOT
ATOM      1  C   UNL d   1      51.734  33.712  53.078  0.00  0.00     0.064 A 
ATOM      2  C   UNL d   1      51.759  34.216  52.423  0.00  0.00     0.008 A 
ATOM      3  C   UNL d   1      51.002  33.469  53.385  0.00  0.00     0.008 A 
ATOM      4  C   UNL d   1      50.328  34.232  52.382  0.00  0.00     0.135 A 
ATOM      5  C   UNL d   1      51.059  34.476  52.076  0.00  0.00     0.032 A 
ATOM      6  C   UNL d   1      50.300  33.731  53.034  0.00  0.00     0.032 A 
ENDROOT
BRANCH   1   7
ATOM      7  C   UNL d   1      52.440  33.455  53.423  0.00  0.00     0.300 C 
ATOM      8  O   UNL d   1      53.014  33.100  52.953  0.00  0.00    -0.259 OA
BRANCH   7   9
ATOM      9  O   UNL d   1      52.567  33.554  54.232  0.00  0.00    -0.273 OA
BRANCH   9  10
ATOM     10  C   UNL d   1      53.332  33.509  54.535  0.00  0.00     0.103 A 
ATOM     11  C   UNL d   1      53.661  32.774  54.710  0.00  0.00     0.025 A 
ATOM     12  C   UNL d   1      54.419  32.734  55.010  0.00  0.00     0.002 A 
ATOM     13  C   UNL d   1      54.860  33.419  55.140  0.00  0.00     0.000 A 
ATOM     14  C   UNL d   1      54.525  34.157  54.962  0.00  0.00     0.002 A 
ATOM     15  C   UNL d   1      53.761  34.202  54.660  0.00  0.00     0.025 A 
ENDBRANCH   9  10
ENDBRANCH   7   9
ENDBRANCH   1   7
BRANCH   4  16
ATOM     16  N   UNL d   1      49.624  34.496  52.029  0.00  0.00    -0.368 NA
ATOM     17  C   UNL d   1      48.928  34.759  51.681  0.00  0.00     0.303 C 
ATOM     18  O   UNL d   1      48.720  34.498  50.927  0.00  0.00    -0.256 OA
BRANCH  17  19
ATOM     19  C   UNL d   1      48.439  35.283  52.086  0.00  0.00     0.085 C 
ATOM     20  C   UNL d   1      48.639  35.538  52.845  0.00  0.00     0.011 C 
ATOM     21  C   UNL d   1      48.062  35.160  51.359  0.00  0.00     0.011 C 
ATOM     22  C   UNL d   1      47.746  35.557  51.735  0.00  0.00     0.011 C 
ENDBRANCH  17  19
ENDBRANCH   4  16
TORSDOF 5
ENDMDL
