MODEL 1
REMARK VINA RESULT:       5.5      0.000      0.000
REMARK  1 active torsions:
REMARK  status: ('A' for Active; 'I' for Inactive)
REMARK    1  A    between atoms: C_8  and  N_3 
ROOT
ATOM      1  C   UNL d   1      46.525 -18.845  42.019  0.00  0.00     0.292 A 
ATOM      2  C   UNL d   1      46.551 -18.906  41.195  0.00  0.00     0.128 A 
ATOM      3  N   UNL d   1      46.560 -19.519  42.479  0.00  0.00    -0.194 N 
ATOM      4  N   UNL d   1      46.621 -20.266  42.129  0.00  0.00    -0.160 NA
ATOM      5  C   UNL d   1      46.612 -19.643  40.828  0.00  0.00     0.094 A 
ATOM      6  C   UNL d   1      46.647 -20.328  41.304  0.00  0.00     0.133 A 
ATOM      7  O   UNL d   1      46.463 -18.086  42.384  0.00  0.00    -0.264 OA
ATOM      8 CL   UNL d   1      46.516 -18.212  40.698  0.00  0.00    -0.076 Cl
ATOM      9 CL   UNL d   1      46.638 -19.705  40.008  0.00  0.00    -0.080 Cl
ENDROOT
BRANCH   3  10
ATOM     10  C   UNL d   1      46.533 -19.457  43.314  0.00  0.00     0.086 A 
ATOM     11  C   UNL d   1      46.416 -20.137  43.763  0.00  0.00     0.019 A 
ATOM     12  C   UNL d   1      46.390 -20.074  44.606  0.00  0.00     0.002 A 
ATOM     13  C   UNL d   1      46.481 -19.334  44.955  0.00  0.00     0.000 A 
ATOM     14  C   UNL d   1      46.597 -18.664  44.507  0.00  0.00     0.002 A 
ATOM     15  C   UNL d   1      46.624 -18.727  43.664  0.00  0.00     0.019 A 
ENDBRANCH   3  10
TORSDOF 1
ENDMDL
