MODEL 1
REMARK VINA RESULT:      -6.6      0.000      0.000
REMARK  6 active torsions:
REMARK  status: ('A' for Active; 'I' for Inactive)
REMARK    1  A    between atoms: C_4  and  S_1 
REMARK    2  A    between atoms: C_5  and  S_1 
REMARK    3  A    between atoms: C_2  and  N_7 
REMARK    4  A    between atoms: N_3  and  C_2 
REMARK    5  A    between atoms: C_17  and  N_6 
REMARK    6  A    between atoms: N_7  and  C_12 
ROOT
ATOM      1  C   UNL d   1     -46.814  13.609  22.861  0.00  0.00     0.206 C 
ATOM      2  S   UNL d   1     -46.629  14.191  22.308  0.00  0.00    -0.038 SA
ENDROOT
BRANCH   1   3
ATOM      3  N   UNL d   1     -47.512  13.670  23.304  0.00  0.00    -0.218 NA
BRANCH   3   4
ATOM      4  C   UNL d   1     -48.185  14.017  22.975  0.00  0.00     0.085 A 
ATOM      5  C   UNL d   1     -48.803  13.536  22.713  0.00  0.00     0.031 A 
ATOM      6  C   UNL d   1     -49.472  13.882  22.386  0.00  0.00     0.094 A 
ATOM      7  C   UNL d   1     -49.523  14.709  22.320  0.00  0.00     0.012 A 
ATOM      8  C   UNL d   1     -48.900  15.182  22.584  0.00  0.00     0.002 A 
ATOM      9  C   UNL d   1     -48.231  14.828  22.912  0.00  0.00     0.019 A 
BRANCH   6  10
ATOM     10  S   UNL d   1     -50.090  13.409  22.124  0.00  0.00     0.262 S 
ATOM     11  O   UNL d   1     -49.749  13.389  21.370  0.00  0.00    -0.213 OA
ATOM     12  O   UNL d   1     -50.426  13.432  22.873  0.00  0.00    -0.213 OA
BRANCH  10  13
ATOM     13  C   UNL d   1     -50.708  12.937  21.861  0.00  0.00     0.364 C 
ATOM     14  F   UNL d   1     -51.030  13.057  21.112  0.00  0.00    -0.159 F 
ATOM     15  F   UNL d   1     -51.010  12.338  22.346  0.00  0.00    -0.159 F 
ENDBRANCH  10  13
ENDBRANCH   6  10
ENDBRANCH   3   4
ENDBRANCH   1   3
BRANCH   1  16
ATOM     16  N   UNL d   1     -46.309  12.971  22.972  0.00  0.00    -0.278 N 
ATOM     17  C   UNL d   1     -46.529  12.353  23.469  0.00  0.00     0.101 A 
ATOM     18  C   UNL d   1     -46.025  11.715  23.580  0.00  0.00     0.100 A 
ATOM     19  N   UNL d   1     -45.300  11.694  23.194  0.00  0.00    -0.301 N 
ATOM     20  C   UNL d   1     -45.076  12.310  22.696  0.00  0.00     0.100 A 
ATOM     21  C   UNL d   1     -45.585  12.951  22.586  0.00  0.00     0.101 A 
BRANCH  19  22
ATOM     22  C   UNL d   1     -44.798  11.050  23.310  0.00  0.00     0.064 A 
ATOM     23  C   UNL d   1     -45.111  10.332  23.570  0.00  0.00     0.018 A 
ATOM     24  C   UNL d   1     -44.616   9.687  23.688  0.00  0.00     0.002 A 
ATOM     25  C   UNL d   1     -43.804   9.755  23.546  0.00  0.00     0.000 A 
ATOM     26  C   UNL d   1     -43.491  10.469  23.287  0.00  0.00     0.002 A 
ATOM     27  C   UNL d   1     -43.986  11.118  23.168  0.00  0.00     0.018 A 
ENDBRANCH  19  22
ENDBRANCH   1  16
TORSDOF 6
ENDMDL
MODEL 2
REMARK VINA RESULT:      -5.9      2.950      5.694
REMARK  6 active torsions:
REMARK  status: ('A' for Active; 'I' for Inactive)
REMARK    1  A    between atoms: C_4  and  S_1 
REMARK    2  A    between atoms: C_5  and  S_1 
REMARK    3  A    between atoms: C_2  and  N_7 
REMARK    4  A    between atoms: N_3  and  C_2 
REMARK    5  A    between atoms: C_17  and  N_6 
REMARK    6  A    between atoms: N_7  and  C_12 
ROOT
ATOM      1  C   UNL d   1     -47.449  12.229  23.419  0.00  0.00     0.206 C 
ATOM      2  S   UNL d   1     -47.601  11.428  23.307  0.00  0.00    -0.038 SA
ENDROOT
BRANCH   1   3
ATOM      3  N   UNL d   1     -46.684  12.479  23.618  0.00  0.00    -0.218 NA
BRANCH   3   4
ATOM      4  C   UNL d   1     -46.031  12.013  23.424  0.00  0.00     0.085 A 
ATOM      5  C   UNL d   1     -45.427  12.333  22.961  0.00  0.00     0.031 A 
ATOM      6  C   UNL d   1     -44.778  11.867  22.769  0.00  0.00     0.094 A 
ATOM      7  C   UNL d   1     -44.733  11.083  23.040  0.00  0.00     0.012 A 
ATOM      8  C   UNL d   1     -45.341  10.772  23.503  0.00  0.00     0.002 A 
ATOM      9  C   UNL d   1     -45.991  11.244  23.692  0.00  0.00     0.019 A 
BRANCH   6  10
ATOM     10  S   UNL d   1     -44.173  12.179  22.309  0.00  0.00     0.262 S 
ATOM     11  O   UNL d   1     -43.653  11.612  22.615  0.00  0.00    -0.213 OA
ATOM     12  O   UNL d   1     -44.692  12.740  22.007  0.00  0.00    -0.213 OA
BRANCH  10  13
ATOM     13  C   UNL d   1     -43.568  12.491  21.849  0.00  0.00     0.364 C 
ATOM     14  F   UNL d   1     -43.717  13.128  21.348  0.00  0.00    -0.159 F 
ATOM     15  F   UNL d   1     -42.807  12.166  21.886  0.00  0.00    -0.159 F 
ENDBRANCH  10  13
ENDBRANCH   6  10
ENDBRANCH   3   4
ENDBRANCH   1   3
BRANCH   1  16
ATOM     16  N   UNL d   1     -48.054  12.779  23.335  0.00  0.00    -0.278 N 
ATOM     17  C   UNL d   1     -47.892  13.527  23.034  0.00  0.00     0.101 A 
ATOM     18  C   UNL d   1     -48.495  14.076  22.950  0.00  0.00     0.100 A 
ATOM     19  N   UNL d   1     -49.262  13.878  23.167  0.00  0.00    -0.301 N 
ATOM     20  C   UNL d   1     -49.429  13.131  23.469  0.00  0.00     0.100 A 
ATOM     21  C   UNL d   1     -48.820  12.579  23.553  0.00  0.00     0.101 A 
BRANCH  19  22
ATOM     22  C   UNL d   1     -49.865  14.435  23.080  0.00  0.00     0.064 A 
ATOM     23  C   UNL d   1     -49.918  15.063  23.613  0.00  0.00     0.018 A 
ATOM     24  C   UNL d   1     -50.516  15.621  23.532  0.00  0.00     0.002 A 
ATOM     25  C   UNL d   1     -51.064  15.555  22.917  0.00  0.00     0.000 A 
ATOM     26  C   UNL d   1     -51.013  14.930  22.386  0.00  0.00     0.002 A 
ATOM     27  C   UNL d   1     -50.414  14.369  22.465  0.00  0.00     0.018 A 
ENDBRANCH  19  22
ENDBRANCH   1  16
TORSDOF 6
ENDMDL
MODEL 3
REMARK VINA RESULT:      -5.6      1.470      2.064
REMARK  6 active torsions:
REMARK  status: ('A' for Active; 'I' for Inactive)
REMARK    1  A    between atoms: C_4  and  S_1 
REMARK    2  A    between atoms: C_5  and  S_1 
REMARK    3  A    between atoms: C_2  and  N_7 
REMARK    4  A    between atoms: N_3  and  C_2 
REMARK    5  A    between atoms: C_17  and  N_6 
REMARK    6  A    between atoms: N_7  and  C_12 
ROOT
ATOM      1  C   UNL d   1     -47.594  12.165  23.406  0.00  0.00     0.206 C 
ATOM      2  S   UNL d   1     -47.842  11.417  23.646  0.00  0.00    -0.038 SA
ENDROOT
BRANCH   1   3
ATOM      3  N   UNL d   1     -48.105  12.812  23.482  0.00  0.00    -0.218 NA
BRANCH   3   4
ATOM      4  C   UNL d   1     -48.913  12.724  23.336  0.00  0.00     0.085 A 
ATOM      5  C   UNL d   1     -49.293  13.248  22.824  0.00  0.00     0.031 A 
ATOM      6  C   UNL d   1     -50.097  13.159  22.679  0.00  0.00     0.094 A 
ATOM      7  C   UNL d   1     -50.520  12.545  23.046  0.00  0.00     0.012 A 
ATOM      8  C   UNL d   1     -50.132  12.026  23.556  0.00  0.00     0.002 A 
ATOM      9  C   UNL d   1     -49.324  12.121  23.698  0.00  0.00     0.019 A 
BRANCH   6  10
ATOM     10  S   UNL d   1     -50.481  13.677  22.171  0.00  0.00     0.262 S 
ATOM     11  O   UNL d   1     -50.254  13.207  21.528  0.00  0.00    -0.213 OA
ATOM     12  O   UNL d   1     -50.704  14.140  22.812  0.00  0.00    -0.213 OA
BRANCH  10  13
ATOM     13  C   UNL d   1     -50.865  14.195  21.662  0.00  0.00     0.364 C 
ATOM     14  F   UNL d   1     -51.054  13.956  20.896  0.00  0.00    -0.159 F 
ATOM     15  F   UNL d   1     -51.063  14.958  21.915  0.00  0.00    -0.159 F 
ENDBRANCH  10  13
ENDBRANCH   6  10
ENDBRANCH   3   4
ENDBRANCH   1   3
BRANCH   1  16
ATOM     16  N   UNL d   1     -46.841  12.268  23.093  0.00  0.00    -0.278 N 
ATOM     17  C   UNL d   1     -46.226  11.772  23.325  0.00  0.00     0.101 A 
ATOM     18  C   UNL d   1     -45.475  11.876  23.012  0.00  0.00     0.100 A 
ATOM     19  N   UNL d   1     -45.337  12.475  22.468  0.00  0.00    -0.301 N 
ATOM     20  C   UNL d   1     -45.949  12.974  22.234  0.00  0.00     0.100 A 
ATOM     21  C   UNL d   1     -46.705  12.868  22.550  0.00  0.00     0.101 A 
BRANCH  19  22
ATOM     22  C   UNL d   1     -44.578  12.574  22.157  0.00  0.00     0.064 A 
ATOM     23  C   UNL d   1     -43.994  12.016  22.327  0.00  0.00     0.018 A 
ATOM     24  C   UNL d   1     -43.237  12.109  22.021  0.00  0.00     0.002 A 
ATOM     25  C   UNL d   1     -43.060  12.760  21.543  0.00  0.00     0.000 A 
ATOM     26  C   UNL d   1     -43.641  13.315  21.373  0.00  0.00     0.002 A 
ATOM     27  C   UNL d   1     -44.401  13.225  21.679  0.00  0.00     0.018 A 
ENDBRANCH  19  22
ENDBRANCH   1  16
TORSDOF 6
ENDMDL
MODEL 4
REMARK VINA RESULT:      -4.5      8.273      9.577
REMARK  6 active torsions:
REMARK  status: ('A' for Active; 'I' for Inactive)
REMARK    1  A    between atoms: C_4  and  S_1 
REMARK    2  A    between atoms: C_5  and  S_1 
REMARK    3  A    between atoms: C_2  and  N_7 
REMARK    4  A    between atoms: N_3  and  C_2 
REMARK    5  A    between atoms: C_17  and  N_6 
REMARK    6  A    between atoms: N_7  and  C_12 
ROOT
ATOM      1  C   UNL d   1     -38.576  14.484  19.244  0.00  0.00     0.206 C 
ATOM      2  S   UNL d   1     -38.081  14.084  19.765  0.00  0.00    -0.038 SA
ENDROOT
BRANCH   1   3
ATOM      3  N   UNL d   1     -39.182  14.966  19.538  0.00  0.00    -0.218 NA
BRANCH   3   4
ATOM      4  C   UNL d   1     -39.522  14.804  20.273  0.00  0.00     0.085 A 
ATOM      5  C   UNL d   1     -40.314  14.573  20.312  0.00  0.00     0.031 A 
ATOM      6  C   UNL d   1     -40.651  14.412  21.044  0.00  0.00     0.094 A 
ATOM      7  C   UNL d   1     -40.196  14.482  21.736  0.00  0.00     0.012 A 
ATOM      8  C   UNL d   1     -39.406  14.713  21.687  0.00  0.00     0.002 A 
ATOM      9  C   UNL d   1     -39.073  14.874  20.949  0.00  0.00     0.019 A 
BRANCH   6  10
ATOM     10  S   UNL d   1     -41.438  14.181  21.090  0.00  0.00     0.262 S 
ATOM     11  O   UNL d   1     -41.665  14.978  21.105  0.00  0.00    -0.213 OA
ATOM     12  O   UNL d   1     -41.208  13.393  21.075  0.00  0.00    -0.213 OA
BRANCH  10  13
ATOM     13  C   UNL d   1     -42.225  13.952  21.136  0.00  0.00     0.364 C 
ATOM     14  F   UNL d   1     -42.807  14.508  21.311  0.00  0.00    -0.159 F 
ATOM     15  F   UNL d   1     -42.437  13.162  21.006  0.00  0.00    -0.159 F 
ENDBRANCH  10  13
ENDBRANCH   6  10
ENDBRANCH   3   4
ENDBRANCH   1   3
BRANCH   1  16
ATOM     16  N   UNL d   1     -38.469  14.407  18.433  0.00  0.00    -0.278 N 
ATOM     17  C   UNL d   1     -38.724  13.727  18.046  0.00  0.00     0.101 A 
ATOM     18  C   UNL d   1     -38.617  13.649  17.236  0.00  0.00     0.100 A 
ATOM     19  N   UNL d   1     -38.254  14.252  16.812  0.00  0.00    -0.301 N 
ATOM     20  C   UNL d   1     -37.997  14.934  17.194  0.00  0.00     0.100 A 
ATOM     21  C   UNL d   1     -38.106  15.010  18.010  0.00  0.00     0.101 A 
BRANCH  19  22
ATOM     22  C   UNL d   1     -38.149  14.168  15.997  0.00  0.00     0.064 A 
ATOM     23  C   UNL d   1     -38.075  13.412  15.673  0.00  0.00     0.018 A 
ATOM     24  C   UNL d   1     -37.971  13.322  14.863  0.00  0.00     0.002 A 
ATOM     25  C   UNL d   1     -37.940  13.986  14.372  0.00  0.00     0.000 A 
ATOM     26  C   UNL d   1     -38.013  14.738  14.694  0.00  0.00     0.002 A 
ATOM     27  C   UNL d   1     -38.118  14.832  15.506  0.00  0.00     0.018 A 
ENDBRANCH  19  22
ENDBRANCH   1  16
TORSDOF 6
ENDMDL
