MODEL 1
REMARK VINA RESULT:      25.8      0.000      0.000
REMARK  2 active torsions:
REMARK  status: ('A' for Active; 'I' for Inactive)
REMARK       I    between atoms: C_9  and  N_1 
REMARK    1  A    between atoms: C_5  and  C_3 
REMARK    2  A    between atoms: C_8  and  C_4 
ROOT
ATOM      1  N   UNL d   1      14.126  13.392  -2.534  0.00  0.00    -0.193 N 
ATOM      2  N   UNL d   1      13.870  13.432  -3.300  0.00  0.00    -0.162 NA
ATOM      3  C   UNL d   1      14.064  12.607  -2.284  0.00  0.00     0.110 A 
ATOM      4  C   UNL d   1      13.644  12.675  -3.543  0.00  0.00     0.109 A 
ATOM      5  C   UNL d   1      13.772  12.181  -2.903  0.00  0.00     0.043 A 
ATOM      6  C   UNL d   1      14.448  14.072  -1.964  0.00  0.00     0.281 C 
ATOM      7  O   UNL d   1      14.663  13.857  -1.222  0.00  0.00    -0.265 OA
ATOM      8  C   UNL d   1      14.510  14.857  -2.214  0.00  0.00     0.068 C 
ENDROOT
BRANCH   3   9
ATOM      9  C   UNL d   1      14.266  12.339  -1.550  0.00  0.00     0.118 A 
ATOM     10  O   UNL d   1      15.040  12.247  -1.277  0.00  0.00    -0.306 OA
ATOM     11  C   UNL d   1      14.995  11.959  -0.496  0.00  0.00     0.100 A 
ATOM     12  C   UNL d   1      15.658  11.788  -0.015  0.00  0.00     0.027 C 
ATOM     13  C   UNL d   1      14.203  11.870  -0.281  0.00  0.00     0.027 A 
ATOM     14  C   UNL d   1      13.759  12.105  -0.932  0.00  0.00     0.028 A 
ENDBRANCH   3   9
BRANCH   4  15
ATOM     15  C   UNL d   1      13.350  12.463  -4.285  0.00  0.00     0.049 A 
ATOM     16  S   UNL d   1      12.964  11.779  -4.458  0.00  0.00    -0.085 SA
ATOM     17  C   UNL d   1      12.770  11.788  -5.240  0.00  0.00     0.035 A 
ATOM     18  C   UNL d   1      13.047  12.500  -5.554  0.00  0.00     0.007 A 
ATOM     19  C   UNL d   1      13.405  12.914  -4.958  0.00  0.00     0.009 A 
ENDBRANCH   4  15
TORSDOF 2
ENDMDL
MODEL 2
REMARK VINA RESULT:      27.0      1.221      2.300
REMARK  2 active torsions:
REMARK  status: ('A' for Active; 'I' for Inactive)
REMARK       I    between atoms: C_9  and  N_1 
REMARK    1  A    between atoms: C_5  and  C_3 
REMARK    2  A    between atoms: C_8  and  C_4 
ROOT
ATOM      1  N   UNL d   1      14.624  12.783  -1.273  0.00  0.00    -0.193 N 
ATOM      2  N   UNL d   1      14.312  12.304  -1.844  0.00  0.00    -0.162 NA
ATOM      3  C   UNL d   1      14.480  13.567  -1.490  0.00  0.00     0.110 A 
ATOM      4  C   UNL d   1      13.968  12.777  -2.428  0.00  0.00     0.109 A 
ATOM      5  C   UNL d   1      14.083  13.553  -2.191  0.00  0.00     0.043 A 
ATOM      6  C   UNL d   1      15.081  12.563  -0.477  0.00  0.00     0.281 C 
ATOM      7  O   UNL d   1      15.327  13.171  -0.016  0.00  0.00    -0.265 OA
ATOM      8  C   UNL d   1      15.224  11.780  -0.260  0.00  0.00     0.068 C 
ENDROOT
BRANCH   3   9
ATOM      9  C   UNL d   1      14.706  14.214  -1.063  0.00  0.00     0.118 A 
ATOM     10  O   UNL d   1      14.998  14.915  -1.386  0.00  0.00    -0.306 OA
ATOM     11  C   UNL d   1      15.161  15.432  -0.752  0.00  0.00     0.100 A 
ATOM     12  C   UNL d   1      15.467  16.205  -0.837  0.00  0.00     0.027 C 
ATOM     13  C   UNL d   1      14.973  15.060  -0.039  0.00  0.00     0.027 A 
ATOM     14  C   UNL d   1      14.693  14.312  -0.235  0.00  0.00     0.028 A 
ENDBRANCH   3   9
BRANCH   4  15
ATOM     15  C   UNL d   1      13.586  12.517  -3.113  0.00  0.00     0.049 A 
ATOM     16  S   UNL d   1      13.191  11.822  -3.194  0.00  0.00    -0.085 SA
ATOM     17  C   UNL d   1      12.902  11.781  -3.945  0.00  0.00     0.035 A 
ATOM     18  C   UNL d   1      13.127  12.473  -4.334  0.00  0.00     0.007 A 
ATOM     19  C   UNL d   1      13.551  12.925  -3.814  0.00  0.00     0.009 A 
ENDBRANCH   4  15
TORSDOF 2
ENDMDL
