MODEL 1
REMARK VINA RESULT:       4.3      0.000      0.000
REMARK  7 active torsions:
REMARK  status: ('A' for Active; 'I' for Inactive)
REMARK    1  A    between atoms: C_17  and  N_1 
REMARK       I    between atoms: C_4  and  N_7 
REMARK    2  A    between atoms: C_8  and  C_4 
REMARK    3  A    between atoms: N_7  and  C_26 
REMARK    4  A    between atoms: C_9  and  N_7 
REMARK    5  A    between atoms: C_27  and  C_17 
REMARK    6  A    between atoms: C_26  and  C_28 
REMARK    7  A    between atoms: C_28  and  C_27 
ROOT
ATOM      1  C   UNL d   1     -41.826-123.425 -49.499  0.00  0.00     0.287 C 
ATOM      2  N   UNL d   1     -42.291-123.251 -50.160  0.00  0.00    -0.272 N 
ATOM      3  O   UNL d   1     -41.123-123.817 -49.591  0.00  0.00    -0.264 OA
ENDROOT
BRANCH   2   4
ATOM      4  C   UNL d   1     -42.040-123.473 -50.897  0.00  0.00     0.083 C 
BRANCH   4   5
ATOM      5  C   UNL d   1     -41.339-123.157 -51.209  0.00  0.00     0.021 C 
BRANCH   5   6
ATOM      6  C   UNL d   1     -41.223-123.142 -52.015  0.00  0.00     0.021 C 
BRANCH   6   7
ATOM      7  C   UNL d   1     -41.183-122.416 -52.404  0.00  0.00     0.086 C 
BRANCH   7   8
ATOM      8  N   UNL d   1     -41.397-122.372 -53.214  0.00  0.00    -0.240 N 
ATOM      9  C   UNL d   1     -41.633-121.718 -53.591  0.00  0.00     0.267 A 
ATOM     10  C   UNL d   1     -41.789-121.911 -54.372  0.00  0.00     0.061 A 
ATOM     11  O   UNL d   1     -41.716-120.931 -53.252  0.00  0.00    -0.267 OA
ATOM     12  C   UNL d   1     -42.044-121.468 -55.005  0.00  0.00     0.005 A 
ATOM     13  C   UNL d   1     -41.635-122.730 -54.458  0.00  0.00     0.061 A 
ATOM     14  C   UNL d   1     -42.151-121.835 -55.741  0.00  0.00     0.000 A 
ATOM     15  C   UNL d   1     -41.997-122.655 -55.827  0.00  0.00     0.000 A 
ATOM     16  C   UNL d   1     -41.739-123.089 -55.175  0.00  0.00     0.005 A 
ATOM     17  C   UNL d   1     -41.391-123.006 -53.726  0.00  0.00     0.267 A 
ATOM     18  O   UNL d   1     -41.174-123.816 -53.555  0.00  0.00    -0.267 OA
ENDBRANCH   7   8
ENDBRANCH   6   7
ENDBRANCH   5   6
ENDBRANCH   4   5
ENDBRANCH   2   4
BRANCH   2  19
ATOM     19  C   UNL d   1     -43.011-122.851 -50.077  0.00  0.00     0.067 A 
ATOM     20  C   UNL d   1     -43.027-122.041 -49.910  0.00  0.00     0.018 A 
ATOM     21  C   UNL d   1     -43.747-121.641 -49.826  0.00  0.00     0.013 A 
ATOM     22  C   UNL d   1     -44.450-122.052 -49.910  0.00  0.00     0.058 A 
ATOM     23  C   UNL d   1     -44.430-122.860 -50.077  0.00  0.00     0.013 A 
ATOM     24 CL   UNL d   1     -45.166-121.650 -49.826  0.00  0.00    -0.082 Cl
ATOM     25  C   UNL d   1     -43.714-123.262 -50.161  0.00  0.00     0.018 A 
ENDBRANCH   2  19
BRANCH   1  26
ATOM     26  C   UNL d   1     -42.080-123.200 -48.754  0.00  0.00     0.156 A 
ATOM     27  O   UNL d   1     -42.151-122.470 -48.374  0.00  0.00    -0.300 OA
ATOM     28  C   UNL d   1     -42.443-122.589 -47.614  0.00  0.00     0.123 A 
ATOM     29  C   UNL d   1     -42.550-123.367 -47.525  0.00  0.00     0.029 A 
ATOM     30  C   UNL d   1     -42.331-123.777 -48.221  0.00  0.00     0.032 A 
ENDBRANCH   1  26
TORSDOF 7
ENDMDL
