MODEL 1
REMARK VINA RESULT:      49.7      0.000      0.000
REMARK  6 active torsions:
REMARK  status: ('A' for Active; 'I' for Inactive)
REMARK    1  A    between atoms: C_5  and  C_1 
REMARK       I    between atoms: N_10  and  C_5 
REMARK    2  A    between atoms: C_9  and  C_6 
REMARK    3  A    between atoms: C_17  and  N_7 
REMARK    4  A    between atoms: O_23  and  C_8 
REMARK    5  A    between atoms: O_25  and  C_12 
REMARK    6  A    between atoms: C_18  and  C_17 
ROOT
ATOM      1  C   UNL d   1      13.902  15.504  -5.719  0.00  0.00     0.316 C 
ATOM      2  N   UNL d   1      13.269  13.792  -4.700  0.00  0.00    -0.143 NA
ATOM      3  N   UNL d   1      13.297  15.000  -4.833  0.00  0.00    -0.104 NA
ATOM      4  O   UNL d   1      14.309  15.035  -6.251  0.00  0.00    -0.262 OA
ENDROOT
BRANCH   1   5
ATOM      5  C   UNL d   1      13.910  16.323  -5.794  0.00  0.00     0.164 A 
ATOM      6  C   UNL d   1      14.433  16.771  -5.363  0.00  0.00     0.047 A 
ATOM      7  C   UNL d   1      13.912  17.951  -5.954  0.00  0.00     0.105 A 
ATOM      8  N   UNL d   1      13.383  17.493  -6.389  0.00  0.00    -0.148 NA
ATOM      9  N   UNL d   1      13.380  16.688  -6.311  0.00  0.00    -0.143 NA
BRANCH   7  10
ATOM     10  C   UNL d   1      14.068  18.753  -5.892  0.00  0.00     0.019 A 
ATOM     11  C   UNL d   1      14.795  19.016  -5.648  0.00  0.00     0.002 A 
ATOM     12  C   UNL d   1      14.953  19.814  -5.585  0.00  0.00     0.011 A 
ATOM     13  C   UNL d   1      14.365  20.352  -5.773  0.00  0.00     0.058 A 
ATOM     14  C   UNL d   1      13.633  20.097  -6.018  0.00  0.00     0.011 A 
ATOM     15 CL   UNL d   1      14.518  21.158  -5.712  0.00  0.00    -0.082 Cl
ATOM     16  C   UNL d   1      13.476  19.295  -6.080  0.00  0.00     0.002 A 
ENDBRANCH   7  10
ENDBRANCH   1   5
BRANCH   2  17
ATOM     17  C   UNL d   1      12.837  13.436  -4.068  0.00  0.00     0.122 C 
BRANCH  17  18
ATOM     18  C   UNL d   1      13.262  13.022  -3.403  0.00  0.00     0.023 A 
ATOM     19  C   UNL d   1      13.932  13.442  -2.975  0.00  0.00     0.028 A 
ATOM     20  C   UNL d   1      14.358  13.020  -2.304  0.00  0.00     0.116 A 
ATOM     21  C   UNL d   1      14.119  12.187  -2.063  0.00  0.00     0.116 A 
ATOM     22  C   UNL d   1      13.454  11.781  -2.493  0.00  0.00     0.026 A 
ATOM     23  C   UNL d   1      13.020  12.196  -3.169  0.00  0.00     0.004 A 
BRANCH  20  24
ATOM     24  O   UNL d   1      15.028  13.439  -1.877  0.00  0.00    -0.326 OA
ATOM     25  C   UNL d   1      14.902  14.259  -1.552  0.00  0.00     0.181 C 
ENDBRANCH  20  24
BRANCH  21  26
ATOM     26  O   UNL d   1      14.550  11.779  -1.395  0.00  0.00    -0.326 OA
ATOM     27  C   UNL d   1      14.228  11.843  -0.566  0.00  0.00     0.181 C 
ENDBRANCH  21  26
ENDBRANCH  17  18
ENDBRANCH   2  17
TORSDOF 6
ENDMDL
