MODEL 1
REMARK VINA RESULT:      50.9      0.000      0.000
REMARK  7 active torsions:
REMARK  status: ('A' for Active; 'I' for Inactive)
REMARK    1  A    between atoms: N_2  and  S_1 
REMARK    2  A    between atoms: C_3  and  S_1 
REMARK       I    between atoms: C_4  and  N_9 
REMARK    3  A    between atoms: C_10  and  C_4 
REMARK    4  A    between atoms: C_12  and  C_6 
REMARK    5  A    between atoms: N_9  and  C_12 
REMARK    6  A    between atoms: O_22  and  C_19 
REMARK    7  A    between atoms: C_25  and  O_22 
ROOT
ATOM      1  N   UNL d   1     -51.217  23.915  33.430  0.00  0.00    -0.229 N 
ATOM      2  C   UNL d   1     -50.659  24.519  33.351  0.00  0.00     0.094 A 
ATOM      3  C   UNL d   1     -50.809  23.188  33.450  0.00  0.00     0.092 A 
ATOM      4  C   UNL d   1     -49.914  24.162  33.323  0.00  0.00     0.021 A 
ATOM      5  C   UNL d   1     -50.010  23.347  33.384  0.00  0.00     0.021 A 
ENDROOT
BRANCH   2   6
ATOM      6  C   UNL d   1     -50.904  25.307  33.315  0.00  0.00     0.120 C 
BRANCH   6   7
ATOM      7  N   UNL d   1     -50.438  25.894  33.646  0.00  0.00    -0.205 NA
ATOM      8  C   UNL d   1     -50.709  26.661  33.654  0.00  0.00     0.279 C 
ATOM      9  O   UNL d   1     -51.445  26.862  33.334  0.00  0.00    -0.265 OA
BRANCH   8  10
ATOM     10  C   UNL d   1     -50.235  27.266  33.992  0.00  0.00     0.058 A 
ATOM     11  C   UNL d   1     -49.999  27.909  33.531  0.00  0.00     0.007 A 
ATOM     12  C   UNL d   1     -49.537  28.501  33.854  0.00  0.00     0.025 A 
ATOM     13  C   UNL d   1     -49.305  28.456  34.649  0.00  0.00     0.100 A 
ATOM     14  C   UNL d   1     -49.541  27.813  35.110  0.00  0.00     0.025 A 
ATOM     15  C   UNL d   1     -50.008  27.221  34.772  0.00  0.00     0.007 A 
BRANCH  13  16
ATOM     16  O   UNL d   1     -48.838  29.058  34.972  0.00  0.00    -0.305 OA
BRANCH  16  17
ATOM     17  C   UNL d   1     -48.014  29.010  34.950  0.00  0.00     0.123 C 
ATOM     18  C   UNL d   1     -47.559  29.534  35.395  0.00  0.00     0.029 C 
ENDBRANCH  16  17
ENDBRANCH  13  16
ENDBRANCH   8  10
ENDBRANCH   6   7
ENDBRANCH   2   6
BRANCH   1  19
ATOM     19  S   UNL d   1     -52.034  24.017  33.479  0.00  0.00     0.277 S 
ATOM     20  O   UNL d   1     -52.142  23.204  33.378  0.00  0.00    -0.199 OA
ATOM     21  O   UNL d   1     -51.922  24.833  33.581  0.00  0.00    -0.199 OA
BRANCH  19  22
ATOM     22  C   UNL d   1     -52.860  24.118  33.529  0.00  0.00     0.133 A 
ATOM     23  S   UNL d   1     -53.487  23.607  33.352  0.00  0.00    -0.074 SA
ATOM     24  C   UNL d   1     -54.184  24.009  33.509  0.00  0.00     0.036 A 
ATOM     25  C   UNL d   1     -53.985  24.760  33.781  0.00  0.00     0.008 A 
ATOM     26  C   UNL d   1     -53.175  24.824  33.792  0.00  0.00     0.020 A 
ENDBRANCH  19  22
ENDBRANCH   1  19
TORSDOF 7
ENDMDL
