MODEL 1
REMARK VINA RESULT:      47.5      0.000      0.000
REMARK  2 active torsions:
REMARK  status: ('A' for Active; 'I' for Inactive)
REMARK    1  A    between atoms: C_5  and  C_1 
REMARK    2  A    between atoms: C_7  and  C_5 
ROOT
ATOM      1  C   UNL d   1      60.691  49.049  50.955  0.00  0.00     0.061 A 
ATOM      2  C   UNL d   1      61.190  49.426  50.441  0.00  0.00     0.102 A 
ATOM      3  N   UNL d   1      61.690  48.861  50.095  0.00  0.00    -0.244 NA
ATOM      4  C   UNL d   1      60.867  48.250  50.941  0.00  0.00     0.022 A 
ATOM      5  C   UNL d   1      61.482  48.134  50.412  0.00  0.00     0.082 A 
ATOM      6  C   UNL d   1      60.538  47.610  51.350  0.00  0.00     0.002 A 
ATOM      7  C   UNL d   1      61.784  47.375  50.278  0.00  0.00     0.019 A 
ATOM      8  C   UNL d   1      60.841  46.854  51.216  0.00  0.00     0.000 A 
ATOM      9  C   UNL d   1      61.455  46.738  50.687  0.00  0.00     0.002 A 
ENDROOT
BRANCH   1  10
ATOM     10  C   UNL d   1      60.093  49.431  51.422  0.00  0.00     0.215 C 
ATOM     11  O   UNL d   1      60.272  49.702  52.174  0.00  0.00    -0.285 OA
BRANCH  10  12
ATOM     12  C   UNL d   1      59.330  49.521  51.100  0.00  0.00     0.120 A 
ATOM     13  N   UNL d   1      59.235  49.572  50.283  0.00  0.00    -0.241 NA
ATOM     14  C   UNL d   1      58.473  49.661  49.978  0.00  0.00     0.099 A 
ATOM     15  C   UNL d   1      57.822  49.698  50.485  0.00  0.00     0.021 A 
ATOM     16  C   UNL d   1      57.930  49.645  51.293  0.00  0.00     0.003 A 
ATOM     17  C   UNL d   1      58.676  49.557  51.604  0.00  0.00     0.022 A 
ENDBRANCH  10  12
ENDBRANCH   1  10
TORSDOF 2
ENDMDL
