MODEL 1
REMARK VINA RESULT:      50.4      0.000      0.000
REMARK  3 active torsions:
REMARK  status: ('A' for Active; 'I' for Inactive)
REMARK    1  A    between atoms: N_2  and  C_1 
REMARK    2  A    between atoms: N_3  and  C_1 
REMARK       I    between atoms: C_4  and  N_2 
REMARK    3  A    between atoms: C_9  and  C_4 
ROOT
ATOM      1  C   UNL d   1     -47.320  30.623  35.418  0.00  0.00     0.209 C 
ATOM      2  S   UNL d   1     -46.705  30.812  35.930  0.00  0.00    -0.038 SA
ENDROOT
BRANCH   1   3
ATOM      3  N   UNL d   1     -47.567  31.183  34.858  0.00  0.00    -0.180 NA
ATOM      4  C   UNL d   1     -47.370  31.978  34.969  0.00  0.00     0.281 C 
ATOM      5  O   UNL d   1     -46.932  32.216  35.629  0.00  0.00    -0.265 OA
BRANCH   4   6
ATOM      6  C   UNL d   1     -47.613  32.537  34.417  0.00  0.00     0.058 A 
ATOM      7  C   UNL d   1     -48.404  32.790  34.395  0.00  0.00     0.005 A 
ATOM      8  C   UNL d   1     -48.650  33.348  33.845  0.00  0.00     0.000 A 
ATOM      9  C   UNL d   1     -48.099  33.662  33.306  0.00  0.00     0.000 A 
ATOM     10  C   UNL d   1     -47.312  33.411  33.325  0.00  0.00     0.000 A 
ATOM     11  C   UNL d   1     -47.075  32.851  33.882  0.00  0.00     0.005 A 
ENDBRANCH   4   6
ENDBRANCH   1   3
BRANCH   1  12
ATOM     12  N   UNL d   1     -47.684  29.891  35.459  0.00  0.00    -0.281 N 
ATOM     13  C   UNL d   1     -48.006  29.553  34.776  0.00  0.00     0.082 A 
ATOM     14  C   UNL d   1     -48.376  28.808  34.822  0.00  0.00     0.019 A 
ATOM     15  C   UNL d   1     -48.419  28.412  35.543  0.00  0.00     0.003 A 
ATOM     16  C   UNL d   1     -48.097  28.752  36.218  0.00  0.00     0.019 A 
ATOM     17  C   UNL d   1     -48.784  27.677  35.588  0.00  0.00     0.000 C 
ATOM     18  C   UNL d   1     -47.729  29.491  36.178  0.00  0.00     0.082 A 
ENDBRANCH   1  12
TORSDOF 3
ENDMDL
