MODEL 1
REMARK VINA RESULT:      48.8      0.000      0.000
REMARK  5 active torsions:
REMARK  status: ('A' for Active; 'I' for Inactive)
REMARK    1  A    between atoms: C_8  and  C_1 
REMARK    2  A    between atoms: C_9  and  C_2 
REMARK    3  A    between atoms: S_6  and  C_4 
REMARK    4  A    between atoms: C_11  and  S_6 
REMARK    5  A    between atoms: C_7  and  C_11 
ROOT
ATOM      1  C   UNL d   1     -51.620  25.737  33.905  0.00  0.00     0.107 A 
ATOM      2  C   UNL d   1     -51.423  25.002  33.589  0.00  0.00     0.120 A 
ATOM      3  N   UNL d   1     -52.436  25.822  33.837  0.00  0.00    -0.214 NA
ATOM      4  C   UNL d   1     -52.729  25.141  33.481  0.00  0.00     0.215 A 
ATOM      5  O   UNL d   1     -52.096  24.638  33.331  0.00  0.00    -0.283 OA
ENDROOT
BRANCH   1   6
ATOM      6  C   UNL d   1     -51.127  26.313  34.239  0.00  0.00     0.020 A 
ATOM      7  C   UNL d   1     -50.564  26.703  33.752  0.00  0.00     0.002 A 
ATOM      8  C   UNL d   1     -50.065  27.289  34.099  0.00  0.00     0.000 A 
ATOM      9  C   UNL d   1     -50.136  27.466  34.893  0.00  0.00     0.000 A 
ATOM     10  C   UNL d   1     -50.695  27.075  35.366  0.00  0.00     0.000 A 
ATOM     11  C   UNL d   1     -51.191  26.499  35.042  0.00  0.00     0.002 A 
ENDBRANCH   1   6
BRANCH   2  12
ATOM     12  C   UNL d   1     -50.675  24.665  33.531  0.00  0.00     0.024 A 
ATOM     13  C   UNL d   1     -50.569  23.852  33.639  0.00  0.00     0.002 A 
ATOM     14  C   UNL d   1     -49.821  23.505  33.583  0.00  0.00     0.000 A 
ATOM     15  C   UNL d   1     -49.180  23.980  33.417  0.00  0.00     0.000 A 
ATOM     16  C   UNL d   1     -49.277  24.791  33.308  0.00  0.00     0.000 A 
ATOM     17  C   UNL d   1     -50.024  25.129  33.366  0.00  0.00     0.002 A 
ENDBRANCH   2  12
BRANCH   4  18
ATOM     18  S   UNL d   1     -53.533  25.011  33.314  0.00  0.00    -0.037 SA
BRANCH  18  19
ATOM     19  C   UNL d   1     -53.968  24.475  33.791  0.00  0.00     0.103 C 
BRANCH  19  20
ATOM     20  C   UNL d   1     -53.649  23.750  33.970  0.00  0.00     0.303 C 
ATOM     21  O   UNL d   1     -53.530  23.525  34.771  0.00  0.00    -0.263 OA
ATOM     22  N   UNL d   1     -53.439  23.228  33.363  0.00  0.00    -0.102 N 
ENDBRANCH  19  20
ENDBRANCH  18  19
ENDBRANCH   4  18
TORSDOF 5
ENDMDL
MODEL 2
REMARK VINA RESULT:      51.4      2.358      4.258
REMARK  5 active torsions:
REMARK  status: ('A' for Active; 'I' for Inactive)
REMARK    1  A    between atoms: C_8  and  C_1 
REMARK    2  A    between atoms: C_9  and  C_2 
REMARK    3  A    between atoms: S_6  and  C_4 
REMARK    4  A    between atoms: C_11  and  S_6 
REMARK    5  A    between atoms: C_7  and  C_11 
ROOT
ATOM      1  C   UNL d   1     -50.327  25.962  33.827  0.00  0.00     0.107 A 
ATOM      2  C   UNL d   1     -50.959  26.485  33.756  0.00  0.00     0.120 A 
ATOM      3  N   UNL d   1     -49.653  26.410  33.975  0.00  0.00    -0.214 NA
ATOM      4  C   UNL d   1     -49.878  27.201  33.995  0.00  0.00     0.215 A 
ATOM      5  O   UNL d   1     -50.689  27.239  33.858  0.00  0.00    -0.283 OA
ENDROOT
BRANCH   1   6
ATOM      6  C   UNL d   1     -50.321  25.136  33.767  0.00  0.00     0.020 A 
ATOM      7  C   UNL d   1     -50.943  24.695  34.120  0.00  0.00     0.002 A 
ATOM      8  C   UNL d   1     -50.931  23.853  34.055  0.00  0.00     0.000 A 
ATOM      9  C   UNL d   1     -50.322  23.485  33.654  0.00  0.00     0.000 A 
ATOM     10  C   UNL d   1     -49.712  23.928  33.308  0.00  0.00     0.000 A 
ATOM     11  C   UNL d   1     -49.709  24.753  33.363  0.00  0.00     0.002 A 
ENDBRANCH   1   6
BRANCH   2  12
ATOM     12  C   UNL d   1     -51.747  26.303  33.608  0.00  0.00     0.024 A 
ATOM     13  C   UNL d   1     -51.996  25.517  33.551  0.00  0.00     0.002 A 
ATOM     14  C   UNL d   1     -52.785  25.325  33.402  0.00  0.00     0.000 A 
ATOM     15  C   UNL d   1     -53.325  25.929  33.310  0.00  0.00     0.000 A 
ATOM     16  C   UNL d   1     -53.086  26.716  33.364  0.00  0.00     0.000 A 
ATOM     17  C   UNL d   1     -52.298  26.898  33.513  0.00  0.00     0.002 A 
ENDBRANCH   2  12
BRANCH   4  18
ATOM     18  S   UNL d   1     -49.356  27.832  34.131  0.00  0.00    -0.037 SA
BRANCH  18  19
ATOM     19  C   UNL d   1     -48.900  27.840  34.836  0.00  0.00     0.103 C 
BRANCH  19  20
ATOM     20  C   UNL d   1     -48.339  28.417  34.942  0.00  0.00     0.303 C 
ATOM     21  O   UNL d   1     -47.722  28.518  34.380  0.00  0.00    -0.263 OA
ATOM     22  N   UNL d   1     -48.372  28.911  35.606  0.00  0.00    -0.102 N 
ENDBRANCH  19  20
ENDBRANCH  18  19
ENDBRANCH   4  18
TORSDOF 5
ENDMDL
