MODEL 1
REMARK VINA RESULT:       3.3      0.000      0.000
REMARK  8 active torsions:
REMARK  status: ('A' for Active; 'I' for Inactive)
REMARK    1  A    between atoms: O_4  and  C_1 
REMARK    2  A    between atoms: C_15  and  C_2 
REMARK    3  A    between atoms: C_5  and  O_4 
REMARK    4  A    between atoms: C_7  and  C_5 
REMARK    5  A    between atoms: O_21  and  C_8 
REMARK    6  A    between atoms: O_22  and  C_10 
REMARK    7  A    between atoms: O_23  and  C_11 
REMARK    8  A    between atoms: N_16  and  C_15 
ROOT
ATOM      1  C   UNL d   1      31.732  18.237 -24.216  0.00  0.00     0.122 A 
ATOM      2  C   UNL d   1      32.140  17.520 -24.212  0.00  0.00     0.043 A 
ATOM      3  C   UNL d   1      30.962  18.269 -24.510  0.00  0.00     0.105 A 
ATOM      4  C   UNL d   1      30.601  17.587 -24.799  0.00  0.00     0.030 A 
ATOM      5  C   UNL d   1      31.014  16.879 -24.791  0.00  0.00     0.059 A 
ATOM      6  C   UNL d   1      31.779  16.838 -24.501  0.00  0.00     0.015 A 
ATOM      7  N   UNL d   1      30.560  18.982 -24.512  0.00  0.00    -0.242 NA
ATOM      8 CL   UNL d   1      30.627  16.201 -25.089  0.00  0.00    -0.082 Cl
ATOM      9  C   UNL d   1      29.842  17.624 -25.087  0.00  0.00     0.004 A 
ATOM     10  C   UNL d   1      29.790  19.015 -24.806  0.00  0.00     0.099 A 
ATOM     11  C   UNL d   1      29.429  18.332 -25.095  0.00  0.00     0.021 A 
ENDROOT
BRANCH   1  12
ATOM     12  O   UNL d   1      32.049  18.861 -23.956  0.00  0.00    -0.271 OA
BRANCH  12  13
ATOM     13  C   UNL d   1      32.730  19.504 -24.184  0.00  0.00     0.300 C 
ATOM     14  O   UNL d   1      33.236  19.286 -25.023  0.00  0.00    -0.259 OA
BRANCH  13  15
ATOM     15  C   UNL d   1      32.866  20.168 -23.716  0.00  0.00     0.068 A 
ATOM     16  C   UNL d   1      32.976  20.912 -24.068  0.00  0.00     0.032 A 
ATOM     17  C   UNL d   1      33.114  21.587 -23.598  0.00  0.00     0.118 A 
ATOM     18  C   UNL d   1      33.141  21.516 -22.772  0.00  0.00     0.138 A 
ATOM     19  C   UNL d   1      33.030  20.767 -22.418  0.00  0.00     0.118 A 
ATOM     20  C   UNL d   1      32.892  20.093 -22.889  0.00  0.00     0.032 A 
BRANCH  17  21
ATOM     21  O   UNL d   1      33.200  22.264 -24.224  0.00  0.00    -0.326 OA
ATOM     22  C   UNL d   1      32.556  22.345 -24.413  0.00  0.00     0.181 C 
ENDBRANCH  17  21
BRANCH  18  23
ATOM     23  O   UNL d   1      33.238  21.980 -22.408  0.00  0.00    -0.324 OA
ATOM     24  C   UNL d   1      33.027  22.698 -22.467  0.00  0.00     0.182 C 
ENDBRANCH  18  23
BRANCH  19  25
ATOM     25  O   UNL d   1      33.040  20.600 -21.597  0.00  0.00    -0.326 OA
ATOM     26  C   UNL d   1      32.214  20.482 -21.462  0.00  0.00     0.181 C 
ENDBRANCH  19  25
ENDBRANCH  13  15
ENDBRANCH  12  13
ENDBRANCH   1  12
BRANCH   2  27
ATOM     27  C   UNL d   1      32.976  17.291 -23.934  0.00  0.00     0.082 C 
BRANCH  27  28
ATOM     28  N   UNL d   1      33.065  16.774 -23.303  0.00  0.00    -0.299 N 
ATOM     29  C   UNL d   1      33.076  17.064 -22.540  0.00  0.00     0.107 A 
ATOM     30  C   UNL d   1      33.164  16.555 -21.894  0.00  0.00     0.142 A 
ATOM     31  O   UNL d   1      33.241  15.754 -22.030  0.00  0.00    -0.300 OA
ATOM     32  C   UNL d   1      33.230  15.456 -22.804  0.00  0.00     0.142 A 
ATOM     33  C   UNL d   1      33.141  15.975 -23.432  0.00  0.00     0.107 A 
ENDBRANCH  27  28
ENDBRANCH   2  27
TORSDOF 8
ENDMDL
MODEL 2
REMARK VINA RESULT:       4.5      0.891      2.750
REMARK  8 active torsions:
REMARK  status: ('A' for Active; 'I' for Inactive)
REMARK    1  A    between atoms: O_4  and  C_1 
REMARK    2  A    between atoms: C_15  and  C_2 
REMARK    3  A    between atoms: C_5  and  O_4 
REMARK    4  A    between atoms: C_7  and  C_5 
REMARK    5  A    between atoms: O_21  and  C_8 
REMARK    6  A    between atoms: O_22  and  C_10 
REMARK    7  A    between atoms: O_23  and  C_11 
REMARK    8  A    between atoms: N_16  and  C_15 
ROOT
ATOM      1  C   UNL d   1      32.077  17.627 -23.925  0.00  0.00     0.122 A 
ATOM      2  C   UNL d   1      31.464  17.597 -24.476  0.00  0.00     0.043 A 
ATOM      3  C   UNL d   1      32.331  16.936 -23.554  0.00  0.00     0.105 A 
ATOM      4  C   UNL d   1      31.973  16.216 -23.732  0.00  0.00     0.030 A 
ATOM      5  C   UNL d   1      31.364  16.194 -24.280  0.00  0.00     0.059 A 
ATOM      6  C   UNL d   1      31.105  16.876 -24.654  0.00  0.00     0.015 A 
ATOM      7  N   UNL d   1      32.940  16.971 -23.008  0.00  0.00    -0.242 NA
ATOM      8 CL   UNL d   1      31.016  15.453 -24.445  0.00  0.00    -0.082 Cl
ATOM      9  C   UNL d   1      32.226  15.538 -23.363  0.00  0.00     0.004 A 
ATOM     10  C   UNL d   1      33.194  16.280 -22.636  0.00  0.00     0.099 A 
ATOM     11  C   UNL d   1      32.835  15.560 -22.815  0.00  0.00     0.021 A 
ENDROOT
BRANCH   1  12
ATOM     12  O   UNL d   1      32.409  18.275 -23.756  0.00  0.00    -0.271 OA
BRANCH  12  13
ATOM     13  C   UNL d   1      32.882  19.004 -24.173  0.00  0.00     0.300 C 
ATOM     14  O   UNL d   1      33.240  18.792 -25.087  0.00  0.00    -0.259 OA
BRANCH  13  15
ATOM     15  C   UNL d   1      32.973  19.729 -23.793  0.00  0.00     0.068 A 
ATOM     16  C   UNL d   1      33.067  20.425 -24.236  0.00  0.00     0.032 A 
ATOM     17  C   UNL d   1      33.159  21.160 -23.856  0.00  0.00     0.118 A 
ATOM     18  C   UNL d   1      33.158  21.200 -23.027  0.00  0.00     0.138 A 
ATOM     19  C   UNL d   1      33.064  20.500 -22.581  0.00  0.00     0.118 A 
ATOM     20  C   UNL d   1      32.971  19.764 -22.962  0.00  0.00     0.032 A 
BRANCH  17  21
ATOM     21  O   UNL d   1      33.241  21.753 -24.563  0.00  0.00    -0.326 OA
ATOM     22  C   UNL d   1      33.125  21.342 -25.087  0.00  0.00     0.181 C 
ENDBRANCH  17  21
BRANCH  18  23
ATOM     23  O   UNL d   1      33.222  21.712 -22.725  0.00  0.00    -0.324 OA
ATOM     24  C   UNL d   1      32.989  22.406 -22.888  0.00  0.00     0.182 C 
ENDBRANCH  18  23
BRANCH  19  25
ATOM     25  O   UNL d   1      33.050  20.442 -21.745  0.00  0.00    -0.326 OA
ATOM     26  C   UNL d   1      33.239  19.623 -21.652  0.00  0.00     0.181 C 
ENDBRANCH  19  25
ENDBRANCH  13  15
ENDBRANCH  12  13
ENDBRANCH   1  12
BRANCH   2  27
ATOM     27  C   UNL d   1      31.055  18.237 -24.977  0.00  0.00     0.082 C 
BRANCH  27  28
ATOM     28  N   UNL d   1      30.253  18.379 -24.876  0.00  0.00    -0.299 N 
ATOM     29  C   UNL d   1      29.730  17.752 -24.863  0.00  0.00     0.107 A 
ATOM     30  C   UNL d   1      28.919  17.879 -24.762  0.00  0.00     0.142 A 
ATOM     31  O   UNL d   1      28.647  18.643 -24.675  0.00  0.00    -0.300 OA
ATOM     32  C   UNL d   1      29.175  19.282 -24.689  0.00  0.00     0.142 A 
ATOM     33  C   UNL d   1      29.975  19.138 -24.789  0.00  0.00     0.107 A 
ENDBRANCH  27  28
ENDBRANCH   2  27
TORSDOF 8
ENDMDL
MODEL 3
REMARK VINA RESULT:       5.1      2.035      5.320
REMARK  8 active torsions:
REMARK  status: ('A' for Active; 'I' for Inactive)
REMARK    1  A    between atoms: O_4  and  C_1 
REMARK    2  A    between atoms: C_15  and  C_2 
REMARK    3  A    between atoms: C_5  and  O_4 
REMARK    4  A    between atoms: C_7  and  C_5 
REMARK    5  A    between atoms: O_21  and  C_8 
REMARK    6  A    between atoms: O_22  and  C_10 
REMARK    7  A    between atoms: O_23  and  C_11 
REMARK    8  A    between atoms: N_16  and  C_15 
ROOT
ATOM      1  C   UNL d   1      32.680  20.963 -22.425  0.00  0.00     0.122 A 
ATOM      2  C   UNL d   1      32.947  21.621 -22.845  0.00  0.00     0.043 A 
ATOM      3  C   UNL d   1      32.453  21.044 -21.636  0.00  0.00     0.105 A 
ATOM      4  C   UNL d   1      32.492  21.780 -21.268  0.00  0.00     0.030 A 
ATOM      5  C   UNL d   1      32.758  22.429 -21.693  0.00  0.00     0.059 A 
ATOM      6  C   UNL d   1      32.986  22.358 -22.478  0.00  0.00     0.015 A 
ATOM      7  N   UNL d   1      32.190  20.389 -21.222  0.00  0.00    -0.242 NA
ATOM      8 CL   UNL d   1      32.789  23.165 -21.300  0.00  0.00    -0.082 Cl
ATOM      9  C   UNL d   1      32.267  21.855 -20.491  0.00  0.00     0.004 A 
ATOM     10  C   UNL d   1      31.963  20.470 -20.433  0.00  0.00     0.099 A 
ATOM     11  C   UNL d   1      32.001  21.206 -20.066  0.00  0.00     0.021 A 
ENDROOT
BRANCH   1  12
ATOM     12  O   UNL d   1      32.641  20.291 -22.748  0.00  0.00    -0.271 OA
BRANCH  12  13
ATOM     13  C   UNL d   1      32.853  19.366 -22.579  0.00  0.00     0.300 C 
ATOM     14  O   UNL d   1      33.240  19.193 -21.669  0.00  0.00    -0.259 OA
BRANCH  13  15
ATOM     15  C   UNL d   1      32.719  18.785 -23.148  0.00  0.00     0.068 A 
ATOM     16  C   UNL d   1      32.986  18.009 -23.023  0.00  0.00     0.032 A 
ATOM     17  C   UNL d   1      32.853  17.418 -23.596  0.00  0.00     0.118 A 
ATOM     18  C   UNL d   1      32.450  17.606 -24.297  0.00  0.00     0.138 A 
ATOM     19  C   UNL d   1      32.181  18.387 -24.422  0.00  0.00     0.118 A 
ATOM     20  C   UNL d   1      32.315  18.977 -23.849  0.00  0.00     0.032 A 
BRANCH  17  21
ATOM     21  O   UNL d   1      33.241  16.668 -23.217  0.00  0.00    -0.326 OA
ATOM     22  C   UNL d   1      32.735  16.447 -22.826  0.00  0.00     0.181 C 
ENDBRANCH  17  21
BRANCH  18  23
ATOM     23  O   UNL d   1      32.339  17.205 -24.726  0.00  0.00    -0.324 OA
ATOM     24  C   UNL d   1      32.769  16.655 -25.002  0.00  0.00     0.182 C 
ENDBRANCH  18  23
BRANCH  19  25
ATOM     25  O   UNL d   1      31.769  18.668 -25.095  0.00  0.00    -0.326 OA
ATOM     26  C   UNL d   1      30.986  18.711 -24.779  0.00  0.00     0.181 C 
ENDBRANCH  19  25
ENDBRANCH  13  15
ENDBRANCH  12  13
ENDBRANCH   1  12
BRANCH   2  27
ATOM     27  C   UNL d   1      33.234  21.727 -23.702  0.00  0.00     0.082 C 
BRANCH  27  28
ATOM     28  N   UNL d   1      32.912  22.324 -24.165  0.00  0.00    -0.299 N 
ATOM     29  C   UNL d   1      32.255  22.169 -24.625  0.00  0.00     0.107 A 
ATOM     30  C   UNL d   1      31.920  22.760 -25.097  0.00  0.00     0.142 A 
ATOM     31  O   UNL d   1      32.255  23.504 -25.096  0.00  0.00    -0.300 OA
ATOM     32  C   UNL d   1      32.921  23.664 -24.629  0.00  0.00     0.142 A 
ATOM     33  C   UNL d   1      33.241  23.067 -24.168  0.00  0.00     0.107 A 
ENDBRANCH  27  28
ENDBRANCH   2  27
TORSDOF 8
ENDMDL
