MODEL 1
REMARK VINA RESULT:      -2.8      0.000      0.000
REMARK  5 active torsions:
REMARK  status: ('A' for Active; 'I' for Inactive)
REMARK    1  A    between atoms: C_5  and  C_1 
REMARK       I    between atoms: N_7  and  C_5 
REMARK    2  A    between atoms: C_10  and  N_7 
REMARK    3  A    between atoms: S_15  and  C_14 
REMARK    4  A    between atoms: C_20  and  S_15 
REMARK    5  A    between atoms: C_16  and  C_20 
ROOT
ATOM      1  N   UNL d   1      58.749  -4.219  28.492  0.00  0.00    -0.191 NA
ATOM      2  C   UNL d   1      58.618  -3.406  28.624  0.00  0.00     0.102 C 
ATOM      3  C   UNL d   1      58.496  -2.601  28.754  0.00  0.00     0.085 C 
ENDROOT
BRANCH   3   4
ATOM      4  C   UNL d   1      59.134  -2.089  28.823  0.00  0.00     0.046 C 
BRANCH   4   5
ATOM      5  S   UNL d   1      59.117  -1.477  29.384  0.00  0.00    -0.084 SA
BRANCH   5   6
ATOM      6  C   UNL d   1      59.630  -0.830  29.305  0.00  0.00     0.047 A 
ATOM      7  C   UNL d   1      59.473  -0.134  29.710  0.00  0.00     0.091 A 
ATOM      8  C   UNL d   1      59.980   0.516  29.637  0.00  0.00     0.020 A 
ATOM      9  C   UNL d   1      60.645   0.466  29.155  0.00  0.00     0.002 A 
ATOM     10  C   UNL d   1      60.805  -0.238  28.744  0.00  0.00     0.001 A 
ATOM     11  C   UNL d   1      60.295  -0.881  28.823  0.00  0.00     0.008 A 
BRANCH   7  12
ATOM     12  N   UNL d   1      58.806  -0.080  30.194  0.00  0.00    -0.206 NA
ATOM     13  C   UNL d   1      58.851   0.325  30.903  0.00  0.00     0.302 C 
ATOM     14  O   UNL d   1      59.554   0.681  31.139  0.00  0.00    -0.263 OA
BRANCH  13  15
ATOM     15  C   UNL d   1      58.179   0.381  31.394  0.00  0.00     0.161 A 
ATOM     16  C   UNL d   1      57.427   0.343  31.076  0.00  0.00     0.072 A 
ATOM     17  C   UNL d   1      56.767   0.399  31.572  0.00  0.00     0.200 A 
ATOM     18  O   UNL d   1      56.002   0.361  31.255  0.00  0.00    -0.286 OA
ATOM     19  C   UNL d   1      56.871   0.493  32.381  0.00  0.00     0.062 A 
ATOM     20  C   UNL d   1      57.623   0.532  32.704  0.00  0.00     0.103 A 
ATOM     21  C   UNL d   1      56.211   0.549  32.881  0.00  0.00     0.005 A 
ATOM     22  O   UNL d   1      58.283   0.475  32.203  0.00  0.00    -0.302 OA
ATOM     23  C   UNL d   1      57.736   0.626  33.518  0.00  0.00     0.025 A 
ATOM     24  C   UNL d   1      57.076   0.682  34.011  0.00  0.00     0.002 A 
ATOM     25  C   UNL d   1      56.316   0.643  33.690  0.00  0.00     0.000 A 
ENDBRANCH  13  15
ENDBRANCH   7  12
ENDBRANCH   5   6
ENDBRANCH   4   5
ENDBRANCH   3   4
TORSDOF 5
ENDMDL
