MODEL 1
REMARK VINA RESULT:       3.4      0.000      0.000
REMARK  5 active torsions:
REMARK  status: ('A' for Active; 'I' for Inactive)
REMARK    1  A    between atoms: C_10  and  N_1 
REMARK    2  A    between atoms: C_7  and  C_2 
REMARK    3  A    between atoms: C_3  and  C_11 
REMARK    4  A    between atoms: O_14  and  C_10 
REMARK    5  A    between atoms: C_11  and  O_14 
ROOT
ATOM      1  C   UNL d   1     -42.409-121.888 -51.419  0.00  0.00     0.305 C 
ATOM      2  O   UNL d   1     -43.183-122.136 -51.253  0.00  0.00    -0.259 OA
ENDROOT
BRANCH   1   3
ATOM      3  C   UNL d   1     -41.953-121.537 -50.833  0.00  0.00     0.108 A 
ATOM      4  C   UNL d   1     -41.884-121.793 -50.047  0.00  0.00     0.118 A 
ATOM      5  N   UNL d   1     -41.377-121.288 -49.650  0.00  0.00    -0.126 NA
ATOM      6  O   UNL d   1     -41.128-120.712 -50.197  0.00  0.00    -0.211 OA
ATOM      7  C   UNL d   1     -41.485-120.870 -50.922  0.00  0.00     0.132 A 
ATOM      8  C   UNL d   1     -41.388-120.435 -51.607  0.00  0.00     0.029 C 
BRANCH   4   9
ATOM      9  C   UNL d   1     -42.262-122.447 -49.716  0.00  0.00     0.058 A 
ATOM     10  C   UNL d   1     -41.868-123.164 -49.653  0.00  0.00     0.061 A 
ATOM     11 CL   UNL d   1     -41.137-123.619 -49.792  0.00  0.00    -0.082 Cl
ATOM     12  C   UNL d   1     -42.238-123.817 -49.324  0.00  0.00     0.012 A 
ATOM     13  C   UNL d   1     -43.012-123.749 -49.056  0.00  0.00     0.003 A 
ATOM     14  C   UNL d   1     -43.421-123.021 -49.117  0.00  0.00     0.030 A 
ATOM     15  C   UNL d   1     -43.040-122.380 -49.446  0.00  0.00     0.142 A 
ATOM     16  F   UNL d   1     -43.428-121.658 -49.512  0.00  0.00    -0.204 F 
ENDBRANCH   4   9
ENDBRANCH   1   3
BRANCH   1  17
ATOM     17  O   UNL d   1     -42.095-121.997 -52.182  0.00  0.00    -0.252 OA
BRANCH  17  18
ATOM     18  C   UNL d   1     -42.551-122.371 -52.766  0.00  0.00     0.216 C 
BRANCH  18  19
ATOM     19  N   UNL d   1     -42.282-122.390 -53.548  0.00  0.00    -0.218 N 
ATOM     20  C   UNL d   1     -41.731-122.912 -53.857  0.00  0.00     0.269 A 
ATOM     21  C   UNL d   1     -41.624-122.738 -54.657  0.00  0.00     0.061 A 
ATOM     22  O   UNL d   1     -41.344-123.517 -53.436  0.00  0.00    -0.267 OA
ATOM     23  C   UNL d   1     -41.146-123.072 -55.242  0.00  0.00     0.005 A 
ATOM     24  C   UNL d   1     -42.119-122.096 -54.843  0.00  0.00     0.061 A 
ATOM     25  C   UNL d   1     -41.160-122.771 -56.006  0.00  0.00     0.000 A 
ATOM     26  C   UNL d   1     -41.655-122.129 -56.192  0.00  0.00     0.000 A 
ATOM     27  C   UNL d   1     -42.132-121.794 -55.612  0.00  0.00     0.005 A 
ATOM     28  C   UNL d   1     -42.531-121.875 -54.157  0.00  0.00     0.269 A 
ATOM     29  O   UNL d   1     -43.079-121.268 -54.088  0.00  0.00    -0.267 OA
ENDBRANCH  18  19
ENDBRANCH  17  18
ENDBRANCH   1  17
TORSDOF 5
ENDMDL
