MODEL 1
REMARK VINA RESULT:       6.3      0.000      0.000
REMARK  7 active torsions:
REMARK  status: ('A' for Active; 'I' for Inactive)
REMARK    1  A    between atoms: C_20  and  N_1 
REMARK       I    between atoms: C_6  and  N_7 
REMARK    2  A    between atoms: C_10  and  C_6 
REMARK    3  A    between atoms: N_7  and  C_24 
REMARK    4  A    between atoms: C_9  and  N_7 
REMARK    5  A    between atoms: O_29  and  C_11 
REMARK    6  A    between atoms: C_23  and  C_20 
REMARK    7  A    between atoms: C_24  and  C_23 
ROOT
ATOM      1  C   UNL d   1      56.836  -0.093  32.094  0.00  0.00     0.085 C 
ENDROOT
BRANCH   1   2
ATOM      2  N   UNL d   1      57.151   0.117  32.817  0.00  0.00    -0.271 N 
ATOM      3  C   UNL d   1      56.650   0.190  33.472  0.00  0.00     0.271 C 
ATOM      4  O   UNL d   1      56.963   0.402  34.200  0.00  0.00    -0.266 OA
BRANCH   3   5
ATOM      5  C   UNL d   1      55.841   0.051  33.391  0.00  0.00     0.086 A 
ATOM      6  S   UNL d   1      55.469  -0.449  32.846  0.00  0.00    -0.082 SA
ATOM      7  C   UNL d   1      54.679  -0.415  32.964  0.00  0.00     0.036 A 
ATOM      8  C   UNL d   1      54.518   0.090  33.569  0.00  0.00     0.008 A 
ATOM      9  C   UNL d   1      55.257   0.397  33.853  0.00  0.00     0.012 A 
ENDBRANCH   3   5
BRANCH   2  10
ATOM     10  C   UNL d   1      57.956   0.256  32.898  0.00  0.00     0.089 A 
ATOM     11  C   UNL d   1      58.299   0.331  33.652  0.00  0.00     0.110 A 
ATOM     12  C   UNL d   1      59.099   0.468  33.732  0.00  0.00     0.026 A 
ATOM     13  C   UNL d   1      59.582   0.535  33.061  0.00  0.00     0.002 A 
ATOM     14  C   UNL d   1      59.242   0.461  32.320  0.00  0.00     0.002 A 
ATOM     15  C   UNL d   1      60.391   0.674  33.142  0.00  0.00     0.000 C 
ATOM     16  C   UNL d   1      58.442   0.323  32.240  0.00  0.00     0.020 A 
BRANCH  11  17
ATOM     17  O   UNL d   1      57.833   0.267  34.317  0.00  0.00    -0.327 OA
ATOM     18  C   UNL d   1      58.031   0.679  34.994  0.00  0.00     0.181 C 
ENDBRANCH  11  17
ENDBRANCH   2  10
ENDBRANCH   1   2
BRANCH   1  19
ATOM     19  C   UNL d   1      57.327  -0.102  31.404  0.00  0.00     0.038 C 
BRANCH  19  20
ATOM     20  C   UNL d   1      57.191  -0.649  30.794  0.00  0.00     0.088 C 
BRANCH  20  21
ATOM     21  N   UNL d   1      57.846  -0.927  30.321  0.00  0.00    -0.240 N 
ATOM     22  C   UNL d   1      58.302  -0.394  29.886  0.00  0.00     0.267 A 
ATOM     23  C   UNL d   1      58.938  -0.653  29.425  0.00  0.00     0.057 A 
ATOM     24  O   UNL d   1      58.124   0.441  29.904  0.00  0.00    -0.267 OA
ATOM     25  C   UNL d   1      59.384  -0.131  29.000  0.00  0.00     0.005 A 
ATOM     26  C   UNL d   1      59.106  -1.469  29.412  0.00  0.00     0.009 A 
ATOM     27  C   UNL d   1      60.022  -0.398  28.538  0.00  0.00     0.000 A 
ATOM     28  C   UNL d   1      60.186  -1.202  28.527  0.00  0.00     0.000 A 
ATOM     29  C   UNL d   1      59.739  -1.724  28.953  0.00  0.00     0.000 A 
ATOM     30  C   UNL d   1      59.905  -2.537  28.940  0.00  0.00     0.000 A 
ATOM     31  C   UNL d   1      59.449  -3.070  29.375  0.00  0.00     0.000 A 
ATOM     32  C   UNL d   1      58.815  -2.803  29.833  0.00  0.00     0.005 A 
ATOM     33  C   UNL d   1      58.650  -2.002  29.846  0.00  0.00     0.057 A 
ATOM     34  C   UNL d   1      58.014  -1.732  30.305  0.00  0.00     0.267 A 
ATOM     35  O   UNL d   1      57.551  -2.273  30.747  0.00  0.00    -0.267 OA
ENDBRANCH  20  21
ENDBRANCH  19  20
ENDBRANCH   1  19
TORSDOF 7
ENDMDL
MODEL 2
REMARK VINA RESULT:       7.5      1.102      2.041
REMARK  7 active torsions:
REMARK  status: ('A' for Active; 'I' for Inactive)
REMARK    1  A    between atoms: C_20  and  N_1 
REMARK       I    between atoms: C_6  and  N_7 
REMARK    2  A    between atoms: C_10  and  C_6 
REMARK    3  A    between atoms: N_7  and  C_24 
REMARK    4  A    between atoms: C_9  and  N_7 
REMARK    5  A    between atoms: O_29  and  C_11 
REMARK    6  A    between atoms: C_23  and  C_20 
REMARK    7  A    between atoms: C_24  and  C_23 
ROOT
ATOM      1  C   UNL d   1      55.584  -0.029  32.888  0.00  0.00     0.085 C 
ENDROOT
BRANCH   1   2
ATOM      2  N   UNL d   1      55.855   0.242  33.609  0.00  0.00    -0.271 N 
ATOM      3  C   UNL d   1      55.311   0.407  34.211  0.00  0.00     0.271 C 
ATOM      4  O   UNL d   1      55.581   0.680  34.936  0.00  0.00    -0.266 OA
BRANCH   3   5
ATOM      5  C   UNL d   1      54.504   0.297  34.080  0.00  0.00     0.086 A 
ATOM      6  S   UNL d   1      53.947  -0.011  34.609  0.00  0.00    -0.082 SA
ATOM      7  C   UNL d   1      53.231  -0.018  34.253  0.00  0.00     0.036 A 
ATOM      8  C   UNL d   1      53.298   0.275  33.507  0.00  0.00     0.008 A 
ATOM      9  C   UNL d   1      54.112   0.482  33.383  0.00  0.00     0.012 A 
ENDBRANCH   3   5
BRANCH   2  10
ATOM     10  C   UNL d   1      56.658   0.351  33.739  0.00  0.00     0.089 A 
ATOM     11  C   UNL d   1      56.983   0.243  34.497  0.00  0.00     0.110 A 
ATOM     12  C   UNL d   1      57.781   0.352  34.626  0.00  0.00     0.026 A 
ATOM     13  C   UNL d   1      58.280   0.572  34.001  0.00  0.00     0.002 A 
ATOM     14  C   UNL d   1      57.958   0.678  33.256  0.00  0.00     0.002 A 
ATOM     15  C   UNL d   1      59.087   0.682  34.132  0.00  0.00     0.000 C 
ATOM     16  C   UNL d   1      57.160   0.569  33.127  0.00  0.00     0.020 A 
BRANCH  11  17
ATOM     17  O   UNL d   1      56.501   0.027  35.117  0.00  0.00    -0.327 OA
ATOM     18  C   UNL d   1      56.830  -0.185  35.834  0.00  0.00     0.181 C 
ENDBRANCH  11  17
ENDBRANCH   2  10
ENDBRANCH   1   2
BRANCH   1  19
ATOM     19  C   UNL d   1      56.082   0.012  32.205  0.00  0.00     0.038 C 
BRANCH  19  20
ATOM     20  C   UNL d   1      56.119  -0.621  31.668  0.00  0.00     0.088 C 
BRANCH  20  21
ATOM     21  N   UNL d   1      56.725  -0.630  31.066  0.00  0.00    -0.240 N 
ATOM     22  C   UNL d   1      57.230  -1.279  30.992  0.00  0.00     0.267 A 
ATOM     23  C   UNL d   1      57.819  -1.298  30.413  0.00  0.00     0.057 A 
ATOM     24  O   UNL d   1      57.151  -1.948  31.517  0.00  0.00    -0.267 OA
ATOM     25  C   UNL d   1      58.313  -1.933  30.341  0.00  0.00     0.005 A 
ATOM     26  C   UNL d   1      57.891  -0.641  29.904  0.00  0.00     0.009 A 
ATOM     27  C   UNL d   1      58.904  -1.945  29.756  0.00  0.00     0.000 A 
ATOM     28  C   UNL d   1      58.972  -1.297  29.257  0.00  0.00     0.000 A 
ATOM     29  C   UNL d   1      58.478  -0.662  29.329  0.00  0.00     0.000 A 
ATOM     30  C   UNL d   1      58.548  -0.007  28.823  0.00  0.00     0.000 A 
ATOM     31  C   UNL d   1      58.043   0.642  28.897  0.00  0.00     0.000 A 
ATOM     32  C   UNL d   1      57.457   0.652  29.479  0.00  0.00     0.005 A 
ATOM     33  C   UNL d   1      57.386   0.008  29.978  0.00  0.00     0.057 A 
ATOM     34  C   UNL d   1      56.798   0.016  30.563  0.00  0.00     0.267 A 
ATOM     35  O   UNL d   1      56.285   0.675  30.638  0.00  0.00    -0.267 OA
ENDBRANCH  20  21
ENDBRANCH  19  20
ENDBRANCH   1  19
TORSDOF 7
ENDMDL
