MODEL 1
REMARK VINA RESULT:      60.3      0.000      0.000
REMARK  7 active torsions:
REMARK  status: ('A' for Active; 'I' for Inactive)
REMARK    1  A    between atoms: C_13  and  N_2 
REMARK    2  A    between atoms: C_7  and  C_4 
REMARK    3  A    between atoms: O_19  and  C_7 
REMARK    4  A    between atoms: C_9  and  C_18 
REMARK    5  A    between atoms: C_20  and  C_13 
REMARK    6  A    between atoms: O_16  and  C_15 
REMARK    7  A    between atoms: C_18  and  O_16 
ROOT
ATOM      1  C   UNL d   1      58.261  49.680  51.518  0.00  0.00     0.265 A 
ATOM      2  N   UNL d   1      57.936  49.656  50.760  0.00  0.00    -0.272 N 
ATOM      3  C   UNL d   1      59.076  49.682  51.614  0.00  0.00     0.059 A 
ATOM      4  C   UNL d   1      59.571  49.660  50.955  0.00  0.00     0.029 A 
ATOM      5  C   UNL d   1      59.250  49.636  50.199  0.00  0.00     0.021 A 
ATOM      6  C   UNL d   1      58.430  49.634  50.100  0.00  0.00     0.083 A 
ATOM      7  O   UNL d   1      57.766  49.702  52.178  0.00  0.00    -0.267 OA
ATOM      8  C   UNL d   1      60.391  49.662  51.053  0.00  0.00     0.100 A 
ATOM      9  C   UNL d   1      59.401  49.706  52.372  0.00  0.00     0.005 A 
ATOM     10  C   UNL d   1      60.220  49.708  52.472  0.00  0.00     0.002 A 
ATOM     11  C   UNL d   1      60.715  49.686  51.812  0.00  0.00     0.025 A 
ENDROOT
BRANCH   8  12
ATOM     12  O   UNL d   1      60.885  49.640  50.393  0.00  0.00    -0.303 OA
BRANCH  12  13
ATOM     13  C   UNL d   1      61.590  49.212  50.420  0.00  0.00     0.147 C 
BRANCH  13  14
ATOM     14  C   UNL d   1      61.580  48.395  50.306  0.00  0.00     0.125 A 
ATOM     15  O   UNL d   1      61.833  47.920  49.673  0.00  0.00    -0.300 OA
ATOM     16  C   UNL d   1      61.680  47.133  49.878  0.00  0.00     0.163 A 
ATOM     17  C   UNL d   1      61.341  47.118  50.619  0.00  0.00     0.032 A 
ATOM     18  C   UNL d   1      61.277  47.900  50.888  0.00  0.00     0.029 A 
BRANCH  16  19
ATOM     19  C   UNL d   1      61.844  46.462  49.406  0.00  0.00     0.319 C 
ATOM     20  O   UNL d   1      61.288  46.190  48.872  0.00  0.00    -0.257 OA
BRANCH  19  21
ATOM     21  O   UNL d   1      62.581  46.069  49.481  0.00  0.00    -0.294 OA
ATOM     22  C   UNL d   1      62.612  45.244  49.515  0.00  0.00     0.185 C 
ENDBRANCH  19  21
ENDBRANCH  16  19
ENDBRANCH  13  14
ENDBRANCH  12  13
ENDBRANCH   8  12
BRANCH   2  23
ATOM     23  C   UNL d   1      57.107  49.655  50.665  0.00  0.00     0.083 C 
BRANCH  23  24
ATOM     24  C   UNL d   1      56.751  49.146  50.122  0.00  0.00     0.018 A 
ATOM     25  C   UNL d   1      56.663  48.348  50.308  0.00  0.00     0.002 A 
ATOM     26  C   UNL d   1      56.307  47.839  49.765  0.00  0.00     0.000 A 
ATOM     27  C   UNL d   1      56.041  48.130  49.039  0.00  0.00     0.000 A 
ATOM     28  C   UNL d   1      56.132  48.926  48.860  0.00  0.00     0.000 A 
ATOM     29  C   UNL d   1      56.488  49.436  49.403  0.00  0.00     0.002 A 
ENDBRANCH  23  24
ENDBRANCH   2  23
TORSDOF 7
ENDMDL
