MODEL 1
REMARK VINA RESULT:      25.2      0.000      0.000
REMARK  8 active torsions:
REMARK  status: ('A' for Active; 'I' for Inactive)
REMARK       I    between atoms: N_3  and  C_1 
REMARK    1  A    between atoms: C_11  and  C_1 
REMARK    2  A    between atoms: C_7  and  N_3 
REMARK    3  A    between atoms: C_5  and  O_8 
REMARK    4  A    between atoms: C_12  and  C_7 
REMARK    5  A    between atoms: O_8  and  C_15 
REMARK    6  A    between atoms: C_9  and  C_12 
REMARK    7  A    between atoms: C_19  and  C_11 
REMARK    8  A    between atoms: C_15  and  C_19 
ROOT
ATOM      1  C   UNL d   1      13.159  12.674  -4.453  0.00  0.00     0.328 C 
ATOM      2  O   UNL d   1      13.151  12.061  -5.005  0.00  0.00    -0.251 OA
ATOM      3  N   UNL d   1      13.260  13.457  -4.708  0.00  0.00    -0.362 NA
ENDROOT
BRANCH   1   4
ATOM      4  C   UNL d   1      13.067  12.509  -3.651  0.00  0.00     0.078 C 
BRANCH   4   5
ATOM      5  C   UNL d   1      13.414  11.844  -3.323  0.00  0.00     0.033 C 
BRANCH   5   6
ATOM      6  C   UNL d   1      13.509  11.784  -2.507  0.00  0.00     0.123 C 
BRANCH   6   7
ATOM      7  O   UNL d   1      14.264  11.779  -2.176  0.00  0.00    -0.305 OA
BRANCH   7   8
ATOM      8  C   UNL d   1      14.406  12.159  -1.460  0.00  0.00     0.100 A 
ATOM      9  C   UNL d   1      15.016  12.720  -1.398  0.00  0.00     0.025 A 
ATOM     10  C   UNL d   1      15.153  13.098  -0.675  0.00  0.00     0.002 A 
ATOM     11  C   UNL d   1      15.758  13.653  -0.618  0.00  0.00     0.000 C 
ATOM     12  C   UNL d   1      14.689  12.922  -0.016  0.00  0.00     0.000 A 
ATOM     13  C   UNL d   1      14.084  12.368  -0.072  0.00  0.00     0.002 A 
ATOM     14  C   UNL d   1      13.938  11.982  -0.794  0.00  0.00     0.025 A 
ENDBRANCH   7   8
ENDBRANCH   6   7
ENDBRANCH   5   6
ENDBRANCH   4   5
ENDBRANCH   1   4
BRANCH   3  15
ATOM     15  C   UNL d   1      13.361  14.232  -4.961  0.00  0.00     0.165 C 
BRANCH  15  16
ATOM     16  C   UNL d   1      13.154  14.859  -4.465  0.00  0.00     0.035 C 
BRANCH  16  17
ATOM     17  C   UNL d   1      13.736  15.359  -4.176  0.00  0.00     0.003 A 
ATOM     18  C   UNL d   1      14.186  15.829  -4.692  0.00  0.00     0.000 A 
ATOM     19  C   UNL d   1      14.768  16.329  -4.395  0.00  0.00     0.000 A 
ATOM     20  C   UNL d   1      14.907  16.364  -3.583  0.00  0.00     0.000 A 
ATOM     21  C   UNL d   1      14.457  15.894  -3.066  0.00  0.00     0.000 A 
ATOM     22  C   UNL d   1      13.875  15.394  -3.364  0.00  0.00     0.000 A 
ENDBRANCH  16  17
ENDBRANCH  15  16
ENDBRANCH   3  15
TORSDOF 8
ENDMDL
MODEL 2
REMARK VINA RESULT:      26.1      1.037      4.001
REMARK  8 active torsions:
REMARK  status: ('A' for Active; 'I' for Inactive)
REMARK       I    between atoms: N_3  and  C_1 
REMARK    1  A    between atoms: C_11  and  C_1 
REMARK    2  A    between atoms: C_7  and  N_3 
REMARK    3  A    between atoms: C_5  and  O_8 
REMARK    4  A    between atoms: C_12  and  C_7 
REMARK    5  A    between atoms: O_8  and  C_15 
REMARK    6  A    between atoms: C_9  and  C_12 
REMARK    7  A    between atoms: C_19  and  C_11 
REMARK    8  A    between atoms: C_15  and  C_19 
ROOT
ATOM      1  C   UNL d   1      13.250  12.614  -4.171  0.00  0.00     0.328 C 
ATOM      2  O   UNL d   1      13.386  12.341  -4.937  0.00  0.00    -0.251 OA
ATOM      3  N   UNL d   1      13.556  12.195  -3.523  0.00  0.00    -0.362 NA
ENDROOT
BRANCH   1   4
ATOM      4  C   UNL d   1      12.812  13.301  -4.048  0.00  0.00     0.078 C 
BRANCH   4   5
ATOM      5  C   UNL d   1      12.958  13.970  -4.499  0.00  0.00     0.033 C 
BRANCH   5   6
ATOM      6  C   UNL d   1      13.219  14.664  -4.140  0.00  0.00     0.123 C 
BRANCH   6   7
ATOM      7  O   UNL d   1      13.966  14.966  -4.313  0.00  0.00    -0.305 OA
BRANCH   7   8
ATOM      8  C   UNL d   1      14.304  15.541  -3.831  0.00  0.00     0.100 A 
ATOM      9  C   UNL d   1      14.363  15.418  -3.012  0.00  0.00     0.025 A 
ATOM     10  C   UNL d   1      14.703  16.001  -2.534  0.00  0.00     0.002 A 
ATOM     11  C   UNL d   1      14.761  15.875  -1.722  0.00  0.00     0.000 C 
ATOM     12  C   UNL d   1      14.984  16.703  -2.864  0.00  0.00     0.000 A 
ATOM     13  C   UNL d   1      14.928  16.829  -3.675  0.00  0.00     0.002 A 
ATOM     14  C   UNL d   1      14.587  16.250  -4.164  0.00  0.00     0.025 A 
ENDBRANCH   7   8
ENDBRANCH   6   7
ENDBRANCH   5   6
ENDBRANCH   4   5
ENDBRANCH   1   4
BRANCH   3  15
ATOM     15  C   UNL d   1      13.859  11.779  -2.882  0.00  0.00     0.165 C 
BRANCH  15  16
ATOM     16  C   UNL d   1      13.461  11.785  -2.160  0.00  0.00     0.035 C 
BRANCH  16  17
ATOM     17  C   UNL d   1      13.886  11.818  -1.460  0.00  0.00     0.003 A 
ATOM     18  C   UNL d   1      14.716  11.779  -1.466  0.00  0.00     0.000 A 
ATOM     19  C   UNL d   1      15.137  11.813  -0.760  0.00  0.00     0.000 A 
ATOM     20  C   UNL d   1      14.735  11.886  -0.043  0.00  0.00     0.000 A 
ATOM     21  C   UNL d   1      13.905  11.925  -0.036  0.00  0.00     0.000 A 
ATOM     22  C   UNL d   1      13.485  11.891  -0.743  0.00  0.00     0.000 A 
ENDBRANCH  16  17
ENDBRANCH  15  16
ENDBRANCH   3  15
TORSDOF 8
ENDMDL
