MODEL 1
REMARK VINA RESULT:      -5.0      0.000      0.000
REMARK  6 active torsions:
REMARK  status: ('A' for Active; 'I' for Inactive)
REMARK    1  A    between atoms: C_4  and  C_1 
REMARK    2  A    between atoms: C_3  and  C_7 
REMARK    3  A    between atoms: O_18  and  C_3 
REMARK    4  A    between atoms: C_9  and  C_4 
REMARK    5  A    between atoms: O_13  and  C_9 
REMARK    6  A    between atoms: C_15  and  O_13 
ROOT
ATOM      1  C   UNL d   1     -41.413-122.490 -51.806  0.00  0.00     0.165 C 
ENDROOT
BRANCH   1   2
ATOM      2  C   UNL d   1     -41.317-122.097 -52.515  0.00  0.00     0.223 C 
ATOM      3  O   UNL d   1     -41.187-121.283 -52.529  0.00  0.00    -0.284 OA
BRANCH   2   4
ATOM      4  C   UNL d   1     -41.352-122.540 -53.238  0.00  0.00     0.080 A 
ATOM      5  C   UNL d   1     -41.617-122.170 -53.914  0.00  0.00     0.202 A 
ATOM      6  C   UNL d   1     -41.656-122.598 -54.637  0.00  0.00     0.084 A 
ATOM      7  O   UNL d   1     -41.843-121.373 -53.876  0.00  0.00    -0.286 OA
ATOM      8  C   UNL d   1     -41.424-123.390 -54.640  0.00  0.00     0.199 A 
ATOM      9  C   UNL d   1     -41.156-123.758 -53.948  0.00  0.00     0.042 A 
ATOM     10  O   UNL d   1     -41.464-123.817 -55.363  0.00  0.00    -0.286 OA
ATOM     11  C   UNL d   1     -41.123-123.332 -53.255  0.00  0.00     0.010 A 
ENDBRANCH   2   4
ENDBRANCH   1   2
BRANCH   1  12
ATOM     12  O   UNL d   1     -41.475-122.072 -51.102  0.00  0.00    -0.302 OA
BRANCH  12  13
ATOM     13  C   UNL d   1     -41.731-122.455 -50.415  0.00  0.00     0.100 A 
ATOM     14  C   UNL d   1     -42.514-122.380 -50.167  0.00  0.00     0.025 A 
ATOM     15  C   UNL d   1     -42.766-122.753 -49.496  0.00  0.00     0.007 A 
ATOM     16  C   UNL d   1     -42.239-123.222 -49.040  0.00  0.00     0.063 A 
ATOM     17  C   UNL d   1     -41.455-123.297 -49.288  0.00  0.00     0.007 A 
ATOM     18  C   UNL d   1     -41.203-122.903 -49.990  0.00  0.00     0.025 A 
BRANCH  16  19
ATOM     19  C   UNL d   1     -42.509-123.604 -48.348  0.00  0.00     0.296 C 
ATOM     20  O   UNL d   1     -43.303-123.808 -48.258  0.00  0.00    -0.259 OA
BRANCH  19  21
ATOM     21  O   UNL d   1     -41.951-123.774 -47.748  0.00  0.00    -0.296 OA
ATOM     22  C   UNL d   1     -42.172-123.782 -46.953  0.00  0.00     0.185 C 
ENDBRANCH  19  21
ENDBRANCH  16  19
ENDBRANCH  12  13
ENDBRANCH   1  12
TORSDOF 6
ENDMDL
MODEL 2
REMARK VINA RESULT:      -4.8      1.004      1.487
REMARK  6 active torsions:
REMARK  status: ('A' for Active; 'I' for Inactive)
REMARK    1  A    between atoms: C_4  and  C_1 
REMARK    2  A    between atoms: C_3  and  C_7 
REMARK    3  A    between atoms: O_18  and  C_3 
REMARK    4  A    between atoms: C_9  and  C_4 
REMARK    5  A    between atoms: O_13  and  C_9 
REMARK    6  A    between atoms: C_15  and  O_13 
ROOT
ATOM      1  C   UNL d   1     -41.624-122.726 -52.543  0.00  0.00     0.165 C 
ENDROOT
BRANCH   1   2
ATOM      2  C   UNL d   1     -41.496-123.072 -53.271  0.00  0.00     0.223 C 
ATOM      3  O   UNL d   1     -41.123-123.806 -53.326  0.00  0.00    -0.284 OA
BRANCH   2   4
ATOM      4  C   UNL d   1     -41.751-122.665 -53.970  0.00  0.00     0.080 A 
ATOM      5  C   UNL d   1     -41.561-122.976 -54.699  0.00  0.00     0.202 A 
ATOM      6  C   UNL d   1     -41.808-122.582 -55.400  0.00  0.00     0.084 A 
ATOM      7  O   UNL d   1     -41.123-123.679 -54.735  0.00  0.00    -0.286 OA
ATOM      8  C   UNL d   1     -42.242-121.884 -55.327  0.00  0.00     0.199 A 
ATOM      9  C   UNL d   1     -42.432-121.575 -54.582  0.00  0.00     0.042 A 
ATOM     10  O   UNL d   1     -42.490-121.491 -56.028  0.00  0.00    -0.286 OA
ATOM     11  C   UNL d   1     -42.186-121.966 -53.912  0.00  0.00     0.010 A 
ENDBRANCH   2   4
ENDBRANCH   1   2
BRANCH   1  12
ATOM     12  O   UNL d   1     -41.125-122.884 -51.911  0.00  0.00    -0.302 OA
BRANCH  12  13
ATOM     13  C   UNL d   1     -41.418-122.863 -51.137  0.00  0.00     0.100 A 
ATOM     14  C   UNL d   1     -41.968-122.288 -50.920  0.00  0.00     0.025 A 
ATOM     15  C   UNL d   1     -42.256-122.264 -50.165  0.00  0.00     0.007 A 
ATOM     16  C   UNL d   1     -42.001-122.822 -49.590  0.00  0.00     0.063 A 
ATOM     17  C   UNL d   1     -41.451-123.397 -49.808  0.00  0.00     0.007 A 
ATOM     18  C   UNL d   1     -41.158-123.412 -50.598  0.00  0.00     0.025 A 
BRANCH  16  19
ATOM     19  C   UNL d   1     -42.305-122.789 -48.812  0.00  0.00     0.296 C 
ATOM     20  O   UNL d   1     -42.997-122.374 -48.643  0.00  0.00    -0.259 OA
BRANCH  19  21
ATOM     21  O   UNL d   1     -41.886-123.190 -48.209  0.00  0.00    -0.296 OA
ATOM     22  C   UNL d   1     -42.236-123.339 -47.477  0.00  0.00     0.185 C 
ENDBRANCH  19  21
ENDBRANCH  16  19
ENDBRANCH  12  13
ENDBRANCH   1  12
TORSDOF 6
ENDMDL
