MODEL 1
REMARK VINA RESULT:      -5.6      0.000      0.000
REMARK  5 active torsions:
REMARK  status: ('A' for Active; 'I' for Inactive)
REMARK    1  A    between atoms: S_6  and  C_3 
REMARK    2  A    between atoms: C_10  and  C_4 
REMARK    3  A    between atoms: C_5  and  C_7 
REMARK    4  A    between atoms: C_9  and  C_5 
REMARK    5  A    between atoms: C_7  and  S_6 
ROOT
ATOM      1  N   UNL d   1      56.859  -1.010  31.462  0.00  0.00    -0.148 NA
ATOM      2  N   UNL d   1      57.381  -1.107  30.828  0.00  0.00    -0.141 NA
ATOM      3  C   UNL d   1      57.831  -0.471  30.558  0.00  0.00     0.133 A 
ATOM      4  C   UNL d   1      56.789  -0.269  31.826  0.00  0.00     0.103 A 
ATOM      5  C   UNL d   1      57.234   0.368  31.561  0.00  0.00     0.023 A 
ATOM      6  C   UNL d   1      57.755   0.275  30.931  0.00  0.00     0.029 A 
ENDROOT
BRANCH   3   7
ATOM      7  S   UNL d   1      58.347  -0.571  29.930  0.00  0.00    -0.062 SA
BRANCH   7   8
ATOM      8  C   UNL d   1      58.612  -1.326  29.730  0.00  0.00     0.079 C 
BRANCH   8   9
ATOM      9  C   UNL d   1      59.134  -1.430  29.084  0.00  0.00     0.202 C 
ATOM     10  O   UNL d   1      59.321  -0.796  28.606  0.00  0.00    -0.286 OA
BRANCH   9  11
ATOM     11  C   UNL d   1      59.454  -2.170  28.937  0.00  0.00     0.040 A 
ATOM     12  C   UNL d   1      60.243  -2.323  29.125  0.00  0.00     0.003 A 
ATOM     13  C   UNL d   1      60.573  -3.063  28.982  0.00  0.00     0.000 A 
ATOM     14  C   UNL d   1      60.098  -3.660  28.643  0.00  0.00     0.000 A 
ATOM     15  C   UNL d   1      59.309  -3.507  28.455  0.00  0.00     0.000 A 
ATOM     16  C   UNL d   1      58.995  -2.760  28.605  0.00  0.00     0.003 A 
ENDBRANCH   9  11
ENDBRANCH   8   9
ENDBRANCH   7   8
ENDBRANCH   3   7
BRANCH   4  17
ATOM     17  C   UNL d   1      56.267  -0.171  32.459  0.00  0.00     0.019 A 
ATOM     18  C   UNL d   1      55.970   0.584  32.644  0.00  0.00     0.002 A 
ATOM     19  C   UNL d   1      55.446   0.682  33.281  0.00  0.00     0.000 A 
ATOM     20  C   UNL d   1      55.215   0.025  33.736  0.00  0.00     0.000 A 
ATOM     21  C   UNL d   1      55.507  -0.718  33.555  0.00  0.00     0.000 A 
ATOM     22  C   UNL d   1      56.032  -0.828  32.920  0.00  0.00     0.002 A 
ENDBRANCH   4  17
TORSDOF 5
ENDMDL
MODEL 2
REMARK VINA RESULT:      -4.5      1.582      2.032
REMARK  5 active torsions:
REMARK  status: ('A' for Active; 'I' for Inactive)
REMARK    1  A    between atoms: S_6  and  C_3 
REMARK    2  A    between atoms: C_10  and  C_4 
REMARK    3  A    between atoms: C_5  and  C_7 
REMARK    4  A    between atoms: C_9  and  C_5 
REMARK    5  A    between atoms: C_7  and  S_6 
ROOT
ATOM      1  N   UNL d   1      56.778  -0.696  32.263  0.00  0.00    -0.148 NA
ATOM      2  N   UNL d   1      57.190  -0.850  31.563  0.00  0.00    -0.141 NA
ATOM      3  C   UNL d   1      57.340  -0.243  31.025  0.00  0.00     0.133 A 
ATOM      4  C   UNL d   1      56.514   0.074  32.421  0.00  0.00     0.103 A 
ATOM      5  C   UNL d   1      56.659   0.682  31.890  0.00  0.00     0.023 A 
ATOM      6  C   UNL d   1      57.070   0.532  31.192  0.00  0.00     0.029 A 
ENDROOT
BRANCH   3   7
ATOM      7  S   UNL d   1      57.749  -0.400  30.333  0.00  0.00    -0.062 SA
BRANCH   7   8
ATOM      8  C   UNL d   1      58.569  -0.315  30.309  0.00  0.00     0.079 C 
BRANCH   8   9
ATOM      9  C   UNL d   1      58.992  -0.522  29.617  0.00  0.00     0.202 C 
ATOM     10  O   UNL d   1      58.715  -1.116  29.134  0.00  0.00    -0.286 OA
BRANCH   9  11
ATOM     11  C   UNL d   1      59.684  -0.122  29.432  0.00  0.00     0.040 A 
ATOM     12  C   UNL d   1      59.778   0.216  28.686  0.00  0.00     0.003 A 
ATOM     13  C   UNL d   1      60.468   0.619  28.490  0.00  0.00     0.000 A 
ATOM     14  C   UNL d   1      61.075   0.682  29.060  0.00  0.00     0.000 A 
ATOM     15  C   UNL d   1      60.981   0.344  29.807  0.00  0.00     0.000 A 
ATOM     16  C   UNL d   1      60.283  -0.056  29.986  0.00  0.00     0.003 A 
ENDBRANCH   9  11
ENDBRANCH   8   9
ENDBRANCH   7   8
ENDBRANCH   3   7
BRANCH   4  17
ATOM     17  C   UNL d   1      56.101   0.228  33.121  0.00  0.00     0.019 A 
ATOM     18  C   UNL d   1      56.507   0.509  33.792  0.00  0.00     0.002 A 
ATOM     19  C   UNL d   1      56.092   0.664  34.495  0.00  0.00     0.000 A 
ATOM     20  C   UNL d   1      55.270   0.540  34.531  0.00  0.00     0.000 A 
ATOM     21  C   UNL d   1      54.871   0.264  33.872  0.00  0.00     0.000 A 
ATOM     22  C   UNL d   1      55.276   0.105  33.163  0.00  0.00     0.002 A 
ENDBRANCH   4  17
TORSDOF 5
ENDMDL
MODEL 3
REMARK VINA RESULT:      -4.1      1.103      5.277
REMARK  5 active torsions:
REMARK  status: ('A' for Active; 'I' for Inactive)
REMARK    1  A    between atoms: S_6  and  C_3 
REMARK    2  A    between atoms: C_10  and  C_4 
REMARK    3  A    between atoms: C_5  and  C_7 
REMARK    4  A    between atoms: C_9  and  C_5 
REMARK    5  A    between atoms: C_7  and  S_6 
ROOT
ATOM      1  N   UNL d   1      58.420  -2.250  29.758  0.00  0.00    -0.148 NA
ATOM      2  N   UNL d   1      57.923  -1.680  30.092  0.00  0.00    -0.141 NA
ATOM      3  C   UNL d   1      58.182  -0.903  30.182  0.00  0.00     0.133 A 
ATOM      4  C   UNL d   1      59.182  -2.036  29.513  0.00  0.00     0.103 A 
ATOM      5  C   UNL d   1      59.446  -1.264  29.600  0.00  0.00     0.023 A 
ATOM      6  C   UNL d   1      58.954  -0.694  29.932  0.00  0.00     0.029 A 
ENDROOT
BRANCH   3   7
ATOM      7  S   UNL d   1      57.686  -0.341  30.513  0.00  0.00    -0.062 SA
BRANCH   7   8
ATOM      8  C   UNL d   1      57.325  -0.486  31.240  0.00  0.00     0.079 C 
BRANCH   8   9
ATOM      9  C   UNL d   1      56.730   0.030  31.524  0.00  0.00     0.202 C 
ATOM     10  O   UNL d   1      56.515   0.682  31.085  0.00  0.00    -0.286 OA
BRANCH   9  11
ATOM     11  C   UNL d   1      56.370  -0.125  32.244  0.00  0.00     0.040 A 
ATOM     12  C   UNL d   1      56.281  -0.903  32.501  0.00  0.00     0.003 A 
ATOM     13  C   UNL d   1      55.920  -1.070  33.222  0.00  0.00     0.000 A 
ATOM     14  C   UNL d   1      55.644  -0.437  33.692  0.00  0.00     0.000 A 
ATOM     15  C   UNL d   1      55.733   0.342  33.434  0.00  0.00     0.000 A 
ATOM     16  C   UNL d   1      56.097   0.490  32.710  0.00  0.00     0.003 A 
ENDBRANCH   9  11
ENDBRANCH   8   9
ENDBRANCH   7   8
ENDBRANCH   3   7
BRANCH   4  17
ATOM     17  C   UNL d   1      59.680  -2.606  29.179  0.00  0.00     0.019 A 
ATOM     18  C   UNL d   1      59.356  -3.267  28.791  0.00  0.00     0.002 A 
ATOM     19  C   UNL d   1      59.856  -3.840  28.456  0.00  0.00     0.000 A 
ATOM     20  C   UNL d   1      60.682  -3.754  28.506  0.00  0.00     0.000 A 
ATOM     21  C   UNL d   1      61.000  -3.104  28.887  0.00  0.00     0.000 A 
ATOM     22  C   UNL d   1      60.510  -2.525  29.227  0.00  0.00     0.002 A 
ENDBRANCH   4  17
TORSDOF 5
ENDMDL
MODEL 4
REMARK VINA RESULT:      -3.9      8.516      9.709
REMARK  5 active torsions:
REMARK  status: ('A' for Active; 'I' for Inactive)
REMARK    1  A    between atoms: S_6  and  C_3 
REMARK    2  A    between atoms: C_10  and  C_4 
REMARK    3  A    between atoms: C_5  and  C_7 
REMARK    4  A    between atoms: C_9  and  C_5 
REMARK    5  A    between atoms: C_7  and  S_6 
ROOT
ATOM      1  N   UNL d   1      58.078  -9.807  32.324  0.00  0.00    -0.148 NA
ATOM      2  N   UNL d   1      58.385  -9.806  33.092  0.00  0.00    -0.141 NA
ATOM      3  C   UNL d   1      59.199  -9.746  33.214  0.00  0.00     0.133 A 
ATOM      4  C   UNL d   1      58.591  -9.746  31.677  0.00  0.00     0.103 A 
ATOM      5  C   UNL d   1      59.402  -9.685  31.792  0.00  0.00     0.023 A 
ATOM      6  C   UNL d   1      59.712  -9.685  32.555  0.00  0.00     0.029 A 
ENDROOT
BRANCH   3   7
ATOM      7  S   UNL d   1      59.500  -9.746  33.976  0.00  0.00    -0.062 SA
BRANCH   7   8
ATOM      8  C   UNL d   1      59.438  -9.069  34.444  0.00  0.00     0.079 C 
BRANCH   8   9
ATOM      9  C   UNL d   1      59.770  -9.059  35.213  0.00  0.00     0.202 C 
ATOM     10  O   UNL d   1      59.916  -9.761  35.601  0.00  0.00    -0.286 OA
BRANCH   9  11
ATOM     11  C   UNL d   1      59.946  -8.341  35.568  0.00  0.00     0.040 A 
ATOM     12  C   UNL d   1      60.727  -8.079  35.604  0.00  0.00     0.003 A 
ATOM     13  C   UNL d   1      60.913  -7.360  35.958  0.00  0.00     0.000 A 
ATOM     14  C   UNL d   1      60.299  -6.897  36.283  0.00  0.00     0.000 A 
ATOM     15  C   UNL d   1      59.517  -7.160  36.246  0.00  0.00     0.000 A 
ATOM     16  C   UNL d   1      59.349  -7.882  35.888  0.00  0.00     0.003 A 
ENDBRANCH   9  11
ENDBRANCH   8   9
ENDBRANCH   7   8
ENDBRANCH   3   7
BRANCH   4  17
ATOM     17  C   UNL d   1      58.284  -9.747  30.909  0.00  0.00     0.019 A 
ATOM     18  C   UNL d   1      57.464  -9.817  30.788  0.00  0.00     0.002 A 
ATOM     19  C   UNL d   1      57.155  -9.818  30.017  0.00  0.00     0.000 A 
ATOM     20  C   UNL d   1      57.664  -9.748  29.363  0.00  0.00     0.000 A 
ATOM     21  C   UNL d   1      58.471  -9.678  29.482  0.00  0.00     0.000 A 
ATOM     22  C   UNL d   1      58.791  -9.677  30.249  0.00  0.00     0.002 A 
ENDBRANCH   4  17
TORSDOF 5
ENDMDL
MODEL 5
REMARK VINA RESULT:      -3.8      1.907      5.429
REMARK  5 active torsions:
REMARK  status: ('A' for Active; 'I' for Inactive)
REMARK    1  A    between atoms: S_6  and  C_3 
REMARK    2  A    between atoms: C_10  and  C_4 
REMARK    3  A    between atoms: C_5  and  C_7 
REMARK    4  A    between atoms: C_9  and  C_5 
REMARK    5  A    between atoms: C_7  and  S_6 
ROOT
ATOM      1  N   UNL d   1      58.176  -0.737  30.064  0.00  0.00    -0.148 NA
ATOM      2  N   UNL d   1      57.510  -0.763  30.554  0.00  0.00    -0.141 NA
ATOM      3  C   UNL d   1      57.259  -0.085  30.952  0.00  0.00     0.133 A 
ATOM      4  C   UNL d   1      58.591  -0.025  29.975  0.00  0.00     0.103 A 
ATOM      5  C   UNL d   1      58.347   0.652  30.369  0.00  0.00     0.023 A 
ATOM      6  C   UNL d   1      57.684   0.630  30.857  0.00  0.00     0.029 A 
ENDROOT
BRANCH   3   7
ATOM      7  S   UNL d   1      56.599  -0.115  31.436  0.00  0.00    -0.062 SA
BRANCH   7   8
ATOM      8  C   UNL d   1      56.689  -0.135  32.256  0.00  0.00     0.079 C 
BRANCH   8   9
ATOM      9  C   UNL d   1      56.101  -0.490  32.734  0.00  0.00     0.202 C 
ATOM     10  O   UNL d   1      55.794  -1.217  32.528  0.00  0.00    -0.286 OA
BRANCH   9  11
ATOM     11  C   UNL d   1      55.838  -0.103  33.407  0.00  0.00     0.040 A 
ATOM     12  C   UNL d   1      55.037   0.070  33.497  0.00  0.00     0.003 A 
ATOM     13  C   UNL d   1      54.763   0.459  34.169  0.00  0.00     0.000 A 
ATOM     14  C   UNL d   1      55.309   0.677  34.761  0.00  0.00     0.000 A 
ATOM     15  C   UNL d   1      56.111   0.503  34.671  0.00  0.00     0.000 A 
ATOM     16  C   UNL d   1      56.367   0.114  33.992  0.00  0.00     0.003 A 
ENDBRANCH   9  11
ENDBRANCH   8   9
ENDBRANCH   7   8
ENDBRANCH   3   7
BRANCH   4  17
ATOM     17  C   UNL d   1      59.257   0.001  29.486  0.00  0.00     0.019 A 
ATOM     18  C   UNL d   1      59.372   0.645  28.971  0.00  0.00     0.002 A 
ATOM     19  C   UNL d   1      60.041   0.671  28.479  0.00  0.00     0.000 A 
ATOM     20  C   UNL d   1      60.599   0.054  28.499  0.00  0.00     0.000 A 
ATOM     21  C   UNL d   1      60.486  -0.579  29.006  0.00  0.00     0.000 A 
ATOM     22  C   UNL d   1      59.821  -0.616  29.502  0.00  0.00     0.002 A 
ENDBRANCH   4  17
TORSDOF 5
ENDMDL
