MODEL 1
REMARK VINA RESULT:      84.3      0.000      0.000
REMARK  9 active torsions:
REMARK  status: ('A' for Active; 'I' for Inactive)
REMARK    1  A    between atoms: N_6  and  S_1 
REMARK    2  A    between atoms: C_12  and  S_1 
REMARK    3  A    between atoms: C_2  and  C_3 
REMARK    4  A    between atoms: C_4  and  C_2 
REMARK    5  A    between atoms: C_5  and  C_2 
REMARK    6  A    between atoms: O_14  and  C_4 
REMARK    7  A    between atoms: C_9  and  C_5 
REMARK    8  A    between atoms: C_7  and  N_6 
REMARK    9  A    between atoms: C_29  and  O_14 
ROOT
ATOM      1  C   UNL d   1      44.344 -14.874  37.619  0.00  0.00     0.049 A 
ATOM      2  C   UNL d   1      44.550 -13.525  38.031  0.00  0.00     0.094 A 
ATOM      3  C   UNL d   1      45.043 -14.836  37.174  0.00  0.00     0.196 A 
ATOM      4  C   UNL d   1      44.098 -14.220  38.046  0.00  0.00     0.023 A 
ATOM      5  C   UNL d   1      45.500 -14.138  37.157  0.00  0.00     0.040 A 
ATOM      6  C   UNL d   1      45.254 -13.484  37.584  0.00  0.00     0.021 A 
ATOM      7  O   UNL d   1      45.290 -15.495  36.744  0.00  0.00    -0.287 OA
ATOM      8  C   UNL d   1      46.184 -14.149  36.702  0.00  0.00     0.003 A 
ATOM      9  C   UNL d   1      45.699 -12.788  37.574  0.00  0.00     0.002 A 
ATOM     10  C   UNL d   1      46.644 -13.390  36.707  0.00  0.00     0.000 A 
ATOM     11  C   UNL d   1      46.404 -12.752  37.124  0.00  0.00     0.000 A 
ENDROOT
BRANCH   2  12
ATOM     12  N   UNL d   1      44.271 -12.868  38.482  0.00  0.00    -0.158 NA
BRANCH  12  13
ATOM     13  S   UNL d   1      44.595 -12.712  39.218  0.00  0.00     0.285 S 
ATOM     14  O   UNL d   1      43.981 -13.153  39.584  0.00  0.00    -0.198 OA
ATOM     15  O   UNL d   1      45.208 -12.272  38.875  0.00  0.00    -0.198 OA
BRANCH  13  16
ATOM     16  C   UNL d   1      44.920 -12.558  39.987  0.00  0.00     0.105 A 
ATOM     17  C   UNL d   1      44.464 -12.617  40.657  0.00  0.00     0.013 A 
ATOM     18  C   UNL d   1      44.776 -12.470  41.391  0.00  0.00     0.001 A 
ATOM     19  C   UNL d   1      44.306 -12.533  42.049  0.00  0.00     0.000 A 
ATOM     20  C   UNL d   1      45.595 -12.248  41.470  0.00  0.00     0.000 A 
ATOM     21  C   UNL d   1      44.629 -12.378  42.842  0.00  0.00     0.000 A 
ATOM     22  C   UNL d   1      45.433 -12.161  42.910  0.00  0.00     0.000 A 
ATOM     23  C   UNL d   1      45.923 -12.095  42.225  0.00  0.00     0.000 A 
ATOM     24  C   UNL d   1      46.030 -12.196  40.785  0.00  0.00     0.001 A 
ATOM     25  C   UNL d   1      45.714 -12.345  40.047  0.00  0.00     0.013 A 
ENDBRANCH  13  16
ENDBRANCH  12  13
ENDBRANCH   2  12
BRANCH   1  26
ATOM     26  C   UNL d   1      43.887 -15.572  37.636  0.00  0.00     0.110 C 
BRANCH  26  27
ATOM     27  C   UNL d   1      43.208 -15.593  37.167  0.00  0.00     0.303 C 
ATOM     28  O   UNL d   1      43.266 -15.689  36.349  0.00  0.00    -0.259 OA
BRANCH  27  29
ATOM     29  O   UNL d   1      42.493 -15.514  37.558  0.00  0.00    -0.273 OA
BRANCH  29  30
ATOM     30  C   UNL d   1      41.796 -15.542  37.116  0.00  0.00     0.103 C 
ATOM     31  C   UNL d   1      41.148 -15.148  37.370  0.00  0.00     0.027 C 
ATOM     32  C   UNL d   1      41.783 -15.978  36.419  0.00  0.00     0.027 C 
ENDBRANCH  29  30
ENDBRANCH  27  29
ENDBRANCH  26  27
BRANCH  26  33
ATOM     33  C   UNL d   1      44.113 -16.220  38.111  0.00  0.00     0.272 C 
ATOM     34  O   UNL d   1      44.124 -16.140  38.908  0.00  0.00    -0.282 OA
BRANCH  33  35
ATOM     35  C   UNL d   1      44.321 -16.928  37.757  0.00  0.00     0.456 C 
ATOM     36  F   UNL d   1      44.152 -17.307  38.492  0.00  0.00    -0.163 F 
ATOM     37  F   UNL d   1      44.477 -16.529  37.053  0.00  0.00    -0.163 F 
ATOM     38  F   UNL d   1      44.521 -17.642  37.429  0.00  0.00    -0.163 F 
ENDBRANCH  33  35
ENDBRANCH  26  33
ENDBRANCH   1  26
TORSDOF 9
ENDMDL
MODEL 2
REMARK VINA RESULT:      87.0      3.065      3.821
REMARK  9 active torsions:
REMARK  status: ('A' for Active; 'I' for Inactive)
REMARK    1  A    between atoms: N_6  and  S_1 
REMARK    2  A    between atoms: C_12  and  S_1 
REMARK    3  A    between atoms: C_2  and  C_3 
REMARK    4  A    between atoms: C_4  and  C_2 
REMARK    5  A    between atoms: C_5  and  C_2 
REMARK    6  A    between atoms: O_14  and  C_4 
REMARK    7  A    between atoms: C_9  and  C_5 
REMARK    8  A    between atoms: C_7  and  N_6 
REMARK    9  A    between atoms: C_29  and  O_14 
ROOT
ATOM      1  C   UNL d   1      43.703 -15.465  37.378  0.00  0.00     0.049 A 
ATOM      2  C   UNL d   1      44.882 -16.254  37.514  0.00  0.00     0.094 A 
ATOM      3  C   UNL d   1      44.166 -14.834  37.102  0.00  0.00     0.196 A 
ATOM      4  C   UNL d   1      44.059 -16.172  37.583  0.00  0.00     0.023 A 
ATOM      5  C   UNL d   1      44.994 -14.914  37.032  0.00  0.00     0.040 A 
ATOM      6  C   UNL d   1      45.351 -15.621  37.237  0.00  0.00     0.021 A 
ATOM      7  O   UNL d   1      43.806 -14.121  36.896  0.00  0.00    -0.287 OA
ATOM      8  C   UNL d   1      45.410 -14.261  36.755  0.00  0.00     0.003 A 
ATOM      9  C   UNL d   1      46.170 -15.710  37.172  0.00  0.00     0.002 A 
ATOM     10  C   UNL d   1      46.287 -14.382  36.693  0.00  0.00     0.000 A 
ATOM     11  C   UNL d   1      46.636 -15.072  36.894  0.00  0.00     0.000 A 
ENDROOT
BRANCH   2  12
ATOM     12  N   UNL d   1      45.220 -16.996  37.734  0.00  0.00    -0.158 NA
BRANCH  12  13
ATOM     13  S   UNL d   1      45.254 -17.210  38.524  0.00  0.00     0.285 S 
ATOM     14  O   UNL d   1      44.798 -17.896  38.360  0.00  0.00    -0.198 OA
ATOM     15  O   UNL d   1      45.705 -16.539  38.705  0.00  0.00    -0.198 OA
BRANCH  13  16
ATOM     16  C   UNL d   1      45.281 -17.444  39.340  0.00  0.00     0.105 A 
ATOM     17  C   UNL d   1      45.925 -17.833  39.646  0.00  0.00     0.013 A 
ATOM     18  C   UNL d   1      45.949 -18.056  40.425  0.00  0.00     0.001 A 
ATOM     19  C   UNL d   1      46.600 -18.444  40.714  0.00  0.00     0.000 A 
ATOM     20  C   UNL d   1      45.292 -17.883  40.940  0.00  0.00     0.000 A 
ATOM     21  C   UNL d   1      46.638 -18.689  41.548  0.00  0.00     0.000 A 
ATOM     22  C   UNL d   1      45.990 -18.514  42.045  0.00  0.00     0.000 A 
ATOM     23  C   UNL d   1      45.312 -18.110  41.745  0.00  0.00     0.000 A 
ATOM     24  C   UNL d   1      44.660 -17.492  40.609  0.00  0.00     0.001 A 
ATOM     25  C   UNL d   1      44.638 -17.269  39.824  0.00  0.00     0.013 A 
ENDBRANCH  13  16
ENDBRANCH  12  13
ENDBRANCH   2  12
BRANCH   1  26
ATOM     26  C   UNL d   1      42.875 -15.386  37.448  0.00  0.00     0.110 C 
BRANCH  26  27
ATOM     27  C   UNL d   1      42.417 -16.061  37.324  0.00  0.00     0.303 C 
ATOM     28  O   UNL d   1      42.288 -16.600  37.937  0.00  0.00    -0.259 OA
BRANCH  27  29
ATOM     29  O   UNL d   1      42.108 -16.158  36.572  0.00  0.00    -0.273 OA
BRANCH  29  30
ATOM     30  C   UNL d   1      41.616 -16.805  36.427  0.00  0.00     0.103 C 
ATOM     31  C   UNL d   1      40.826 -16.697  36.354  0.00  0.00     0.027 C 
ATOM     32  C   UNL d   1      41.951 -17.553  36.360  0.00  0.00     0.027 C 
ENDBRANCH  29  30
ENDBRANCH  27  29
ENDBRANCH  26  27
BRANCH  26  33
ATOM     33  C   UNL d   1      42.530 -14.649  37.637  0.00  0.00     0.272 C 
ATOM     34  O   UNL d   1      42.707 -14.298  38.334  0.00  0.00    -0.282 OA
BRANCH  33  35
ATOM     35  C   UNL d   1      42.016 -14.297  37.107  0.00  0.00     0.456 C 
ATOM     36  F   UNL d   1      42.164 -14.943  36.584  0.00  0.00    -0.163 F 
ATOM     37  F   UNL d   1      41.891 -13.680  37.638  0.00  0.00    -0.163 F 
ATOM     38  F   UNL d   1      41.510 -13.967  36.564  0.00  0.00    -0.163 F 
ENDBRANCH  33  35
ENDBRANCH  26  33
ENDBRANCH   1  26
TORSDOF 9
ENDMDL
