MODEL 1
REMARK VINA RESULT:     -10.2      0.000      0.000
REMARK  5 active torsions:
REMARK  status: ('A' for Active; 'I' for Inactive)
REMARK    1  A    between atoms: C_2  and  S_1 
REMARK    2  A    between atoms: N_3  and  S_1 
REMARK    3  A    between atoms: C_5  and  C_6 
REMARK       I    between atoms: N_10  and  C_5 
REMARK    4  A    between atoms: C_22  and  N_10 
REMARK    5  A    between atoms: C_21  and  C_22 
ROOT
ATOM      1  C   UNL d   1      52.334  33.237  53.133  0.00  0.00     0.104 A 
ATOM      2  C   UNL d   1      51.656  33.399  52.692  0.00  0.00     0.018 A 
ATOM      3  C   UNL d   1      51.380  34.175  52.630  0.00  0.00     0.059 A 
ATOM      4  C   UNL d   1      52.737  33.852  53.511  0.00  0.00     0.012 A 
ATOM      5  C   UNL d   1      51.782  34.787  53.007  0.00  0.00     0.005 A 
ATOM      6  C   UNL d   1      52.467  34.624  53.452  0.00  0.00     0.001 A 
ATOM      7  C   UNL d   1      53.417  33.699  53.954  0.00  0.00     0.001 C 
ENDROOT
BRANCH   3   8
ATOM      8  C   UNL d   1      50.698  34.337  52.187  0.00  0.00     0.279 C 
ATOM      9  N   UNL d   1      50.036  34.660  52.553  0.00  0.00    -0.206 NA
ATOM     10  O   UNL d   1      50.686  34.173  51.373  0.00  0.00    -0.265 OA
BRANCH   9  11
ATOM     11  C   UNL d   1      49.354  34.821  52.102  0.00  0.00     0.102 C 
BRANCH  11  12
ATOM     12  C   UNL d   1      48.741  35.283  52.435  0.00  0.00     0.021 A 
ATOM     13  C   UNL d   1      48.090  35.509  51.967  0.00  0.00     0.028 A 
ATOM     14  C   UNL d   1      47.486  35.963  52.291  0.00  0.00     0.119 A 
ATOM     15  O   UNL d   1      46.788  36.265  51.976  0.00  0.00    -0.300 OA
ATOM     16  C   UNL d   1      47.527  36.195  53.081  0.00  0.00     0.119 A 
ATOM     17  C   UNL d   1      46.399  36.683  52.572  0.00  0.00     0.304 A 
ATOM     18  O   UNL d   1      46.849  36.643  53.255  0.00  0.00    -0.300 OA
ATOM     19  C   UNL d   1      48.178  35.969  53.549  0.00  0.00     0.026 A 
ATOM     20  C   UNL d   1      48.782  35.514  53.223  0.00  0.00     0.004 A 
ENDBRANCH  11  12
ENDBRANCH   9  11
ENDBRANCH   3   8
BRANCH   1  21
ATOM     21  S   UNL d   1      52.620  32.453  53.200  0.00  0.00     0.271 S 
ATOM     22  O   UNL d   1      52.167  32.358  53.896  0.00  0.00    -0.200 OA
ATOM     23  O   UNL d   1      53.066  32.557  52.511  0.00  0.00    -0.200 OA
BRANCH  21  24
ATOM     24  N   UNL d   1      52.904  31.675  53.269  0.00  0.00    -0.229 N 
ATOM     25  C   UNL d   1      52.478  31.045  52.924  0.00  0.00     0.092 A 
ATOM     26  C   UNL d   1      52.759  30.272  52.992  0.00  0.00     0.020 A 
ATOM     27  C   UNL d   1      53.459  30.121  53.400  0.00  0.00     0.003 A 
ATOM     28  C   UNL d   1      53.881  30.747  53.742  0.00  0.00     0.020 A 
ATOM     29  C   UNL d   1      53.604  31.519  53.676  0.00  0.00     0.092 A 
ENDBRANCH  21  24
ENDBRANCH   1  21
TORSDOF 5
ENDMDL
MODEL 2
REMARK VINA RESULT:      -8.9      1.248      2.142
REMARK  5 active torsions:
REMARK  status: ('A' for Active; 'I' for Inactive)
REMARK    1  A    between atoms: C_2  and  S_1 
REMARK    2  A    between atoms: N_3  and  S_1 
REMARK    3  A    between atoms: C_5  and  C_6 
REMARK       I    between atoms: N_10  and  C_5 
REMARK    4  A    between atoms: C_22  and  N_10 
REMARK    5  A    between atoms: C_21  and  C_22 
ROOT
ATOM      1  C   UNL d   1      52.327  33.340  53.461  0.00  0.00     0.104 A 
ATOM      2  C   UNL d   1      51.805  33.979  53.464  0.00  0.00     0.018 A 
ATOM      3  C   UNL d   1      51.066  33.909  53.103  0.00  0.00     0.059 A 
ATOM      4  C   UNL d   1      52.109  32.631  53.097  0.00  0.00     0.012 A 
ATOM      5  C   UNL d   1      50.849  33.202  52.740  0.00  0.00     0.005 A 
ATOM      6  C   UNL d   1      51.376  32.557  52.738  0.00  0.00     0.001 A 
ATOM      7  C   UNL d   1      52.625  31.987  53.090  0.00  0.00     0.001 C 
ENDROOT
BRANCH   3   8
ATOM      8  C   UNL d   1      50.542  34.551  53.105  0.00  0.00     0.279 C 
ATOM      9  N   UNL d   1      49.869  34.537  52.631  0.00  0.00    -0.206 NA
ATOM     10  O   UNL d   1      50.697  35.210  53.588  0.00  0.00    -0.265 OA
BRANCH   9  11
ATOM     11  C   UNL d   1      49.347  35.186  52.639  0.00  0.00     0.102 C 
BRANCH  11  12
ATOM     12  C   UNL d   1      48.675  35.179  52.140  0.00  0.00     0.021 A 
ATOM     13  C   UNL d   1      47.965  35.531  52.394  0.00  0.00     0.028 A 
ATOM     14  C   UNL d   1      47.303  35.525  51.905  0.00  0.00     0.119 A 
ATOM     15  O   UNL d   1      46.541  35.821  51.999  0.00  0.00    -0.300 OA
ATOM     16  C   UNL d   1      47.345  35.170  51.163  0.00  0.00     0.119 A 
ATOM     17  C   UNL d   1      46.113  35.648  51.316  0.00  0.00     0.304 A 
ATOM     18  O   UNL d   1      46.603  35.247  50.797  0.00  0.00    -0.300 OA
ATOM     19  C   UNL d   1      48.056  34.817  50.909  0.00  0.00     0.026 A 
ATOM     20  C   UNL d   1      48.717  34.824  51.399  0.00  0.00     0.004 A 
ENDBRANCH  11  12
ENDBRANCH   9  11
ENDBRANCH   3   8
BRANCH   1  21
ATOM     21  S   UNL d   1      53.078  33.403  53.825  0.00  0.00     0.271 S 
ATOM     22  O   UNL d   1      53.368  33.786  53.140  0.00  0.00    -0.200 OA
ATOM     23  O   UNL d   1      52.783  33.024  54.499  0.00  0.00    -0.200 OA
BRANCH  21  24
ATOM     24  N   UNL d   1      53.825  33.467  54.185  0.00  0.00    -0.229 N 
ATOM     25  C   UNL d   1      53.886  33.745  54.969  0.00  0.00     0.092 A 
ATOM     26  C   UNL d   1      54.627  33.808  55.327  0.00  0.00     0.020 A 
ATOM     27  C   UNL d   1      55.307  33.596  54.911  0.00  0.00     0.003 A 
ATOM     28  C   UNL d   1      55.245  33.320  54.132  0.00  0.00     0.020 A 
ATOM     29  C   UNL d   1      54.507  33.256  53.772  0.00  0.00     0.092 A 
ENDBRANCH  21  24
ENDBRANCH   1  21
TORSDOF 5
ENDMDL
MODEL 3
REMARK VINA RESULT:      -8.7      1.976      5.912
REMARK  5 active torsions:
REMARK  status: ('A' for Active; 'I' for Inactive)
REMARK    1  A    between atoms: C_2  and  S_1 
REMARK    2  A    between atoms: N_3  and  S_1 
REMARK    3  A    between atoms: C_5  and  C_6 
REMARK       I    between atoms: N_10  and  C_5 
REMARK    4  A    between atoms: C_22  and  N_10 
REMARK    5  A    between atoms: C_21  and  C_22 
ROOT
ATOM      1  C   UNL d   1      52.391  34.213  53.477  0.00  0.00     0.104 A 
ATOM      2  C   UNL d   1      52.827  33.523  53.355  0.00  0.00     0.018 A 
ATOM      3  C   UNL d   1      53.561  33.429  53.723  0.00  0.00     0.059 A 
ATOM      4  C   UNL d   1      52.689  34.809  53.966  0.00  0.00     0.012 A 
ATOM      5  C   UNL d   1      53.857  34.024  54.210  0.00  0.00     0.005 A 
ATOM      6  C   UNL d   1      53.417  34.720  54.333  0.00  0.00     0.001 A 
ATOM      7  C   UNL d   1      52.259  35.502  54.093  0.00  0.00     0.001 C 
ENDROOT
BRANCH   3   8
ATOM      8  C   UNL d   1      53.999  32.736  53.601  0.00  0.00     0.279 C 
ATOM      9  N   UNL d   1      53.631  32.001  53.650  0.00  0.00    -0.206 NA
ATOM     10  O   UNL d   1      54.810  32.785  53.428  0.00  0.00    -0.265 OA
BRANCH   9  11
ATOM     11  C   UNL d   1      54.078  31.309  53.526  0.00  0.00     0.102 C 
BRANCH  11  12
ATOM     12  C   UNL d   1      53.719  30.563  53.645  0.00  0.00     0.021 A 
ATOM     13  C   UNL d   1      53.847  30.149  54.356  0.00  0.00     0.028 A 
ATOM     14  C   UNL d   1      53.496  29.414  54.475  0.00  0.00     0.119 A 
ATOM     15  O   UNL d   1      53.517  28.885  55.105  0.00  0.00    -0.300 OA
ATOM     16  C   UNL d   1      53.016  29.090  53.889  0.00  0.00     0.119 A 
ATOM     17  C   UNL d   1      53.051  28.233  54.906  0.00  0.00     0.304 A 
ATOM     18  O   UNL d   1      52.740  28.353  54.159  0.00  0.00    -0.300 OA
ATOM     19  C   UNL d   1      52.888  29.504  53.178  0.00  0.00     0.026 A 
ATOM     20  C   UNL d   1      53.241  30.239  53.059  0.00  0.00     0.004 A 
ENDBRANCH  11  12
ENDBRANCH   9  11
ENDBRANCH   3   8
BRANCH   1  21
ATOM     21  S   UNL d   1      51.647  34.316  53.108  0.00  0.00     0.271 S 
ATOM     22  O   UNL d   1      52.023  34.726  52.483  0.00  0.00    -0.200 OA
ATOM     23  O   UNL d   1      51.283  33.909  53.730  0.00  0.00    -0.200 OA
BRANCH  21  24
ATOM     24  N   UNL d   1      50.908  34.419  52.740  0.00  0.00    -0.229 N 
ATOM     25  C   UNL d   1      50.820  34.251  51.928  0.00  0.00     0.092 A 
ATOM     26  C   UNL d   1      50.088  34.353  51.562  0.00  0.00     0.020 A 
ATOM     27  C   UNL d   1      49.441  34.620  51.999  0.00  0.00     0.003 A 
ATOM     28  C   UNL d   1      49.529  34.787  52.807  0.00  0.00     0.020 A 
ATOM     29  C   UNL d   1      50.259  34.686  53.174  0.00  0.00     0.092 A 
ENDBRANCH  21  24
ENDBRANCH   1  21
TORSDOF 5
ENDMDL
MODEL 4
REMARK VINA RESULT:      -7.7      1.566      6.007
REMARK  5 active torsions:
REMARK  status: ('A' for Active; 'I' for Inactive)
REMARK    1  A    between atoms: C_2  and  S_1 
REMARK    2  A    between atoms: N_3  and  S_1 
REMARK    3  A    between atoms: C_5  and  C_6 
REMARK       I    between atoms: N_10  and  C_5 
REMARK    4  A    between atoms: C_22  and  N_10 
REMARK    5  A    between atoms: C_21  and  C_22 
ROOT
ATOM      1  C   UNL d   1      49.292  34.980  52.516  0.00  0.00     0.104 A 
ATOM      2  C   UNL d   1      50.023  34.900  52.891  0.00  0.00     0.018 A 
ATOM      3  C   UNL d   1      50.626  34.467  52.529  0.00  0.00     0.059 A 
ATOM      4  C   UNL d   1      49.165  34.626  51.780  0.00  0.00     0.012 A 
ATOM      5  C   UNL d   1      50.499  34.115  51.796  0.00  0.00     0.005 A 
ATOM      6  C   UNL d   1      49.762  34.195  51.417  0.00  0.00     0.001 A 
ATOM      7  C   UNL d   1      48.437  34.701  51.398  0.00  0.00     0.001 C 
ENDROOT
BRANCH   3   8
ATOM      8  C   UNL d   1      51.361  34.387  52.906  0.00  0.00     0.279 C 
ATOM      9  N   UNL d   1      51.715  33.647  52.968  0.00  0.00    -0.206 NA
ATOM     10  O   UNL d   1      51.738  35.057  53.220  0.00  0.00    -0.265 OA
BRANCH   9  11
ATOM     11  C   UNL d   1      52.452  33.575  53.348  0.00  0.00     0.102 C 
BRANCH  11  12
ATOM     12  C   UNL d   1      52.799  32.818  53.431  0.00  0.00     0.021 A 
ATOM     13  C   UNL d   1      52.527  32.183  52.964  0.00  0.00     0.028 A 
ATOM     14  C   UNL d   1      52.865  31.437  53.043  0.00  0.00     0.119 A 
ATOM     15  O   UNL d   1      52.719  30.719  52.670  0.00  0.00    -0.300 OA
ATOM     16  C   UNL d   1      53.474  31.320  53.586  0.00  0.00     0.119 A 
ATOM     17  C   UNL d   1      53.238  30.158  52.981  0.00  0.00     0.304 A 
ATOM     18  O   UNL d   1      53.706  30.522  53.546  0.00  0.00    -0.300 OA
ATOM     19  C   UNL d   1      53.746  31.954  54.052  0.00  0.00     0.026 A 
ATOM     20  C   UNL d   1      53.407  32.700  53.972  0.00  0.00     0.004 A 
ENDBRANCH  11  12
ENDBRANCH   9  11
ENDBRANCH   3   8
BRANCH   1  21
ATOM     21  S   UNL d   1      48.675  35.416  52.875  0.00  0.00     0.271 S 
ATOM     22  O   UNL d   1      48.531  34.773  53.389  0.00  0.00    -0.200 OA
ATOM     23  O   UNL d   1      48.826  36.049  52.363  0.00  0.00    -0.200 OA
BRANCH  21  24
ATOM     24  N   UNL d   1      48.062  35.849  53.233  0.00  0.00    -0.229 N 
ATOM     25  C   UNL d   1      48.027  35.912  54.065  0.00  0.00     0.092 A 
ATOM     26  C   UNL d   1      47.419  36.341  54.421  0.00  0.00     0.020 A 
ATOM     27  C   UNL d   1      46.846  36.709  53.956  0.00  0.00     0.003 A 
ATOM     28  C   UNL d   1      46.882  36.647  53.130  0.00  0.00     0.020 A 
ATOM     29  C   UNL d   1      47.487  36.219  52.771  0.00  0.00     0.092 A 
ENDBRANCH  21  24
ENDBRANCH   1  21
TORSDOF 5
ENDMDL
