MODEL 1
REMARK VINA RESULT:      -9.1      0.000      0.000
REMARK  1 active torsions:
REMARK  status: ('A' for Active; 'I' for Inactive)
REMARK    1  A    between atoms: C_11  and  N_5 
ROOT
ATOM      1  C   UNL d   1     -48.409  13.193  22.373  0.00  0.00     0.130 A 
ATOM      2  C   UNL d   1     -48.347  13.990  22.581  0.00  0.00     0.157 A 
ATOM      3  N   UNL d   1     -47.657  14.276  22.913  0.00  0.00    -0.210 NA
ATOM      4  C   UNL d   1     -47.775  12.681  22.499  0.00  0.00     0.272 A 
ATOM      5  N   UNL d   1     -47.080  12.966  22.833  0.00  0.00    -0.259 N 
ATOM      6  C   UNL d   1     -49.107  12.910  22.038  0.00  0.00     0.204 A 
ATOM      7  N   UNL d   1     -48.981  14.494  22.453  0.00  0.00    -0.289 N 
ATOM      8  C   UNL d   1     -47.016  13.762  23.042  0.00  0.00     0.152 A 
ATOM      9  C   UNL d   1     -49.733  13.413  21.913  0.00  0.00     0.055 A 
ATOM     10  C   UNL d   1     -49.676  14.206  22.118  0.00  0.00     0.069 A 
ATOM     11  O   UNL d   1     -47.840  11.889  22.291  0.00  0.00    -0.266 OA
ATOM     12  O   UNL d   1     -49.164  12.116  21.832  0.00  0.00    -0.286 OA
ATOM     13  C   UNL d   1     -48.924  15.288  22.658  0.00  0.00     0.101 C 
ATOM     14  C   UNL d   1     -46.321  14.050  23.377  0.00  0.00     0.041 C 
ATOM     15  C   UNL d   1     -50.432  13.125  21.576  0.00  0.00     0.005 A 
ATOM     16  C   UNL d   1     -50.317  14.719  21.989  0.00  0.00     0.018 A 
ATOM     17  C   UNL d   1     -51.064  13.637  21.450  0.00  0.00     0.000 A 
ATOM     18  C   UNL d   1     -51.007  14.429  21.656  0.00  0.00     0.002 A 
ENDROOT
BRANCH   5  19
ATOM     19  C   UNL d   1     -46.448  12.450  22.958  0.00  0.00     0.068 A 
ATOM     20  C   UNL d   1     -46.473  11.893  23.572  0.00  0.00     0.020 A 
ATOM     21  C   UNL d   1     -45.840  11.377  23.697  0.00  0.00     0.031 A 
ATOM     22  C   UNL d   1     -45.174  11.409  23.211  0.00  0.00     0.140 A 
ATOM     23  C   UNL d   1     -45.142  11.966  22.591  0.00  0.00     0.031 A 
ATOM     24  F   UNL d   1     -44.538  10.892  23.335  0.00  0.00    -0.204 F 
ATOM     25  C   UNL d   1     -45.783  12.485  22.469  0.00  0.00     0.020 A 
ENDBRANCH   5  19
TORSDOF 1
ENDMDL
MODEL 2
REMARK VINA RESULT:      -8.8      1.543      2.085
REMARK  1 active torsions:
REMARK  status: ('A' for Active; 'I' for Inactive)
REMARK    1  A    between atoms: C_11  and  N_5 
ROOT
ATOM      1  C   UNL d   1     -48.452  14.063  23.040  0.00  0.00     0.130 A 
ATOM      2  C   UNL d   1     -48.962  13.438  23.221  0.00  0.00     0.157 A 
ATOM      3  N   UNL d   1     -48.693  12.667  23.192  0.00  0.00    -0.210 NA
ATOM      4  C   UNL d   1     -47.670  13.912  22.829  0.00  0.00     0.272 A 
ATOM      5  N   UNL d   1     -47.397  13.137  22.799  0.00  0.00    -0.259 N 
ATOM      6  C   UNL d   1     -48.728  14.840  23.070  0.00  0.00     0.204 A 
ATOM      7  N   UNL d   1     -49.739  13.595  23.430  0.00  0.00    -0.289 N 
ATOM      8  C   UNL d   1     -47.905  12.511  22.980  0.00  0.00     0.152 A 
ATOM      9  C   UNL d   1     -49.499  14.991  23.277  0.00  0.00     0.055 A 
ATOM     10  C   UNL d   1     -50.009  14.373  23.458  0.00  0.00     0.069 A 
ATOM     11  O   UNL d   1     -47.166  14.535  22.649  0.00  0.00    -0.266 OA
ATOM     12  O   UNL d   1     -48.218  15.458  22.889  0.00  0.00    -0.286 OA
ATOM     13  C   UNL d   1     -50.250  12.977  23.611  0.00  0.00     0.101 C 
ATOM     14  C   UNL d   1     -47.634  11.734  22.951  0.00  0.00     0.041 C 
ATOM     15  C   UNL d   1     -49.772  15.771  23.307  0.00  0.00     0.005 A 
ATOM     16  C   UNL d   1     -50.798  14.529  23.670  0.00  0.00     0.018 A 
ATOM     17  C   UNL d   1     -50.554  15.921  23.517  0.00  0.00     0.000 A 
ATOM     18  C   UNL d   1     -51.064  15.304  23.698  0.00  0.00     0.002 A 
ENDROOT
BRANCH   5  19
ATOM     19  C   UNL d   1     -46.613  12.990  22.588  0.00  0.00     0.068 A 
ATOM     20  C   UNL d   1     -46.367  13.067  21.799  0.00  0.00     0.020 A 
ATOM     21  C   UNL d   1     -45.582  12.920  21.588  0.00  0.00     0.031 A 
ATOM     22  C   UNL d   1     -45.032  12.693  22.159  0.00  0.00     0.140 A 
ATOM     23  C   UNL d   1     -45.272  12.613  22.954  0.00  0.00     0.031 A 
ATOM     24  F   UNL d   1     -44.244  12.545  21.949  0.00  0.00    -0.204 F 
ATOM     25  C   UNL d   1     -46.065  12.763  23.163  0.00  0.00     0.020 A 
ENDBRANCH   5  19
TORSDOF 1
ENDMDL
MODEL 3
REMARK VINA RESULT:      -8.7      1.853      4.269
REMARK  1 active torsions:
REMARK  status: ('A' for Active; 'I' for Inactive)
REMARK    1  A    between atoms: C_11  and  N_5 
ROOT
ATOM      1  C   UNL d   1     -47.375  12.759  23.124  0.00  0.00     0.130 A 
ATOM      2  C   UNL d   1     -46.685  13.147  22.889  0.00  0.00     0.157 A 
ATOM      3  N   UNL d   1     -46.716  13.922  22.630  0.00  0.00    -0.210 NA
ATOM      4  C   UNL d   1     -48.100  13.151  23.099  0.00  0.00     0.272 A 
ATOM      5  N   UNL d   1     -48.134  13.930  22.839  0.00  0.00    -0.259 N 
ATOM      6  C   UNL d   1     -47.338  11.977  23.384  0.00  0.00     0.204 A 
ATOM      7  N   UNL d   1     -45.967  12.751  22.916  0.00  0.00    -0.289 N 
ATOM      8  C   UNL d   1     -47.445  14.320  22.604  0.00  0.00     0.152 A 
ATOM      9  C   UNL d   1     -46.625  11.589  23.410  0.00  0.00     0.055 A 
ATOM     10  C   UNL d   1     -45.936  11.970  23.177  0.00  0.00     0.069 A 
ATOM     11  O   UNL d   1     -48.785  12.763  23.333  0.00  0.00    -0.266 OA
ATOM     12  O   UNL d   1     -48.028  11.595  23.617  0.00  0.00    -0.286 OA
ATOM     13  C   UNL d   1     -45.277  13.133  22.683  0.00  0.00     0.101 C 
ATOM     14  C   UNL d   1     -47.477  15.101  22.343  0.00  0.00     0.041 C 
ATOM     15  C   UNL d   1     -46.592  10.805  23.671  0.00  0.00     0.005 A 
ATOM     16  C   UNL d   1     -45.207  11.572  23.204  0.00  0.00     0.018 A 
ATOM     17  C   UNL d   1     -45.868  10.414  23.696  0.00  0.00     0.000 A 
ATOM     18  C   UNL d   1     -45.179  10.795  23.463  0.00  0.00     0.002 A 
ENDROOT
BRANCH   5  19
ATOM     19  C   UNL d   1     -48.862  14.319  22.816  0.00  0.00     0.068 A 
ATOM     20  C   UNL d   1     -49.026  14.939  23.342  0.00  0.00     0.020 A 
ATOM     21  C   UNL d   1     -49.754  15.329  23.318  0.00  0.00     0.031 A 
ATOM     22  C   UNL d   1     -50.328  15.105  22.770  0.00  0.00     0.140 A 
ATOM     23  C   UNL d   1     -50.171  14.483  22.238  0.00  0.00     0.031 A 
ATOM     24  F   UNL d   1     -51.059  15.495  22.745  0.00  0.00    -0.204 F 
ATOM     25  C   UNL d   1     -49.435  14.093  22.265  0.00  0.00     0.020 A 
ENDBRANCH   5  19
TORSDOF 1
ENDMDL
MODEL 4
REMARK VINA RESULT:      -7.3      8.653      9.258
REMARK  1 active torsions:
REMARK  status: ('A' for Active; 'I' for Inactive)
REMARK    1  A    between atoms: C_11  and  N_5 
ROOT
ATOM      1  C   UNL d   1     -39.862  14.910  19.280  0.00  0.00     0.130 A 
ATOM      2  C   UNL d   1     -39.381  14.475  18.768  0.00  0.00     0.157 A 
ATOM      3  N   UNL d   1     -38.780  14.007  19.065  0.00  0.00    -0.210 NA
ATOM      4  C   UNL d   1     -39.738  14.875  20.094  0.00  0.00     0.272 A 
ATOM      5  N   UNL d   1     -39.134  14.406  20.396  0.00  0.00    -0.259 N 
ATOM      6  C   UNL d   1     -40.467  15.380  18.975  0.00  0.00     0.204 A 
ATOM      7  N   UNL d   1     -39.510  14.513  17.958  0.00  0.00    -0.289 N 
ATOM      8  C   UNL d   1     -38.652  13.970  19.886  0.00  0.00     0.152 A 
ATOM      9  C   UNL d   1     -40.591  15.415  18.172  0.00  0.00     0.055 A 
ATOM     10  C   UNL d   1     -40.116  14.985  17.659  0.00  0.00     0.069 A 
ATOM     11  O   UNL d   1     -40.217  15.308  20.601  0.00  0.00    -0.266 OA
ATOM     12  O   UNL d   1     -40.943  15.811  19.488  0.00  0.00    -0.286 OA
ATOM     13  C   UNL d   1     -39.034  14.082  17.445  0.00  0.00     0.101 C 
ATOM     14  C   UNL d   1     -38.047  13.499  20.185  0.00  0.00     0.041 C 
ATOM     15  C   UNL d   1     -41.199  15.888  17.870  0.00  0.00     0.005 A 
ATOM     16  C   UNL d   1     -40.244  15.022  16.839  0.00  0.00     0.018 A 
ATOM     17  C   UNL d   1     -41.322  15.922  17.057  0.00  0.00     0.000 A 
ATOM     18  C   UNL d   1     -40.847  15.491  16.544  0.00  0.00     0.002 A 
ENDROOT
BRANCH   5  19
ATOM     19  C   UNL d   1     -39.013  14.374  21.212  0.00  0.00     0.068 A 
ATOM     20  C   UNL d   1     -39.387  13.792  21.671  0.00  0.00     0.020 A 
ATOM     21  C   UNL d   1     -39.266  13.760  22.488  0.00  0.00     0.031 A 
ATOM     22  C   UNL d   1     -38.771  14.307  22.857  0.00  0.00     0.140 A 
ATOM     23  C   UNL d   1     -38.392  14.894  22.402  0.00  0.00     0.031 A 
ATOM     24  F   UNL d   1     -38.648  14.276  23.676  0.00  0.00    -0.204 F 
ATOM     25  C   UNL d   1     -38.517  14.923  21.579  0.00  0.00     0.020 A 
ENDBRANCH   5  19
TORSDOF 1
ENDMDL
MODEL 5
REMARK VINA RESULT:      -7.2      8.614     10.139
REMARK  1 active torsions:
REMARK  status: ('A' for Active; 'I' for Inactive)
REMARK    1  A    between atoms: C_11  and  N_5 
ROOT
ATOM      1  C   UNL d   1     -39.173  15.082  19.403  0.00  0.00     0.130 A 
ATOM      2  C   UNL d   1     -39.950  15.362  19.417  0.00  0.00     0.157 A 
ATOM      3  N   UNL d   1     -40.399  15.362  18.734  0.00  0.00    -0.210 NA
ATOM      4  C   UNL d   1     -38.846  14.801  18.701  0.00  0.00     0.272 A 
ATOM      5  N   UNL d   1     -39.295  14.800  18.013  0.00  0.00    -0.259 N 
ATOM      6  C   UNL d   1     -38.724  15.084  20.095  0.00  0.00     0.204 A 
ATOM      7  N   UNL d   1     -40.270  15.640  20.119  0.00  0.00    -0.289 N 
ATOM      8  C   UNL d   1     -40.073  15.079  18.024  0.00  0.00     0.152 A 
ATOM      9  C   UNL d   1     -39.045  15.360  20.789  0.00  0.00     0.055 A 
ATOM     10  C   UNL d   1     -39.817  15.639  20.807  0.00  0.00     0.069 A 
ATOM     11  O   UNL d   1     -38.073  14.523  18.690  0.00  0.00    -0.266 OA
ATOM     12  O   UNL d   1     -37.951  14.805  20.077  0.00  0.00    -0.286 OA
ATOM     13  C   UNL d   1     -41.043  15.919  20.138  0.00  0.00     0.101 C 
ATOM     14  C   UNL d   1     -40.525  15.079  17.336  0.00  0.00     0.041 C 
ATOM     15  C   UNL d   1     -38.591  15.361  21.481  0.00  0.00     0.005 A 
ATOM     16  C   UNL d   1     -40.143  15.922  21.518  0.00  0.00     0.018 A 
ATOM     17  C   UNL d   1     -38.918  15.641  22.182  0.00  0.00     0.000 A 
ATOM     18  C   UNL d   1     -39.690  15.921  22.201  0.00  0.00     0.002 A 
ENDROOT
BRANCH   5  19
ATOM     19  C   UNL d   1     -38.964  14.518  17.311  0.00  0.00     0.068 A 
ATOM     20  C   UNL d   1     -38.961  13.705  17.143  0.00  0.00     0.020 A 
ATOM     21  C   UNL d   1     -38.629  13.423  16.441  0.00  0.00     0.031 A 
ATOM     22  C   UNL d   1     -38.297  13.947  15.897  0.00  0.00     0.140 A 
ATOM     23  C   UNL d   1     -38.297  14.765  16.059  0.00  0.00     0.031 A 
ATOM     24  F   UNL d   1     -37.964  13.665  15.192  0.00  0.00    -0.204 F 
ATOM     25  C   UNL d   1     -38.632  15.046  16.769  0.00  0.00     0.020 A 
ENDBRANCH   5  19
TORSDOF 1
ENDMDL
MODEL 6
REMARK VINA RESULT:      -6.8      8.330      9.426
REMARK  1 active torsions:
REMARK  status: ('A' for Active; 'I' for Inactive)
REMARK    1  A    between atoms: C_11  and  N_5 
ROOT
ATOM      1  C   UNL d   1     -39.426  14.698  19.184  0.00  0.00     0.130 A 
ATOM      2  C   UNL d   1     -40.076  15.187  19.040  0.00  0.00     0.157 A 
ATOM      3  N   UNL d   1     -40.502  15.500  19.663  0.00  0.00    -0.210 NA
ATOM      4  C   UNL d   1     -39.202  14.524  19.959  0.00  0.00     0.272 A 
ATOM      5  N   UNL d   1     -39.629  14.838  20.587  0.00  0.00    -0.259 N 
ATOM      6  C   UNL d   1     -38.999  14.385  18.552  0.00  0.00     0.204 A 
ATOM      7  N   UNL d   1     -40.293  15.357  18.267  0.00  0.00    -0.289 N 
ATOM      8  C   UNL d   1     -40.279  15.326  20.445  0.00  0.00     0.152 A 
ATOM      9  C   UNL d   1     -39.218  14.556  17.788  0.00  0.00     0.055 A 
ATOM     10  C   UNL d   1     -39.863  15.040  17.639  0.00  0.00     0.069 A 
ATOM     11  O   UNL d   1     -38.555  14.038  20.099  0.00  0.00    -0.266 OA
ATOM     12  O   UNL d   1     -38.353  13.899  18.701  0.00  0.00    -0.286 OA
ATOM     13  C   UNL d   1     -40.939  15.842  18.118  0.00  0.00     0.101 C 
ATOM     14  C   UNL d   1     -40.708  15.642  21.073  0.00  0.00     0.041 C 
ATOM     15  C   UNL d   1     -38.787  14.239  17.156  0.00  0.00     0.005 A 
ATOM     16  C   UNL d   1     -40.086  15.214  16.857  0.00  0.00     0.018 A 
ATOM     17  C   UNL d   1     -39.011  14.414  16.383  0.00  0.00     0.000 A 
ATOM     18  C   UNL d   1     -39.657  14.899  16.235  0.00  0.00     0.002 A 
ENDROOT
BRANCH   5  19
ATOM     19  C   UNL d   1     -39.402  14.661  21.361  0.00  0.00     0.068 A 
ATOM     20  C   UNL d   1     -39.662  13.963  21.728  0.00  0.00     0.020 A 
ATOM     21  C   UNL d   1     -39.435  13.786  22.502  0.00  0.00     0.031 A 
ATOM     22  C   UNL d   1     -38.946  14.302  22.921  0.00  0.00     0.140 A 
ATOM     23  C   UNL d   1     -38.680  15.004  22.559  0.00  0.00     0.031 A 
ATOM     24  F   UNL d   1     -38.717  14.126  23.698  0.00  0.00    -0.204 F 
ATOM     25  C   UNL d   1     -38.912  15.179  21.777  0.00  0.00     0.020 A 
ENDBRANCH   5  19
TORSDOF 1
ENDMDL
