MODEL 1
REMARK VINA RESULT:      -2.1      0.000      0.000
REMARK  10 active torsions:
REMARK  status: ('A' for Active; 'I' for Inactive)
REMARK    1  A    between atoms: P_2  and  C_1 
REMARK    2  A    between atoms: N_3  and  C_1 
REMARK    3  A    between atoms: C_4  and  C_1 
REMARK    4  A    between atoms: O_9  and  P_2 
REMARK    5  A    between atoms: O_10  and  P_2 
REMARK       I    between atoms: C_5  and  N_3 
REMARK    6  A    between atoms: C_8  and  C_5 
REMARK    7  A    between atoms: C_16  and  O_9 
REMARK    8  A    between atoms: C_15  and  O_10 
REMARK    9  A    between atoms: C_18  and  C_15 
REMARK   10  A    between atoms: C_17  and  C_16 
ROOT
ATOM      1  C   UNL d   1      58.975  -0.677  29.502  0.00  0.00     0.186 C 
ENDROOT
BRANCH   1   2
ATOM      2  P   UNL d   1      59.778  -0.913  29.502  0.00  0.00     0.393 P 
ATOM      3  O   UNL d   1      60.563  -1.164  29.498  0.00  0.00    -0.251 OA
BRANCH   2   4
ATOM      4  O   UNL d   1      59.530  -1.685  29.352  0.00  0.00    -0.263 OA
BRANCH   4   5
ATOM      5  C   UNL d   1      59.952  -2.320  29.679  0.00  0.00     0.126 C 
BRANCH   5   6
ATOM      6  C   UNL d   1      60.099  -3.014  29.234  0.00  0.00     0.027 C 
ATOM      7  C   UNL d   1      60.651  -3.703  29.372  0.00  0.00     0.002 C 
ENDBRANCH   5   6
ENDBRANCH   4   5
ENDBRANCH   2   4
BRANCH   2   8
ATOM      8  O   UNL d   1      60.041  -0.159  29.650  0.00  0.00    -0.263 OA
BRANCH   8   9
ATOM      9  C   UNL d   1      60.828  -0.038  29.843  0.00  0.00     0.126 C 
BRANCH   9  10
ATOM     10  C   UNL d   1      61.067   0.682  30.183  0.00  0.00     0.027 C 
ATOM     11  C   UNL d   1      61.133   0.585  30.953  0.00  0.00     0.002 C 
ENDBRANCH   9  10
ENDBRANCH   8   9
ENDBRANCH   2   8
ENDBRANCH   1   2
BRANCH   1  12
ATOM     12  N   UNL d   1      58.630  -0.451  30.229  0.00  0.00    -0.199 NA
ATOM     13  C   UNL d   1      57.842  -0.687  30.382  0.00  0.00     0.279 C 
ATOM     14  O   UNL d   1      57.426  -1.119  29.842  0.00  0.00    -0.265 OA
BRANCH  13  15
ATOM     15  C   UNL d   1      57.470  -0.490  31.073  0.00  0.00     0.058 A 
ATOM     16  C   UNL d   1      57.484   0.294  31.331  0.00  0.00     0.005 A 
ATOM     17  C   UNL d   1      57.106   0.489  32.033  0.00  0.00     0.000 A 
ATOM     18  C   UNL d   1      56.712  -0.101  32.476  0.00  0.00     0.000 A 
ATOM     19  C   UNL d   1      56.698  -0.872  32.221  0.00  0.00     0.000 A 
ATOM     20  C   UNL d   1      57.080  -1.077  31.511  0.00  0.00     0.005 A 
ENDBRANCH  13  15
ENDBRANCH   1  12
BRANCH   1  21
ATOM     21  C   UNL d   1      58.542  -0.668  28.813  0.00  0.00     0.140 C 
ATOM     22 CL   UNL d   1      58.422   0.033  28.526  0.00  0.00    -0.068 Cl
ATOM     23 CL   UNL d   1      58.252  -1.413  28.456  0.00  0.00    -0.068 Cl
ENDBRANCH   1  21
TORSDOF 10
ENDMDL
MODEL 2
REMARK VINA RESULT:      -2.0      1.242      3.271
REMARK  10 active torsions:
REMARK  status: ('A' for Active; 'I' for Inactive)
REMARK    1  A    between atoms: P_2  and  C_1 
REMARK    2  A    between atoms: N_3  and  C_1 
REMARK    3  A    between atoms: C_4  and  C_1 
REMARK    4  A    between atoms: O_9  and  P_2 
REMARK    5  A    between atoms: O_10  and  P_2 
REMARK       I    between atoms: C_5  and  N_3 
REMARK    6  A    between atoms: C_8  and  C_5 
REMARK    7  A    between atoms: C_16  and  O_9 
REMARK    8  A    between atoms: C_15  and  O_10 
REMARK    9  A    between atoms: C_18  and  C_15 
REMARK   10  A    between atoms: C_17  and  C_16 
ROOT
ATOM      1  C   UNL d   1      58.788  -0.053  29.610  0.00  0.00     0.186 C 
ENDROOT
BRANCH   1   2
ATOM      2  P   UNL d   1      58.755   0.287  30.374  0.00  0.00     0.393 P 
ATOM      3  O   UNL d   1      58.703   0.620  31.127  0.00  0.00    -0.251 OA
BRANCH   2   4
ATOM      4  O   UNL d   1      57.940   0.162  30.373  0.00  0.00    -0.263 OA
BRANCH   4   5
ATOM      5  C   UNL d   1      57.529   0.135  31.093  0.00  0.00     0.126 C 
BRANCH   5   6
ATOM      6  C   UNL d   1      56.898   0.661  31.249  0.00  0.00     0.027 C 
ATOM      7  C   UNL d   1      56.187   0.595  31.786  0.00  0.00     0.002 C 
ENDBRANCH   5   6
ENDBRANCH   4   5
ENDBRANCH   2   4
BRANCH   2   8
ATOM      8  O   UNL d   1      59.557   0.419  30.394  0.00  0.00    -0.263 OA
BRANCH   8   9
ATOM      9  C   UNL d   1      59.971   0.273  31.086  0.00  0.00     0.126 C 
BRANCH   9  10
ATOM     10  C   UNL d   1      60.696   0.655  31.225  0.00  0.00     0.027 C 
ATOM     11  C   UNL d   1      61.133   0.203  31.684  0.00  0.00     0.002 C 
ENDBRANCH   9  10
ENDBRANCH   8   9
ENDBRANCH   2   8
ENDBRANCH   1   2
BRANCH   1  12
ATOM     12  N   UNL d   1      58.994  -0.861  29.547  0.00  0.00    -0.199 NA
ATOM     13  C   UNL d   1      58.579  -1.331  28.994  0.00  0.00     0.279 C 
ATOM     14  O   UNL d   1      57.997  -1.014  28.535  0.00  0.00    -0.265 OA
BRANCH  13  15
ATOM     15  C   UNL d   1      58.746  -2.118  28.901  0.00  0.00     0.058 A 
ATOM     16  C   UNL d   1      59.494  -2.400  29.107  0.00  0.00     0.005 A 
ATOM     17  C   UNL d   1      59.659  -3.198  29.010  0.00  0.00     0.000 A 
ATOM     18  C   UNL d   1      59.076  -3.714  28.707  0.00  0.00     0.000 A 
ATOM     19  C   UNL d   1      58.340  -3.436  28.504  0.00  0.00     0.000 A 
ATOM     20  C   UNL d   1      58.165  -2.628  28.599  0.00  0.00     0.005 A 
ENDBRANCH  13  15
ENDBRANCH   1  12
BRANCH   1  21
ATOM     21  C   UNL d   1      58.624   0.390  28.948  0.00  0.00     0.140 C 
ATOM     22 CL   UNL d   1      59.235   0.540  28.510  0.00  0.00    -0.068 Cl
ATOM     23 CL   UNL d   1      57.807   0.657  28.779  0.00  0.00    -0.068 Cl
ENDBRANCH   1  21
TORSDOF 10
ENDMDL
MODEL 3
REMARK VINA RESULT:      -1.6      1.000      1.216
REMARK  10 active torsions:
REMARK  status: ('A' for Active; 'I' for Inactive)
REMARK    1  A    between atoms: P_2  and  C_1 
REMARK    2  A    between atoms: N_3  and  C_1 
REMARK    3  A    between atoms: C_4  and  C_1 
REMARK    4  A    between atoms: O_9  and  P_2 
REMARK    5  A    between atoms: O_10  and  P_2 
REMARK       I    between atoms: C_5  and  N_3 
REMARK    6  A    between atoms: C_8  and  C_5 
REMARK    7  A    between atoms: C_16  and  O_9 
REMARK    8  A    between atoms: C_15  and  O_10 
REMARK    9  A    between atoms: C_18  and  C_15 
REMARK   10  A    between atoms: C_17  and  C_16 
ROOT
ATOM      1  C   UNL d   1      58.444   0.121  30.234  0.00  0.00     0.186 C 
ENDROOT
BRANCH   1   2
ATOM      2  P   UNL d   1      59.200  -0.233  30.181  0.00  0.00     0.393 P 
ATOM      3  O   UNL d   1      59.938  -0.596  30.117  0.00  0.00    -0.251 OA
BRANCH   2   4
ATOM      4  O   UNL d   1      58.871  -0.817  29.702  0.00  0.00    -0.263 OA
BRANCH   4   5
ATOM      5  C   UNL d   1      59.368  -1.345  29.299  0.00  0.00     0.126 C 
BRANCH   5   6
ATOM      6  C   UNL d   1      59.058  -2.013  28.904  0.00  0.00     0.027 C 
ATOM      7  C   UNL d   1      59.327  -2.865  28.873  0.00  0.00     0.002 C 
ENDBRANCH   5   6
ENDBRANCH   4   5
ENDBRANCH   2   4
BRANCH   2   8
ATOM      8  O   UNL d   1      59.543   0.334  30.651  0.00  0.00    -0.263 OA
BRANCH   8   9
ATOM      9  C   UNL d   1      60.202   0.141  31.098  0.00  0.00     0.126 C 
BRANCH   9  10
ATOM     10  C   UNL d   1      60.830   0.682  31.169  0.00  0.00     0.027 C 
ATOM     11  C   UNL d   1      61.133   0.620  31.884  0.00  0.00     0.002 C 
ENDBRANCH   9  10
ENDBRANCH   8   9
ENDBRANCH   2   8
ENDBRANCH   1   2
BRANCH   1  12
ATOM     12  N   UNL d   1      58.064   0.129  30.979  0.00  0.00    -0.199 NA
ATOM     13  C   UNL d   1      57.333  -0.270  31.052  0.00  0.00     0.279 C 
ATOM     14  O   UNL d   1      57.003  -0.651  30.422  0.00  0.00    -0.265 OA
BRANCH  13  15
ATOM     15  C   UNL d   1      56.931  -0.288  31.755  0.00  0.00     0.058 A 
ATOM     16  C   UNL d   1      56.809   0.416  32.169  0.00  0.00     0.005 A 
ATOM     17  C   UNL d   1      56.401   0.393  32.881  0.00  0.00     0.000 A 
ATOM     18  C   UNL d   1      56.115  -0.334  33.178  0.00  0.00     0.000 A 
ATOM     19  C   UNL d   1      56.236  -1.026  32.770  0.00  0.00     0.000 A 
ATOM     20  C   UNL d   1      56.648  -1.011  32.048  0.00  0.00     0.005 A 
ENDBRANCH  13  15
ENDBRANCH   1  12
BRANCH   1  21
ATOM     21  C   UNL d   1      58.089   0.449  29.580  0.00  0.00     0.140 C 
ATOM     22 CL   UNL d   1      58.553   0.527  28.975  0.00  0.00    -0.068 Cl
ATOM     23 CL   UNL d   1      57.244   0.682  29.599  0.00  0.00    -0.068 Cl
ENDBRANCH   1  21
TORSDOF 10
ENDMDL
MODEL 4
REMARK VINA RESULT:      -1.4      3.227      5.266
REMARK  10 active torsions:
REMARK  status: ('A' for Active; 'I' for Inactive)
REMARK    1  A    between atoms: P_2  and  C_1 
REMARK    2  A    between atoms: N_3  and  C_1 
REMARK    3  A    between atoms: C_4  and  C_1 
REMARK    4  A    between atoms: O_9  and  P_2 
REMARK    5  A    between atoms: O_10  and  P_2 
REMARK       I    between atoms: C_5  and  N_3 
REMARK    6  A    between atoms: C_8  and  C_5 
REMARK    7  A    between atoms: C_16  and  O_9 
REMARK    8  A    between atoms: C_15  and  O_10 
REMARK    9  A    between atoms: C_18  and  C_15 
REMARK   10  A    between atoms: C_17  and  C_16 
ROOT
ATOM      1  C   UNL d   1      56.075  -0.440  33.135  0.00  0.00     0.186 C 
ENDROOT
BRANCH   1   2
ATOM      2  P   UNL d   1      55.881   0.038  33.793  0.00  0.00     0.393 P 
ATOM      3  O   UNL d   1      55.671   0.511  34.436  0.00  0.00    -0.251 OA
BRANCH   2   4
ATOM      4  O   UNL d   1      55.108   0.079  33.510  0.00  0.00    -0.263 OA
BRANCH   4   5
ATOM      5  C   UNL d   1      54.605   0.681  33.779  0.00  0.00     0.126 C 
BRANCH   5   6
ATOM      6  C   UNL d   1      53.774   0.615  33.704  0.00  0.00     0.027 C 
ATOM      7  C   UNL d   1      53.118   0.626  34.311  0.00  0.00     0.002 C 
ENDBRANCH   5   6
ENDBRANCH   4   5
ENDBRANCH   2   4
BRANCH   2   8
ATOM      8  O   UNL d   1      56.637   0.010  34.089  0.00  0.00    -0.263 OA
BRANCH   8   9
ATOM      9  C   UNL d   1      56.827   0.454  34.751  0.00  0.00     0.126 C 
BRANCH   9  10
ATOM     10  C   UNL d   1      57.619   0.662  34.898  0.00  0.00     0.027 C 
ATOM     11  C   UNL d   1      57.735   0.675  35.668  0.00  0.00     0.002 C 
ENDBRANCH   9  10
ENDBRANCH   8   9
ENDBRANCH   2   8
ENDBRANCH   1   2
BRANCH   1  12
ATOM     12  N   UNL d   1      56.476  -0.084  32.493  0.00  0.00    -0.199 NA
ATOM     13  C   UNL d   1      57.012  -0.552  32.055  0.00  0.00     0.279 C 
ATOM     14  O   UNL d   1      57.140  -1.325  32.245  0.00  0.00    -0.265 OA
BRANCH  13  15
ATOM     15  C   UNL d   1      57.420  -0.247  31.426  0.00  0.00     0.058 A 
ATOM     16  C   UNL d   1      57.947   0.376  31.549  0.00  0.00     0.005 A 
ATOM     17  C   UNL d   1      58.359   0.682  30.909  0.00  0.00     0.000 A 
ATOM     18  C   UNL d   1      58.244   0.364  30.145  0.00  0.00     0.000 A 
ATOM     19  C   UNL d   1      57.726  -0.250  30.023  0.00  0.00     0.000 A 
ATOM     20  C   UNL d   1      57.304  -0.565  30.668  0.00  0.00     0.005 A 
ENDBRANCH  13  15
ENDBRANCH   1  12
BRANCH   1  21
ATOM     21  C   UNL d   1      55.881  -1.229  33.120  0.00  0.00     0.140 C 
ATOM     22 CL   UNL d   1      55.688  -1.494  32.427  0.00  0.00    -0.068 Cl
ATOM     23 CL   UNL d   1      55.901  -1.710  33.853  0.00  0.00    -0.068 Cl
ENDBRANCH   1  21
TORSDOF 10
ENDMDL
MODEL 5
REMARK VINA RESULT:      -0.9      1.328      3.565
REMARK  10 active torsions:
REMARK  status: ('A' for Active; 'I' for Inactive)
REMARK    1  A    between atoms: P_2  and  C_1 
REMARK    2  A    between atoms: N_3  and  C_1 
REMARK    3  A    between atoms: C_4  and  C_1 
REMARK    4  A    between atoms: O_9  and  P_2 
REMARK    5  A    between atoms: O_10  and  P_2 
REMARK       I    between atoms: C_5  and  N_3 
REMARK    6  A    between atoms: C_8  and  C_5 
REMARK    7  A    between atoms: C_16  and  O_9 
REMARK    8  A    between atoms: C_15  and  O_10 
REMARK    9  A    between atoms: C_18  and  C_15 
REMARK   10  A    between atoms: C_17  and  C_16 
ROOT
ATOM      1  C   UNL d   1      58.292   0.030  30.168  0.00  0.00     0.186 C 
ENDROOT
BRANCH   1   2
ATOM      2  P   UNL d   1      58.150   0.197  30.976  0.00  0.00     0.393 P 
ATOM      3  O   UNL d   1      58.026   0.373  31.772  0.00  0.00    -0.251 OA
BRANCH   2   4
ATOM      4  O   UNL d   1      58.819   0.678  30.973  0.00  0.00    -0.263 OA
BRANCH   4   5
ATOM      5  C   UNL d   1      59.422   0.544  31.528  0.00  0.00     0.126 C 
BRANCH   5   6
ATOM      6  C   UNL d   1      60.224   0.680  31.334  0.00  0.00     0.027 C 
ATOM      7  C   UNL d   1      60.972   0.619  31.820  0.00  0.00     0.002 C 
ENDBRANCH   5   6
ENDBRANCH   4   5
ENDBRANCH   2   4
BRANCH   2   8
ATOM      8  O   UNL d   1      57.487  -0.272  30.999  0.00  0.00    -0.263 OA
BRANCH   8   9
ATOM      9  C   UNL d   1      57.247  -0.595  31.712  0.00  0.00     0.126 C 
BRANCH   9  10
ATOM     10  C   UNL d   1      56.490  -0.426  32.012  0.00  0.00     0.027 C 
ATOM     11  C   UNL d   1      56.240  -1.040  32.420  0.00  0.00     0.002 C 
ENDBRANCH   9  10
ENDBRANCH   8   9
ENDBRANCH   2   8
ENDBRANCH   1   2
BRANCH   1  12
ATOM     12  N   UNL d   1      58.825  -0.586  29.981  0.00  0.00    -0.199 NA
ATOM     13  C   UNL d   1      58.568  -1.181  29.453  0.00  0.00     0.279 C 
ATOM     14  O   UNL d   1      57.828  -1.162  29.133  0.00  0.00    -0.265 OA
BRANCH  13  15
ATOM     15  C   UNL d   1      59.052  -1.796  29.244  0.00  0.00     0.058 A 
ATOM     16  C   UNL d   1      59.744  -1.641  28.822  0.00  0.00     0.005 A 
ATOM     17  C   UNL d   1      60.231  -2.268  28.613  0.00  0.00     0.000 A 
ATOM     18  C   UNL d   1      60.025  -3.049  28.825  0.00  0.00     0.000 A 
ATOM     19  C   UNL d   1      59.344  -3.202  29.240  0.00  0.00     0.000 A 
ATOM     20  C   UNL d   1      58.845  -2.572  29.456  0.00  0.00     0.005 A 
ENDBRANCH  13  15
ENDBRANCH   1  12
BRANCH   1  21
ATOM     21  C   UNL d   1      57.921   0.455  29.583  0.00  0.00     0.140 C 
ATOM     22 CL   UNL d   1      57.191   0.634  29.736  0.00  0.00    -0.068 Cl
ATOM     23 CL   UNL d   1      58.348   0.674  28.850  0.00  0.00    -0.068 Cl
ENDBRANCH   1  21
TORSDOF 10
ENDMDL
MODEL 6
REMARK VINA RESULT:      -0.8      0.471      2.122
REMARK  10 active torsions:
REMARK  status: ('A' for Active; 'I' for Inactive)
REMARK    1  A    between atoms: P_2  and  C_1 
REMARK    2  A    between atoms: N_3  and  C_1 
REMARK    3  A    between atoms: C_4  and  C_1 
REMARK    4  A    between atoms: O_9  and  P_2 
REMARK    5  A    between atoms: O_10  and  P_2 
REMARK       I    between atoms: C_5  and  N_3 
REMARK    6  A    between atoms: C_8  and  C_5 
REMARK    7  A    between atoms: C_16  and  O_9 
REMARK    8  A    between atoms: C_15  and  O_10 
REMARK    9  A    between atoms: C_18  and  C_15 
REMARK   10  A    between atoms: C_17  and  C_16 
ROOT
ATOM      1  C   UNL d   1      58.847  -0.856  29.594  0.00  0.00     0.186 C 
ENDROOT
BRANCH   1   2
ATOM      2  P   UNL d   1      59.559  -1.296  29.604  0.00  0.00     0.393 P 
ATOM      3  O   UNL d   1      60.268  -1.715  29.622  0.00  0.00    -0.251 OA
BRANCH   2   4
ATOM      4  O   UNL d   1      59.923  -0.660  29.980  0.00  0.00    -0.263 OA
BRANCH   4   5
ATOM      5  C   UNL d   1      60.684  -0.427  29.743  0.00  0.00     0.126 C 
BRANCH   5   6
ATOM      6  C   UNL d   1      61.132   0.110  30.202  0.00  0.00     0.027 C 
ATOM      7  C   UNL d   1      60.901   0.668  30.861  0.00  0.00     0.002 C 
ENDBRANCH   5   6
ENDBRANCH   4   5
ENDBRANCH   2   4
BRANCH   2   8
ATOM      8  O   UNL d   1      59.216  -1.933  29.233  0.00  0.00    -0.263 OA
BRANCH   8   9
ATOM      9  C   UNL d   1      59.692  -2.537  28.950  0.00  0.00     0.126 C 
BRANCH   9  10
ATOM     10  C   UNL d   1      59.532  -3.326  29.159  0.00  0.00     0.027 C 
ATOM     11  C   UNL d   1      59.590  -3.770  28.523  0.00  0.00     0.002 C 
ENDBRANCH   9  10
ENDBRANCH   8   9
ENDBRANCH   2   8
ENDBRANCH   1   2
BRANCH   1  12
ATOM     12  N   UNL d   1      58.503  -0.646  30.327  0.00  0.00    -0.199 NA
ATOM     13  C   UNL d   1      57.673  -0.559  30.362  0.00  0.00     0.279 C 
ATOM     14  O   UNL d   1      57.215  -0.674  29.707  0.00  0.00    -0.265 OA
BRANCH  13  15
ATOM     15  C   UNL d   1      57.299  -0.356  31.051  0.00  0.00     0.058 A 
ATOM     16  C   UNL d   1      57.296   0.432  31.293  0.00  0.00     0.005 A 
ATOM     17  C   UNL d   1      56.916   0.633  31.993  0.00  0.00     0.000 A 
ATOM     18  C   UNL d   1      56.538   0.044  32.449  0.00  0.00     0.000 A 
ATOM     19  C   UNL d   1      56.540  -0.733  32.210  0.00  0.00     0.000 A 
ATOM     20  C   UNL d   1      56.923  -0.944  31.502  0.00  0.00     0.005 A 
ENDBRANCH  13  15
ENDBRANCH   1  12
BRANCH   1  21
ATOM     21  C   UNL d   1      58.499  -0.638  28.892  0.00  0.00     0.140 C 
ATOM     22 CL   UNL d   1      58.122  -1.204  28.538  0.00  0.00    -0.068 Cl
ATOM     23 CL   UNL d   1      58.569   0.182  28.593  0.00  0.00    -0.068 Cl
ENDBRANCH   1  21
TORSDOF 10
ENDMDL
