MODEL 1
REMARK VINA RESULT:      64.2      0.000      0.000
REMARK  7 active torsions:
REMARK  status: ('A' for Active; 'I' for Inactive)
REMARK    1  A    between atoms: S_7  and  C_1 
REMARK    2  A    between atoms: C_6  and  C_8 
REMARK       I    between atoms: N_10  and  C_6 
REMARK    3  A    between atoms: C_13  and  S_7 
REMARK    4  A    between atoms: C_21  and  N_10 
REMARK    5  A    between atoms: C_14  and  C_13 
REMARK    6  A    between atoms: C_17  and  C_21 
REMARK    7  A    between atoms: C_22  and  C_17 
ROOT
ATOM      1  C   UNL d   1      61.328  47.280  49.991  0.00  0.00     0.058 A 
ATOM      2  C   UNL d   1      60.960  47.706  49.402  0.00  0.00     0.005 A 
ATOM      3  C   UNL d   1      61.270  47.544  50.786  0.00  0.00     0.005 A 
ATOM      4  C   UNL d   1      60.475  48.656  50.369  0.00  0.00     0.007 A 
ATOM      5  C   UNL d   1      60.860  48.206  50.968  0.00  0.00     0.001 A 
ATOM      6  C   UNL d   1      60.539  48.386  49.588  0.00  0.00     0.001 A 
ENDROOT
BRANCH   4   7
ATOM      7  C   UNL d   1      60.065  49.319  50.551  0.00  0.00     0.038 C 
BRANCH   7   8
ATOM      8  S   UNL d   1      59.390  49.275  51.053  0.00  0.00    -0.048 SA
BRANCH   8   9
ATOM      9  C   UNL d   1      58.626  49.370  50.737  0.00  0.00     0.194 A 
ATOM     10  N   UNL d   1      58.450  49.458  49.935  0.00  0.00    -0.220 NA
ATOM     11  C   UNL d   1      57.638  49.534  49.871  0.00  0.00     0.101 A 
ATOM     12  C   UNL d   1      57.142  49.635  49.236  0.00  0.00     0.021 A 
ATOM     13  C   UNL d   1      57.318  49.493  50.631  0.00  0.00     0.101 A 
ATOM     14  C   UNL d   1      56.360  49.693  49.343  0.00  0.00     0.002 A 
ATOM     15  C   UNL d   1      56.040  49.651  50.103  0.00  0.00     0.002 A 
ATOM     16  C   UNL d   1      56.503  49.552  50.758  0.00  0.00     0.021 A 
ATOM     17  N   UNL d   1      57.936  49.391  51.158  0.00  0.00    -0.220 NA
ENDBRANCH   8   9
ENDBRANCH   7   8
ENDBRANCH   4   7
BRANCH   1  18
ATOM     18  C   UNL d   1      61.745  46.599  49.772  0.00  0.00     0.279 C 
ATOM     19  O   UNL d   1      62.345  46.661  49.207  0.00  0.00    -0.265 OA
ATOM     20  N   UNL d   1      61.570  45.868  50.109  0.00  0.00    -0.206 NA
BRANCH  20  21
ATOM     21  C   UNL d   1      60.974  45.802  50.672  0.00  0.00     0.106 C 
BRANCH  21  22
ATOM     22  C   UNL d   1      60.735  45.053  50.941  0.00  0.00     0.066 C 
BRANCH  22  23
ATOM     23  C   UNL d   1      61.166  44.672  51.524  0.00  0.00     0.236 C 
ATOM     24  O   UNL d   1      60.916  43.937  51.813  0.00  0.00    -0.283 OA
ENDBRANCH  22  23
ENDBRANCH  21  22
ENDBRANCH  20  21
ENDBRANCH   1  18
TORSDOF 7
ENDMDL
