MODEL 1
REMARK VINA RESULT:      30.4      0.000      0.000
REMARK  6 active torsions:
REMARK  status: ('A' for Active; 'I' for Inactive)
REMARK    1  A    between atoms: N_2  and  S_1 
REMARK    2  A    between atoms: C_3  and  S_1 
REMARK    3  A    between atoms: O_13  and  C_8 
REMARK    4  A    between atoms: C_14  and  O_13 
REMARK    5  A    between atoms: C_15  and  C_14 
REMARK    6  A    between atoms: C_16  and  C_15 
ROOT
ATOM      1  C   UNL d   1     -54.764-101.587 -41.811  0.00  0.00     0.104 A 
ATOM      2  C   UNL d   1     -54.712-101.201 -41.082  0.00  0.00     0.015 A 
ATOM      3  C   UNL d   1     -54.815-102.374 -41.857  0.00  0.00     0.015 A 
ATOM      4  C   UNL d   1     -54.763-102.449 -40.418  0.00  0.00     0.100 A 
ATOM      5  C   UNL d   1     -54.712-101.626 -40.398  0.00  0.00     0.025 A 
ATOM      6  C   UNL d   1     -54.815-102.835 -41.147  0.00  0.00     0.025 A 
ENDROOT
BRANCH   1   7
ATOM      7  S   UNL d   1     -54.764-101.132 -42.511  0.00  0.00     0.271 S 
ATOM      8  O   UNL d   1     -54.811-100.451 -42.047  0.00  0.00    -0.200 OA
ATOM      9  O   UNL d   1     -54.716-101.831 -42.971  0.00  0.00    -0.200 OA
BRANCH   7  10
ATOM     10  N   UNL d   1     -54.763-100.674 -43.222  0.00  0.00    -0.229 N 
ATOM     11  C   UNL d   1     -54.750-101.177 -43.889  0.00  0.00     0.092 A 
ATOM     12  C   UNL d   1     -54.746-100.957 -44.683  0.00  0.00     0.020 A 
ATOM     13  C   UNL d   1     -54.752-100.210 -44.988  0.00  0.00     0.002 A 
ATOM     14  C   UNL d   1     -54.765 -99.483 -44.636  0.00  0.00     0.002 A 
ATOM     15  C   UNL d   1     -54.775 -99.339 -43.820  0.00  0.00     0.020 A 
ATOM     16  C   UNL d   1     -54.774 -99.852 -43.194  0.00  0.00     0.092 A 
ENDBRANCH   7  10
ENDBRANCH   1   7
BRANCH   4  17
ATOM     17  O   UNL d   1     -54.762-102.873 -39.713  0.00  0.00    -0.305 OA
BRANCH  17  18
ATOM     18  C   UNL d   1     -55.120-102.562 -39.058  0.00  0.00     0.123 C 
BRANCH  18  19
ATOM     19  C   UNL d   1     -54.722-102.560 -38.323  0.00  0.00     0.027 C 
BRANCH  19  20
ATOM     20  C   UNL d   1     -55.108-102.799 -37.635  0.00  0.00     0.002 C 
ATOM     21  C   UNL d   1     -54.813-102.604 -36.879  0.00  0.00     0.000 C 
ENDBRANCH  19  20
ENDBRANCH  18  19
ENDBRANCH  17  18
ENDBRANCH   4  17
TORSDOF 6
ENDMDL
MODEL 2
REMARK VINA RESULT:      31.3      0.293      1.152
REMARK  6 active torsions:
REMARK  status: ('A' for Active; 'I' for Inactive)
REMARK    1  A    between atoms: N_2  and  S_1 
REMARK    2  A    between atoms: C_3  and  S_1 
REMARK    3  A    between atoms: O_13  and  C_8 
REMARK    4  A    between atoms: C_14  and  O_13 
REMARK    5  A    between atoms: C_15  and  C_14 
REMARK    6  A    between atoms: C_16  and  C_15 
ROOT
ATOM      1  C   UNL d   1     -54.753-101.526 -41.588  0.00  0.00     0.104 A 
ATOM      2  C   UNL d   1     -54.798-102.350 -41.627  0.00  0.00     0.015 A 
ATOM      3  C   UNL d   1     -54.713-101.148 -40.896  0.00  0.00     0.015 A 
ATOM      4  C   UNL d   1     -54.758-102.418 -40.215  0.00  0.00     0.100 A 
ATOM      5  C   UNL d   1     -54.800-102.787 -40.951  0.00  0.00     0.025 A 
ATOM      6  C   UNL d   1     -54.714-101.594 -40.176  0.00  0.00     0.025 A 
ENDROOT
BRANCH   1   7
ATOM      7  S   UNL d   1     -54.752-101.086 -42.298  0.00  0.00     0.271 S 
ATOM      8  O   UNL d   1     -54.713-101.797 -42.717  0.00  0.00    -0.200 OA
ATOM      9  O   UNL d   1     -54.792-100.372 -41.862  0.00  0.00    -0.200 OA
BRANCH   7  10
ATOM     10  N   UNL d   1     -54.751-100.639 -43.016  0.00  0.00    -0.229 N 
ATOM     11  C   UNL d   1     -54.732 -99.822 -42.845  0.00  0.00     0.092 A 
ATOM     12  C   UNL d   1     -54.724 -99.197 -43.383  0.00  0.00     0.020 A 
ATOM     13  C   UNL d   1     -54.734 -99.240 -44.189  0.00  0.00     0.002 A 
ATOM     14  C   UNL d   1     -54.754 -99.868 -44.696  0.00  0.00     0.002 A 
ATOM     15  C   UNL d   1     -54.768-100.667 -44.479  0.00  0.00     0.020 A 
ATOM     16  C   UNL d   1     -54.767-101.015 -43.748  0.00  0.00     0.092 A 
ENDBRANCH   7  10
ENDBRANCH   1   7
BRANCH   4  17
ATOM     17  O   UNL d   1     -54.761-102.875 -39.531  0.00  0.00    -0.305 OA
BRANCH  17  18
ATOM     18  C   UNL d   1     -55.184-102.629 -38.887  0.00  0.00     0.123 C 
BRANCH  18  19
ATOM     19  C   UNL d   1     -54.910-102.800 -38.115  0.00  0.00     0.027 C 
BRANCH  19  20
ATOM     20  C   UNL d   1     -55.436-102.830 -37.480  0.00  0.00     0.002 C 
ATOM     21  C   UNL d   1     -55.195-102.630 -36.706  0.00  0.00     0.000 C 
ENDBRANCH  19  20
ENDBRANCH  18  19
ENDBRANCH  17  18
ENDBRANCH   4  17
TORSDOF 6
ENDMDL
