MODEL 1
REMARK VINA RESULT:      86.5      0.000      0.000
REMARK  7 active torsions:
REMARK  status: ('A' for Active; 'I' for Inactive)
REMARK    1  A    between atoms: C_2  and  S_1 
REMARK    2  A    between atoms: N_5  and  S_1 
REMARK    3  A    between atoms: C_3  and  C_7 
REMARK       I    between atoms: N_8  and  C_3 
REMARK    4  A    between atoms: C_16  and  N_5 
REMARK    5  A    between atoms: C_21  and  N_8 
REMARK    6  A    between atoms: C_15  and  C_16 
REMARK    7  A    between atoms: C_30  and  C_23 
ROOT
ATOM      1  C   UNL d   1     -54.869-100.098 -40.707  0.00  0.00     0.133 A 
ATOM      2  C   UNL d   1     -54.877-100.897 -40.855  0.00  0.00     0.020 A 
ATOM      3  C   UNL d   1     -54.876-101.431 -40.225  0.00  0.00     0.059 A 
ATOM      4  C   UNL d   1     -54.860 -99.817 -39.932  0.00  0.00     0.152 A 
ATOM      5  C   UNL d   1     -54.867-101.150 -39.449  0.00  0.00     0.007 A 
ATOM      6  C   UNL d   1     -54.860-100.338 -39.309  0.00  0.00     0.030 A 
ATOM      7  F   UNL d   1     -54.852 -98.986 -39.785  0.00  0.00    -0.203 F 
ENDROOT
BRANCH   1   8
ATOM      8  S   UNL d   1     -54.870 -99.557 -41.362  0.00  0.00     0.288 S 
ATOM      9  O   UNL d   1     -54.955 -98.929 -40.835  0.00  0.00    -0.198 OA
ATOM     10  O   UNL d   1     -54.783-100.211 -41.879  0.00  0.00    -0.198 OA
BRANCH   8  11
ATOM     11  N   UNL d   1     -54.868 -99.056 -41.999  0.00  0.00    -0.155 NA
BRANCH  11  12
ATOM     12  C   UNL d   1     -55.457 -99.102 -42.578  0.00  0.00     0.139 C 
BRANCH  12  13
ATOM     13  C   UNL d   1     -55.308 -99.540 -43.272  0.00  0.00     0.145 A 
ATOM     14  O   UNL d   1     -55.476-100.343 -43.309  0.00  0.00    -0.301 OA
ATOM     15  C   UNL d   1     -55.324-100.766 -44.003  0.00  0.00     0.123 A 
ATOM     16  C   UNL d   1     -55.493-101.575 -44.040  0.00  0.00     0.027 A 
ATOM     17  C   UNL d   1     -55.005-100.380 -44.659  0.00  0.00     0.123 A 
ATOM     18  C   UNL d   1     -55.342-101.997 -44.732  0.00  0.00     0.002 A 
ATOM     19  C   UNL d   1     -55.022-101.612 -45.390  0.00  0.00     0.002 A 
ATOM     20  C   UNL d   1     -54.853-100.803 -45.353  0.00  0.00     0.027 A 
ATOM     21  O   UNL d   1     -54.837 -99.577 -44.622  0.00  0.00    -0.301 OA
ATOM     22  C   UNL d   1     -54.989 -99.159 -43.930  0.00  0.00     0.149 A 
ENDBRANCH  12  13
ENDBRANCH  11  12
ENDBRANCH   8  11
ENDBRANCH   1   8
BRANCH   3  23
ATOM     23  C   UNL d   1     -54.884-102.252 -40.364  0.00  0.00     0.279 C 
ATOM     24  N   UNL d   1     -55.034-102.782 -39.749  0.00  0.00    -0.208 NA
ATOM     25  O   UNL d   1     -54.742-102.535 -41.120  0.00  0.00    -0.265 OA
BRANCH  24  26
ATOM     26  C   UNL d   1     -55.177-102.497 -38.988  0.00  0.00     0.085 A 
ATOM     27  C   UNL d   1     -54.769-101.835 -38.725  0.00  0.00     0.019 A 
ATOM     28  C   UNL d   1     -54.914-101.548 -37.958  0.00  0.00     0.002 A 
ATOM     29  C   UNL d   1     -55.463-101.929 -37.470  0.00  0.00     0.000 A 
ATOM     30  C   UNL d   1     -55.861-102.587 -37.747  0.00  0.00     0.002 A 
ATOM     31  C   UNL d   1     -55.717-102.875 -38.514  0.00  0.00     0.019 A 
BRANCH  29  32
ATOM     32  C   UNL d   1     -55.608-101.649 -36.714  0.00  0.00     0.000 C 
ATOM     33  C   UNL d   1     -55.413-102.111 -36.059  0.00  0.00     0.000 C 
ENDBRANCH  29  32
ENDBRANCH  24  26
ENDBRANCH   3  23
TORSDOF 7
ENDMDL
MODEL 2
REMARK VINA RESULT:      87.7      2.290      2.956
REMARK  7 active torsions:
REMARK  status: ('A' for Active; 'I' for Inactive)
REMARK    1  A    between atoms: C_2  and  S_1 
REMARK    2  A    between atoms: N_5  and  S_1 
REMARK    3  A    between atoms: C_3  and  C_7 
REMARK       I    between atoms: N_8  and  C_3 
REMARK    4  A    between atoms: C_16  and  N_5 
REMARK    5  A    between atoms: C_21  and  N_8 
REMARK    6  A    between atoms: C_15  and  C_16 
REMARK    7  A    between atoms: C_30  and  C_23 
ROOT
ATOM      1  C   UNL d   1     -55.297-100.031 -42.803  0.00  0.00     0.133 A 
ATOM      2  C   UNL d   1     -55.470-100.784 -43.055  0.00  0.00     0.020 A 
ATOM      3  C   UNL d   1     -55.269-101.430 -42.582  0.00  0.00     0.059 A 
ATOM      4  C   UNL d   1     -54.923 -99.909 -42.078  0.00  0.00     0.152 A 
ATOM      5  C   UNL d   1     -54.895-101.308 -41.857  0.00  0.00     0.007 A 
ATOM      6  C   UNL d   1     -54.725-100.541 -41.610  0.00  0.00     0.030 A 
ATOM      7  F   UNL d   1     -54.747 -99.124 -41.822  0.00  0.00    -0.203 F 
ENDROOT
BRANCH   1   8
ATOM      8  S   UNL d   1     -55.507 -99.372 -43.296  0.00  0.00     0.288 S 
ATOM      9  O   UNL d   1     -54.960 -98.905 -42.894  0.00  0.00    -0.198 OA
ATOM     10  O   UNL d   1     -56.057 -99.866 -43.690  0.00  0.00    -0.198 OA
BRANCH   8  11
ATOM     11  N   UNL d   1     -55.721 -98.755 -43.776  0.00  0.00    -0.155 NA
BRANCH  11  12
ATOM     12  C   UNL d   1     -56.169 -98.883 -44.459  0.00  0.00     0.139 C 
BRANCH  12  13
ATOM     13  C   UNL d   1     -56.993 -98.992 -44.388  0.00  0.00     0.145 A 
ATOM     14  O   UNL d   1     -57.472 -99.037 -45.054  0.00  0.00    -0.301 OA
ATOM     15  C   UNL d   1     -58.287 -99.145 -44.970  0.00  0.00     0.123 A 
ATOM     16  C   UNL d   1     -58.769 -99.190 -45.641  0.00  0.00     0.027 A 
ATOM     17  C   UNL d   1     -58.618 -99.209 -44.217  0.00  0.00     0.123 A 
ATOM     18  C   UNL d   1     -59.583 -99.299 -45.558  0.00  0.00     0.002 A 
ATOM     19  C   UNL d   1     -59.916 -99.362 -44.804  0.00  0.00     0.002 A 
ATOM     20  C   UNL d   1     -59.434 -99.317 -44.134  0.00  0.00     0.027 A 
ATOM     21  O   UNL d   1     -58.140 -99.164 -43.552  0.00  0.00    -0.301 OA
ATOM     22  C   UNL d   1     -57.328 -99.056 -43.638  0.00  0.00     0.149 A 
ENDBRANCH  12  13
ENDBRANCH  11  12
ENDBRANCH   8  11
ENDBRANCH   1   8
BRANCH   3  23
ATOM     23  C   UNL d   1     -55.441-102.207 -42.830  0.00  0.00     0.279 C 
ATOM     24  N   UNL d   1     -55.547-102.811 -42.277  0.00  0.00    -0.208 NA
ATOM     25  O   UNL d   1     -55.506-102.371 -43.630  0.00  0.00    -0.265 OA
BRANCH  24  26
ATOM     26  C   UNL d   1     -55.482-102.647 -41.472  0.00  0.00     0.085 A 
ATOM     27  C   UNL d   1     -56.127-102.332 -41.074  0.00  0.00     0.019 A 
ATOM     28  C   UNL d   1     -56.061-102.166 -40.262  0.00  0.00     0.002 A 
ATOM     29  C   UNL d   1     -55.352-102.318 -39.864  0.00  0.00     0.000 A 
ATOM     30  C   UNL d   1     -54.718-102.632 -40.275  0.00  0.00     0.002 A 
ATOM     31  C   UNL d   1     -54.783-102.798 -41.087  0.00  0.00     0.019 A 
BRANCH  29  32
ATOM     32  C   UNL d   1     -55.283-102.156 -39.064  0.00  0.00     0.000 C 
ATOM     33  C   UNL d   1     -54.987-102.731 -38.551  0.00  0.00     0.000 C 
ENDBRANCH  29  32
ENDBRANCH  24  26
ENDBRANCH   3  23
TORSDOF 7
ENDMDL
