MODEL 1
REMARK VINA RESULT:      -3.6      0.000      0.000
REMARK  2 active torsions:
REMARK  status: ('A' for Active; 'I' for Inactive)
REMARK    1  A    between atoms: S_2  and  C_1 
REMARK    2  A    between atoms: N_3  and  S_2 
ROOT
ATOM      1  C   UNL d   1      30.150  16.355 -23.796  0.00  0.00     0.125 A 
ATOM      2  C   UNL d   1      29.378  16.594 -24.073  0.00  0.00    -0.009 A 
ATOM      3  C   UNL d   1      30.475  15.908 -23.305  0.00  0.00     0.031 A 
ATOM      4  C   UNL d   1      29.421  16.334 -23.790  0.00  0.00    -0.009 A 
ATOM      5  C   UNL d   1      28.793  15.887 -23.323  0.00  0.00    -0.007 A 
ATOM      6  C   UNL d   1      29.899  15.491 -22.869  0.00  0.00     0.045 A 
ATOM      7  C   UNL d   1      28.878  16.249 -23.712  0.00  0.00    -0.007 A 
ATOM      8  C   UNL d   1      29.109  15.453 -22.847  0.00  0.00    -0.022 A 
ATOM      9  C   UNL d   1      29.281  15.661 -23.067  0.00  0.00    -0.022 A 
ATOM     10  C   UNL d   1      28.001  16.119 -23.593  0.00  0.00    -0.001 A 
ENDROOT
BRANCH   1  11
ATOM     11  S   UNL d   1      31.188  16.466 -23.890  0.00  0.00     0.142 S 
ATOM     12  O   UNL d   1      31.491  15.715 -23.689  0.00  0.00    -0.233 OA
BRANCH  11  13
ATOM     13  N   UNL d   1      31.682  17.060 -24.094  0.00  0.00    -0.251 N 
ATOM     14  C   UNL d   1      32.028  17.515 -23.512  0.00  0.00     0.108 A 
ATOM     15  C   UNL d   1      32.555  18.148 -23.744  0.00  0.00     0.100 A 
ATOM     16  N   UNL d   1      32.700  18.283 -24.519  0.00  0.00    -0.299 N 
ATOM     17  C   UNL d   1      32.332  17.803 -25.091  0.00  0.00     0.100 A 
ATOM     18  C   UNL d   1      33.238  18.942 -24.528  0.00  0.00     0.100 C 
ATOM     19  C   UNL d   1      31.828  17.197 -24.875  0.00  0.00     0.108 A 
ENDBRANCH  11  13
ENDBRANCH   1  11
TORSDOF 2
ENDMDL
MODEL 2
REMARK VINA RESULT:      -3.4      1.079      3.627
REMARK  2 active torsions:
REMARK  status: ('A' for Active; 'I' for Inactive)
REMARK    1  A    between atoms: S_2  and  C_1 
REMARK    2  A    between atoms: N_3  and  S_2 
ROOT
ATOM      1  C   UNL d   1      31.734  17.062 -23.830  0.00  0.00     0.125 A 
ATOM      2  C   UNL d   1      31.784  17.903 -23.969  0.00  0.00    -0.009 A 
ATOM      3  C   UNL d   1      32.120  16.498 -23.547  0.00  0.00     0.031 A 
ATOM      4  C   UNL d   1      32.072  17.707 -23.801  0.00  0.00    -0.009 A 
ATOM      5  C   UNL d   1      32.866  18.005 -23.497  0.00  0.00    -0.007 A 
ATOM      6  C   UNL d   1      32.857  16.767 -23.264  0.00  0.00     0.045 A 
ATOM      7  C   UNL d   1      32.404  18.147 -23.734  0.00  0.00    -0.007 A 
ATOM      8  C   UNL d   1      33.241  17.457 -23.222  0.00  0.00    -0.022 A 
ATOM      9  C   UNL d   1      32.923  17.427 -23.361  0.00  0.00    -0.022 A 
ATOM     10  C   UNL d   1      32.934  18.860 -23.631  0.00  0.00    -0.001 A 
ENDROOT
BRANCH   1  11
ATOM     11  S   UNL d   1      31.157  16.191 -23.925  0.00  0.00     0.142 S 
ATOM     12  O   UNL d   1      31.722  15.585 -24.026  0.00  0.00    -0.233 OA
BRANCH  11  13
ATOM     13  N   UNL d   1      30.376  16.020 -23.919  0.00  0.00    -0.251 N 
ATOM     14  C   UNL d   1      30.015  15.809 -23.219  0.00  0.00     0.108 A 
ATOM     15  C   UNL d   1      29.179  15.628 -23.227  0.00  0.00     0.100 A 
ATOM     16  N   UNL d   1      28.768  15.668 -23.912  0.00  0.00    -0.299 N 
ATOM     17  C   UNL d   1      29.164  15.887 -24.611  0.00  0.00     0.100 A 
ATOM     18  C   UNL d   1      27.971  15.455 -23.702  0.00  0.00     0.100 C 
ATOM     19  C   UNL d   1      29.963  16.061 -24.609  0.00  0.00     0.108 A 
ENDBRANCH  11  13
ENDBRANCH   1  11
TORSDOF 2
ENDMDL
MODEL 3
REMARK VINA RESULT:      -3.0      2.405      4.711
REMARK  2 active torsions:
REMARK  status: ('A' for Active; 'I' for Inactive)
REMARK    1  A    between atoms: S_2  and  C_1 
REMARK    2  A    between atoms: N_3  and  S_2 
ROOT
ATOM      1  C   UNL d   1      32.964  19.489 -22.528  0.00  0.00     0.125 A 
ATOM      2  C   UNL d   1      32.907  19.617 -21.686  0.00  0.00    -0.009 A 
ATOM      3  C   UNL d   1      33.087  19.851 -23.162  0.00  0.00     0.031 A 
ATOM      4  C   UNL d   1      32.982  19.907 -21.931  0.00  0.00    -0.009 A 
ATOM      5  C   UNL d   1      33.121  20.780 -21.759  0.00  0.00    -0.007 A 
ATOM      6  C   UNL d   1      33.217  20.661 -23.009  0.00  0.00     0.045 A 
ATOM      7  C   UNL d   1      33.015  20.300 -21.540  0.00  0.00    -0.007 A 
ATOM      8  C   UNL d   1      33.241  21.132 -22.374  0.00  0.00    -0.022 A 
ATOM      9  C   UNL d   1      33.178  20.790 -22.352  0.00  0.00    -0.022 A 
ATOM     10  C   UNL d   1      33.066  20.927 -20.905  0.00  0.00    -0.001 A 
ENDROOT
BRANCH   1  11
ATOM     11  S   UNL d   1      32.915  18.798 -23.315  0.00  0.00     0.142 S 
ATOM     12  O   UNL d   1      33.241  19.207 -23.965  0.00  0.00    -0.233 OA
BRANCH  11  13
ATOM     13  N   UNL d   1      32.656  18.046 -23.399  0.00  0.00    -0.251 N 
ATOM     14  C   UNL d   1      31.878  17.908 -23.600  0.00  0.00     0.108 A 
ATOM     15  C   UNL d   1      31.614  17.098 -23.687  0.00  0.00     0.100 A 
ATOM     16  N   UNL d   1      32.128  16.496 -23.571  0.00  0.00    -0.299 N 
ATOM     17  C   UNL d   1      32.917  16.669 -23.367  0.00  0.00     0.100 A 
ATOM     18  C   UNL d   1      31.671  15.791 -23.705  0.00  0.00     0.100 C 
ATOM     19  C   UNL d   1      33.174  17.440 -23.283  0.00  0.00     0.108 A 
ENDBRANCH  11  13
ENDBRANCH   1  11
TORSDOF 2
ENDMDL
MODEL 4
REMARK VINA RESULT:      -2.8      4.168      5.971
REMARK  2 active torsions:
REMARK  status: ('A' for Active; 'I' for Inactive)
REMARK    1  A    between atoms: S_2  and  C_1 
REMARK    2  A    between atoms: N_3  and  S_2 
ROOT
ATOM      1  C   UNL d   1      32.709  21.602 -21.530  0.00  0.00     0.125 A 
ATOM      2  C   UNL d   1      32.492  22.348 -21.883  0.00  0.00    -0.009 A 
ATOM      3  C   UNL d   1      32.806  21.280 -20.870  0.00  0.00     0.031 A 
ATOM      4  C   UNL d   1      32.508  22.302 -21.499  0.00  0.00    -0.009 A 
ATOM      5  C   UNL d   1      32.341  22.897 -20.843  0.00  0.00    -0.007 A 
ATOM      6  C   UNL d   1      32.653  21.826 -20.258  0.00  0.00     0.045 A 
ATOM      7  C   UNL d   1      32.359  22.822 -21.376  0.00  0.00    -0.007 A 
ATOM      8  C   UNL d   1      32.435  22.584 -20.203  0.00  0.00    -0.022 A 
ATOM      9  C   UNL d   1      32.480  22.423 -20.509  0.00  0.00    -0.022 A 
ATOM     10  C   UNL d   1      32.119  23.663 -21.186  0.00  0.00    -0.001 A 
ENDROOT
BRANCH   1  11
ATOM     11  S   UNL d   1      32.993  20.606 -21.691  0.00  0.00     0.142 S 
ATOM     12  O   UNL d   1      33.235  20.340 -20.938  0.00  0.00    -0.233 OA
BRANCH  11  13
ATOM     13  N   UNL d   1      33.019  20.114 -22.321  0.00  0.00    -0.251 N 
ATOM     14  C   UNL d   1      33.215  20.410 -23.055  0.00  0.00     0.108 A 
ATOM     15  C   UNL d   1      33.239  19.873 -23.721  0.00  0.00     0.100 A 
ATOM     16  N   UNL d   1      33.071  19.098 -23.616  0.00  0.00    -0.299 N 
ATOM     17  C   UNL d   1      32.874  18.825 -22.854  0.00  0.00     0.100 A 
ATOM     18  C   UNL d   1      33.152  18.750 -24.388  0.00  0.00     0.100 C 
ATOM     19  C   UNL d   1      32.850  19.334 -22.215  0.00  0.00     0.108 A 
ENDBRANCH  11  13
ENDBRANCH   1  11
TORSDOF 2
ENDMDL
MODEL 5
REMARK VINA RESULT:      -2.6      4.488      6.000
REMARK  2 active torsions:
REMARK  status: ('A' for Active; 'I' for Inactive)
REMARK    1  A    between atoms: S_2  and  C_1 
REMARK    2  A    between atoms: N_3  and  S_2 
ROOT
ATOM      1  C   UNL d   1      33.003  20.702 -22.141  0.00  0.00     0.125 A 
ATOM      2  C   UNL d   1      32.948  19.903 -21.844  0.00  0.00    -0.009 A 
ATOM      3  C   UNL d   1      33.112  21.079 -22.768  0.00  0.00     0.031 A 
ATOM      4  C   UNL d   1      33.012  19.976 -22.218  0.00  0.00    -0.009 A 
ATOM      5  C   UNL d   1      33.124  19.402 -22.903  0.00  0.00    -0.007 A 
ATOM      6  C   UNL d   1      33.216  20.553 -23.407  0.00  0.00     0.045 A 
ATOM      7  C   UNL d   1      33.035  19.444 -22.374  0.00  0.00    -0.007 A 
ATOM      8  C   UNL d   1      33.229  19.769 -23.512  0.00  0.00    -0.022 A 
ATOM      9  C   UNL d   1      33.177  19.917 -23.201  0.00  0.00    -0.022 A 
ATOM     10  C   UNL d   1      33.070  18.584 -22.617  0.00  0.00    -0.001 A 
ENDROOT
BRANCH   1  11
ATOM     11  S   UNL d   1      32.972  21.725 -21.916  0.00  0.00     0.142 S 
ATOM     12  O   UNL d   1      33.241  22.094 -22.614  0.00  0.00    -0.233 OA
BRANCH  11  13
ATOM     13  N   UNL d   1      32.765  22.163 -21.280  0.00  0.00    -0.251 N 
ATOM     14  C   UNL d   1      33.156  22.058 -20.573  0.00  0.00     0.108 A 
ATOM     15  C   UNL d   1      32.924  22.534 -19.901  0.00  0.00     0.100 A 
ATOM     16  N   UNL d   1      32.333  23.069 -19.974  0.00  0.00    -0.299 N 
ATOM     17  C   UNL d   1      31.952  23.153 -20.710  0.00  0.00     0.100 A 
ATOM     18  C   UNL d   1      32.265  23.426 -19.205  0.00  0.00     0.100 C 
ATOM     19  C   UNL d   1      32.169  22.702 -21.355  0.00  0.00     0.108 A 
ENDBRANCH  11  13
ENDBRANCH   1  11
TORSDOF 2
ENDMDL
MODEL 6
REMARK VINA RESULT:      -1.3      6.361      7.193
REMARK  2 active torsions:
REMARK  status: ('A' for Active; 'I' for Inactive)
REMARK    1  A    between atoms: S_2  and  C_1 
REMARK    2  A    between atoms: N_3  and  S_2 
ROOT
ATOM      1  C   UNL d   1      33.081  22.739 -21.156  0.00  0.00     0.125 A 
ATOM      2  C   UNL d   1      33.179  23.443 -20.682  0.00  0.00    -0.009 A 
ATOM      3  C   UNL d   1      32.947  22.014 -21.094  0.00  0.00     0.031 A 
ATOM      4  C   UNL d   1      33.108  23.098 -20.521  0.00  0.00    -0.009 A 
ATOM      5  C   UNL d   1      33.019  22.878 -19.652  0.00  0.00    -0.007 A 
ATOM      6  C   UNL d   1      32.864  21.804 -20.291  0.00  0.00     0.045 A 
ATOM      7  C   UNL d   1      33.111  23.281 -19.997  0.00  0.00    -0.007 A 
ATOM      8  C   UNL d   1      32.890  22.174 -19.593  0.00  0.00    -0.022 A 
ATOM      9  C   UNL d   1      32.937  22.340 -19.896  0.00  0.00    -0.022 A 
ATOM     10  C   UNL d   1      33.117  23.584 -19.156  0.00  0.00    -0.001 A 
ENDROOT
BRANCH   1  11
ATOM     11  S   UNL d   1      33.062  22.327 -22.120  0.00  0.00     0.142 S 
ATOM     12  O   UNL d   1      33.047  21.504 -21.988  0.00  0.00    -0.233 OA
BRANCH  11  13
ATOM     13  N   UNL d   1      33.061  22.618 -22.865  0.00  0.00    -0.251 N 
ATOM     14  C   UNL d   1      32.881  23.403 -22.991  0.00  0.00     0.108 A 
ATOM     15  C   UNL d   1      32.882  23.700 -23.793  0.00  0.00     0.100 A 
ATOM     16  N   UNL d   1      33.058  23.211 -24.401  0.00  0.00    -0.299 N 
ATOM     17  C   UNL d   1      33.238  22.414 -24.241  0.00  0.00     0.100 A 
ATOM     18  C   UNL d   1      33.004  23.698 -25.096  0.00  0.00     0.100 C 
ATOM     19  C   UNL d   1      33.238  22.124 -23.476  0.00  0.00     0.108 A 
ENDBRANCH  11  13
ENDBRANCH   1  11
TORSDOF 2
ENDMDL
