MODEL 1
REMARK VINA RESULT:       2.5      0.000      0.000
REMARK  9 active torsions:
REMARK  status: ('A' for Active; 'I' for Inactive)
REMARK    1  A    between atoms: C_7  and  C_1 
REMARK    2  A    between atoms: C_9  and  N_2 
REMARK    3  A    between atoms: C_14  and  C_7 
REMARK    4  A    between atoms: C_8  and  C_9 
REMARK       I    between atoms: N_11  and  C_8 
REMARK    5  A    between atoms: C_10  and  N_11 
REMARK    6  A    between atoms: O_30  and  C_19 
REMARK    7  A    between atoms: O_31  and  C_20 
REMARK    8  A    between atoms: C_32  and  C_25 
REMARK    9  A    between atoms: C_33  and  C_29 
ROOT
ATOM      1  C   UNL d   1      32.195  17.454 -23.075  0.00  0.00     0.095 A 
ATOM      2  N   UNL d   1      32.811  18.518 -22.351  0.00  0.00    -0.300 N 
ATOM      3  C   UNL d   1      32.190  17.948 -23.765  0.00  0.00     0.202 A 
ATOM      4  C   UNL d   1      32.506  17.739 -22.368  0.00  0.00     0.087 A 
ATOM      5  C   UNL d   1      32.503  18.725 -23.721  0.00  0.00     0.055 A 
ATOM      6  C   UNL d   1      32.816  19.021 -23.020  0.00  0.00     0.067 A 
ATOM      7  C   UNL d   1      33.119  19.789 -22.998  0.00  0.00     0.018 A 
ATOM      8  C   UNL d   1      32.502  19.224 -24.402  0.00  0.00     0.005 A 
ATOM      9  O   UNL d   1      31.884  17.668 -24.462  0.00  0.00    -0.286 OA
ATOM     10  C   UNL d   1      32.809  19.989 -24.365  0.00  0.00     0.000 A 
ATOM     11  C   UNL d   1      33.114  20.269 -23.669  0.00  0.00     0.002 A 
ENDROOT
BRANCH   2  12
ATOM     12  C   UNL d   1      33.122  18.802 -21.644  0.00  0.00     0.144 C 
BRANCH  12  13
ATOM     13  C   UNL d   1      32.802  19.473 -21.295  0.00  0.00     0.297 C 
ATOM     14  N   UNL d   1      33.241  20.168 -21.257  0.00  0.00    -0.207 NA
ATOM     15  O   UNL d   1      32.042  19.449 -20.983  0.00  0.00    -0.264 OA
BRANCH  14  16
ATOM     16  C   UNL d   1      32.915  20.843 -20.904  0.00  0.00     0.089 A 
ATOM     17  C   UNL d   1      33.095  21.021 -20.130  0.00  0.00     0.043 A 
ATOM     18  C   UNL d   1      32.777  21.685 -19.777  0.00  0.00     0.098 A 
ATOM     19  C   UNL d   1      32.265  22.182 -20.210  0.00  0.00     0.049 A 
ATOM     20  C   UNL d   1      32.085  21.998 -20.990  0.00  0.00     0.098 A 
ATOM     21  C   UNL d   1      32.412  21.323 -21.343  0.00  0.00     0.043 A 
BRANCH  18  22
ATOM     22  O   UNL d   1      32.957  21.866 -19.000  0.00  0.00    -0.328 OA
ATOM     23  C   UNL d   1      32.917  22.648 -18.744  0.00  0.00     0.181 C 
ENDBRANCH  18  22
BRANCH  20  24
ATOM     24  O   UNL d   1      31.589  22.476 -21.416  0.00  0.00    -0.328 OA
ATOM     25  C   UNL d   1      31.836  23.226 -21.646  0.00  0.00     0.181 C 
ENDBRANCH  20  24
ENDBRANCH  14  16
ENDBRANCH  12  13
ENDBRANCH   2  12
BRANCH   1  26
ATOM     26  C   UNL d   1      31.888  16.685 -23.110  0.00  0.00     0.200 C 
ATOM     27  O   UNL d   1      32.340  16.051 -22.844  0.00  0.00    -0.286 OA
BRANCH  26  28
ATOM     28  C   UNL d   1      31.131  16.553 -23.410  0.00  0.00     0.039 A 
ATOM     29  C   UNL d   1      30.478  16.970 -23.104  0.00  0.00     0.003 A 
ATOM     30  C   UNL d   1      29.712  16.840 -23.404  0.00  0.00     0.000 A 
ATOM     31  C   UNL d   1      29.599  16.294 -24.010  0.00  0.00     0.000 A 
ATOM     32  C   UNL d   1      30.266  15.884 -24.306  0.00  0.00     0.000 A 
ATOM     33  C   UNL d   1      31.032  16.013 -24.006  0.00  0.00     0.003 A 
BRANCH  31  34
ATOM     34  C   UNL d   1      28.836  16.173 -24.300  0.00  0.00     0.000 C 
ATOM     35  C   UNL d   1      28.748  15.699 -24.967  0.00  0.00     0.000 C 
ENDBRANCH  31  34
ENDBRANCH  26  28
ENDBRANCH   1  26
BRANCH  10  36
ATOM     36  C   UNL d   1      32.801  20.465 -25.038  0.00  0.00     0.000 C 
ATOM     37  C   UNL d   1      33.241  21.170 -25.053  0.00  0.00     0.000 C 
ENDBRANCH  10  36
TORSDOF 9
ENDMDL
MODEL 2
REMARK VINA RESULT:       4.2      1.534      5.344
REMARK  9 active torsions:
REMARK  status: ('A' for Active; 'I' for Inactive)
REMARK    1  A    between atoms: C_7  and  C_1 
REMARK    2  A    between atoms: C_9  and  N_2 
REMARK    3  A    between atoms: C_14  and  C_7 
REMARK    4  A    between atoms: C_8  and  C_9 
REMARK       I    between atoms: N_11  and  C_8 
REMARK    5  A    between atoms: C_10  and  N_11 
REMARK    6  A    between atoms: O_30  and  C_19 
REMARK    7  A    between atoms: O_31  and  C_20 
REMARK    8  A    between atoms: C_32  and  C_25 
REMARK    9  A    between atoms: C_33  and  C_29 
ROOT
ATOM      1  C   UNL d   1      32.845  20.703 -23.313  0.00  0.00     0.095 A 
ATOM      2  N   UNL d   1      32.890  19.708 -22.291  0.00  0.00    -0.300 N 
ATOM      3  C   UNL d   1      32.782  21.297 -22.709  0.00  0.00     0.202 A 
ATOM      4  C   UNL d   1      32.899  19.909 -23.104  0.00  0.00     0.087 A 
ATOM      5  C   UNL d   1      32.774  21.069 -21.902  0.00  0.00     0.055 A 
ATOM      6  C   UNL d   1      32.828  20.278 -21.681  0.00  0.00     0.067 A 
ATOM      7  C   UNL d   1      32.819  20.074 -20.881  0.00  0.00     0.018 A 
ATOM      8  C   UNL d   1      32.712  21.651 -21.295  0.00  0.00     0.005 A 
ATOM      9  O   UNL d   1      32.729  22.079 -22.914  0.00  0.00    -0.286 OA
ATOM     10  C   UNL d   1      32.704  21.433 -20.499  0.00  0.00     0.000 A 
ATOM     11  C   UNL d   1      32.757  20.651 -20.294  0.00  0.00     0.002 A 
ENDROOT
BRANCH   2  12
ATOM     12  C   UNL d   1      32.944  18.914 -22.083  0.00  0.00     0.144 C 
BRANCH  12  13
ATOM     13  C   UNL d   1      32.690  18.334 -22.605  0.00  0.00     0.297 C 
ATOM     14  N   UNL d   1      31.888  18.255 -22.775  0.00  0.00    -0.207 NA
ATOM     15  O   UNL d   1      33.236  17.832 -22.957  0.00  0.00    -0.264 OA
BRANCH  14  16
ATOM     16  C   UNL d   1      31.635  17.668 -23.303  0.00  0.00     0.089 A 
ATOM     17  C   UNL d   1      30.899  17.724 -23.646  0.00  0.00     0.043 A 
ATOM     18  C   UNL d   1      30.644  17.150 -24.166  0.00  0.00     0.098 A 
ATOM     19  C   UNL d   1      31.138  16.502 -24.348  0.00  0.00     0.049 A 
ATOM     20  C   UNL d   1      31.881  16.450 -24.000  0.00  0.00     0.098 A 
ATOM     21  C   UNL d   1      32.134  17.036 -23.472  0.00  0.00     0.043 A 
BRANCH  18  22
ATOM     22  O   UNL d   1      29.904  17.203 -24.512  0.00  0.00    -0.328 OA
ATOM     23  C   UNL d   1      29.233  17.032 -24.068  0.00  0.00     0.181 C 
ENDBRANCH  18  22
BRANCH  20  24
ATOM     24  O   UNL d   1      32.367  15.825 -24.171  0.00  0.00    -0.328 OA
ATOM     25  C   UNL d   1      32.845  15.846 -24.838  0.00  0.00     0.181 C 
ENDBRANCH  20  24
ENDBRANCH  14  16
ENDBRANCH  12  13
ENDBRANCH   2  12
BRANCH   1  26
ATOM     26  C   UNL d   1      32.853  20.920 -24.112  0.00  0.00     0.200 C 
ATOM     27  O   UNL d   1      33.238  20.444 -24.662  0.00  0.00    -0.286 OA
BRANCH  26  28
ATOM     28  C   UNL d   1      32.477  21.612 -24.359  0.00  0.00     0.039 A 
ATOM     29  C   UNL d   1      31.649  21.681 -24.311  0.00  0.00     0.003 A 
ATOM     30  C   UNL d   1      31.265  22.377 -24.559  0.00  0.00     0.000 A 
ATOM     31  C   UNL d   1      31.710  23.004 -24.853  0.00  0.00     0.000 A 
ATOM     32  C   UNL d   1      32.542  22.919 -24.894  0.00  0.00     0.000 A 
ATOM     33  C   UNL d   1      32.925  22.223 -24.646  0.00  0.00     0.003 A 
BRANCH  31  34
ATOM     34  C   UNL d   1      31.320  23.691 -25.096  0.00  0.00     0.000 C 
ATOM     35  C   UNL d   1      30.497  23.698 -25.069  0.00  0.00     0.000 C 
ENDBRANCH  31  34
ENDBRANCH  26  28
ENDBRANCH   1  26
BRANCH  10  36
ATOM     36  C   UNL d   1      32.642  22.012 -19.917  0.00  0.00     0.000 C 
ATOM     37  C   UNL d   1      33.235  22.589 -19.839  0.00  0.00     0.000 C 
ENDBRANCH  10  36
TORSDOF 9
ENDMDL
