MODEL 1
REMARK VINA RESULT:       9.1      0.000      0.000
REMARK  3 active torsions:
REMARK  status: ('A' for Active; 'I' for Inactive)
REMARK    1  A    between atoms: C_5  and  C_1 
REMARK    2  A    between atoms: C_2  and  C_5 
REMARK    3  A    between atoms: C_12  and  C_5 
ROOT
ATOM      1  C   UNL d   1     -42.303-122.494 -49.977  0.00  0.00     0.021 C 
ENDROOT
BRANCH   1   2
ATOM      2  C   UNL d   1     -41.869-122.038 -50.511  0.00  0.00     0.021 A 
ATOM      3  C   UNL d   1     -41.468-121.308 -50.417  0.00  0.00     0.082 A 
ATOM      4  N   UNL d   1     -41.134-121.126 -51.148  0.00  0.00    -0.246 NA
ATOM      5  C   UNL d   1     -41.410-120.849 -49.729  0.00  0.00     0.021 C 
ATOM      6  C   UNL d   1     -41.320-121.722 -51.685  0.00  0.00     0.081 A 
ATOM      7  C   UNL d   1     -41.774-122.280 -51.284  0.00  0.00     0.019 A 
ATOM      8  C   UNL d   1     -41.145-121.844 -52.486  0.00  0.00     0.019 A 
ATOM      9  C   UNL d   1     -42.049-122.953 -51.676  0.00  0.00     0.002 A 
ATOM     10  C   UNL d   1     -41.877-123.077 -52.473  0.00  0.00     0.000 A 
ATOM     11  C   UNL d   1     -41.433-122.527 -52.859  0.00  0.00     0.002 A 
ENDBRANCH   1   2
BRANCH   1  12
ATOM     12  C   UNL d   1     -41.916-122.923 -49.377  0.00  0.00     0.021 A 
ATOM     13  C   UNL d   1     -41.379-123.528 -49.510  0.00  0.00     0.082 A 
ATOM     14  N   UNL d   1     -41.127-123.805 -48.775  0.00  0.00    -0.246 NA
ATOM     15  C   UNL d   1     -41.127-123.817 -50.265  0.00  0.00     0.021 C 
ATOM     16  C   UNL d   1     -41.510-123.369 -48.194  0.00  0.00     0.081 A 
ATOM     17  C   UNL d   1     -41.997-122.825 -48.565  0.00  0.00     0.019 A 
ATOM     18  C   UNL d   1     -41.478-123.398 -47.369  0.00  0.00     0.019 A 
ATOM     19  C   UNL d   1     -42.456-122.306 -48.115  0.00  0.00     0.002 A 
ATOM     20  C   UNL d   1     -42.423-122.335 -47.288  0.00  0.00     0.000 A 
ATOM     21  C   UNL d   1     -41.937-122.879 -46.916  0.00  0.00     0.002 A 
ENDBRANCH   1  12
BRANCH   1  22
ATOM     22  C   UNL d   1     -43.117-122.531 -50.028  0.00  0.00     0.082 A 
ATOM     23  N   UNL d   1     -43.493-123.252 -50.100  0.00  0.00    -0.244 NA
ATOM     24  C   UNL d   1     -44.309-123.294 -50.151  0.00  0.00     0.099 A 
ATOM     25  C   UNL d   1     -44.750-122.578 -50.127  0.00  0.00     0.021 A 
ATOM     26  C   UNL d   1     -44.379-121.883 -50.058  0.00  0.00     0.003 A 
ATOM     27  C   UNL d   1     -43.566-121.834 -50.007  0.00  0.00     0.019 A 
ENDBRANCH   1  22
TORSDOF 3
ENDMDL
MODEL 2
REMARK VINA RESULT:      10.0      1.192      3.909
REMARK  3 active torsions:
REMARK  status: ('A' for Active; 'I' for Inactive)
REMARK    1  A    between atoms: C_5  and  C_1 
REMARK    2  A    between atoms: C_2  and  C_5 
REMARK    3  A    between atoms: C_12  and  C_5 
ROOT
ATOM      1  C   UNL d   1     -42.084-122.277 -51.395  0.00  0.00     0.021 C 
ENDROOT
BRANCH   1   2
ATOM      2  C   UNL d   1     -42.684-122.520 -50.883  0.00  0.00     0.021 A 
ATOM      3  C   UNL d   1     -43.518-122.468 -50.944  0.00  0.00     0.082 A 
ATOM      4  N   UNL d   1     -43.827-122.806 -50.259  0.00  0.00    -0.246 NA
ATOM      5  C   UNL d   1     -43.959-122.142 -51.566  0.00  0.00     0.021 C 
ATOM      6  C   UNL d   1     -43.207-123.063 -49.782  0.00  0.00     0.081 A 
ATOM      7  C   UNL d   1     -42.505-122.882 -50.174  0.00  0.00     0.019 A 
ATOM      8  C   UNL d   1     -43.171-123.437 -49.043  0.00  0.00     0.019 A 
ATOM      9  C   UNL d   1     -41.777-123.072 -49.835  0.00  0.00     0.002 A 
ATOM     10  C   UNL d   1     -41.738-123.444 -49.100  0.00  0.00     0.000 A 
ATOM     11  C   UNL d   1     -42.428-123.618 -48.722  0.00  0.00     0.002 A 
ENDBRANCH   1   2
BRANCH   1  12
ATOM     12  C   UNL d   1     -41.796-122.792 -51.984  0.00  0.00     0.021 A 
ATOM     13  C   UNL d   1     -41.358-123.468 -51.836  0.00  0.00     0.082 A 
ATOM     14  N   UNL d   1     -41.185-123.817 -52.563  0.00  0.00    -0.246 NA
ATOM     15  C   UNL d   1     -41.123-123.758 -51.076  0.00  0.00     0.021 C 
ATOM     16  C   UNL d   1     -41.518-123.355 -53.154  0.00  0.00     0.081 A 
ATOM     17  C   UNL d   1     -41.895-122.722 -52.796  0.00  0.00     0.019 A 
ATOM     18  C   UNL d   1     -41.527-123.428 -53.977  0.00  0.00     0.019 A 
ATOM     19  C   UNL d   1     -42.285-122.157 -53.258  0.00  0.00     0.002 A 
ATOM     20  C   UNL d   1     -42.293-122.232 -54.083  0.00  0.00     0.000 A 
ATOM     21  C   UNL d   1     -41.915-122.865 -54.440  0.00  0.00     0.002 A 
ENDBRANCH   1  12
BRANCH   1  22
ATOM     22  C   UNL d   1     -41.762-121.529 -51.333  0.00  0.00     0.082 A 
ATOM     23  N   UNL d   1     -41.452-121.270 -50.624  0.00  0.00    -0.244 NA
ATOM     24  C   UNL d   1     -41.128-120.521 -50.559  0.00  0.00     0.099 A 
ATOM     25  C   UNL d   1     -41.124-120.025 -51.238  0.00  0.00     0.021 A 
ATOM     26  C   UNL d   1     -41.426-120.282 -51.922  0.00  0.00     0.003 A 
ATOM     27  C   UNL d   1     -41.750-121.028 -51.995  0.00  0.00     0.019 A 
ENDBRANCH   1  22
TORSDOF 3
ENDMDL
