MODEL 1
REMARK VINA RESULT:      -2.4      0.000      0.000
REMARK  5 active torsions:
REMARK  status: ('A' for Active; 'I' for Inactive)
REMARK    1  A    between atoms: C_2  and  N_1 
REMARK    2  A    between atoms: C_4  and  C_7 
REMARK    3  A    between atoms: N_17  and  C_10 
REMARK    4  A    between atoms: C_20  and  N_17 
REMARK    5  A    between atoms: C_21  and  C_20 
ROOT
ATOM      1  C   UNL d   1      31.790  16.932 -24.005  0.00  0.00     0.144 A 
ATOM      2  C   UNL d   1      31.060  16.575 -23.829  0.00  0.00     0.027 A 
ATOM      3  C   UNL d   1      30.363  16.867 -24.179  0.00  0.00     0.021 A 
ATOM      4  C   UNL d   1      31.823  17.571 -24.523  0.00  0.00     0.103 A 
ATOM      5  C   UNL d   1      30.401  17.512 -24.700  0.00  0.00     0.003 A 
ATOM      6  C   UNL d   1      31.133  17.859 -24.869  0.00  0.00     0.021 A 
ENDROOT
BRANCH   3   7
ATOM      7  C   UNL d   1      29.638  16.516 -24.007  0.00  0.00     0.103 A 
ATOM      8  N   UNL d   1      29.183  16.796 -23.376  0.00  0.00    -0.145 NA
ATOM      9  N   UNL d   1      28.458  16.445 -23.203  0.00  0.00    -0.106 NA
ATOM     10  C   UNL d   1      28.185  15.814 -23.660  0.00  0.00     0.297 A 
ATOM     11  C   UNL d   1      28.640  15.535 -24.291  0.00  0.00     0.066 A 
ATOM     12  O   UNL d   1      27.461  15.463 -23.488  0.00  0.00    -0.264 OA
ATOM     13  C   UNL d   1      29.372  15.886 -24.468  0.00  0.00     0.024 A 
ATOM     14  C   UNL d   1      29.824  15.606 -25.096  0.00  0.00     0.002 C 
ENDBRANCH   3   7
BRANCH   1  15
ATOM     15  N   UNL d   1      32.480  16.636 -23.654  0.00  0.00    -0.112 N 
ATOM     16  O   UNL d   1      32.944  16.087 -24.069  0.00  0.00    -0.532 OA
ATOM     17  O   UNL d   1      32.707  16.883 -22.901  0.00  0.00    -0.532 OA
ENDBRANCH   1  15
BRANCH   4  18
ATOM     18  N   UNL d   1      32.549  17.921 -24.695  0.00  0.00    -0.239 NA
BRANCH  18  19
ATOM     19  C   UNL d   1      32.573  18.644 -25.097  0.00  0.00     0.144 C 
BRANCH  19  20
ATOM     20  C   UNL d   1      33.218  19.150 -25.009  0.00  0.00     0.255 C 
ATOM     21  O   UNL d   1      33.120  19.966 -25.046  0.00  0.00    -0.281 OA
ENDBRANCH  19  20
ENDBRANCH  18  19
ENDBRANCH   4  18
TORSDOF 5
ENDMDL
MODEL 2
REMARK VINA RESULT:      -1.8      4.793      6.351
REMARK  5 active torsions:
REMARK  status: ('A' for Active; 'I' for Inactive)
REMARK    1  A    between atoms: C_2  and  N_1 
REMARK    2  A    between atoms: C_4  and  C_7 
REMARK    3  A    between atoms: N_17  and  C_10 
REMARK    4  A    between atoms: C_20  and  N_17 
REMARK    5  A    between atoms: C_21  and  C_20 
ROOT
ATOM      1  C   UNL d   1      32.756  22.249 -21.334  0.00  0.00     0.144 A 
ATOM      2  C   UNL d   1      32.804  21.632 -21.888  0.00  0.00     0.027 A 
ATOM      3  C   UNL d   1      33.044  20.873 -21.642  0.00  0.00     0.021 A 
ATOM      4  C   UNL d   1      32.944  22.111 -20.545  0.00  0.00     0.103 A 
ATOM      5  C   UNL d   1      33.233  20.739 -20.844  0.00  0.00     0.003 A 
ATOM      6  C   UNL d   1      33.181  21.361 -20.301  0.00  0.00     0.021 A 
ENDROOT
BRANCH   3   7
ATOM      7  C   UNL d   1      33.093  20.259 -22.187  0.00  0.00     0.103 A 
ATOM      8  N   UNL d   1      33.048  20.420 -22.997  0.00  0.00    -0.145 NA
ATOM      9  N   UNL d   1      33.097  19.806 -23.544  0.00  0.00    -0.106 NA
ATOM     10  C   UNL d   1      33.192  19.029 -23.284  0.00  0.00     0.297 A 
ATOM     11  C   UNL d   1      33.237  18.867 -22.474  0.00  0.00     0.066 A 
ATOM     12  O   UNL d   1      33.241  18.414 -23.829  0.00  0.00    -0.264 OA
ATOM     13  C   UNL d   1      33.188  19.484 -21.920  0.00  0.00     0.024 A 
ATOM     14  C   UNL d   1      33.234  19.321 -21.115  0.00  0.00     0.002 C 
ENDBRANCH   3   7
BRANCH   1  15
ATOM     15  N   UNL d   1      32.517  23.002 -21.587  0.00  0.00    -0.112 N 
ATOM     16  O   UNL d   1      33.068  23.501 -21.955  0.00  0.00    -0.532 OA
ATOM     17  O   UNL d   1      31.741  23.255 -21.474  0.00  0.00    -0.532 OA
ENDBRANCH   1  15
BRANCH   4  18
ATOM     18  N   UNL d   1      32.895  22.726 -19.999  0.00  0.00    -0.239 NA
BRANCH  18  19
ATOM     19  C   UNL d   1      33.160  22.613 -19.223  0.00  0.00     0.144 C 
BRANCH  19  20
ATOM     20  C   UNL d   1      33.227  23.251 -18.706  0.00  0.00     0.255 C 
ATOM     21  O   UNL d   1      33.094  23.154 -17.900  0.00  0.00    -0.281 OA
ENDBRANCH  19  20
ENDBRANCH  18  19
ENDBRANCH   4  18
TORSDOF 5
ENDMDL
MODEL 3
REMARK VINA RESULT:       0.4      2.037      3.088
REMARK  5 active torsions:
REMARK  status: ('A' for Active; 'I' for Inactive)
REMARK    1  A    between atoms: C_2  and  N_1 
REMARK    2  A    between atoms: C_4  and  C_7 
REMARK    3  A    between atoms: N_17  and  C_10 
REMARK    4  A    between atoms: C_20  and  N_17 
REMARK    5  A    between atoms: C_21  and  C_20 
ROOT
ATOM      1  C   UNL d   1      32.679  19.509 -22.860  0.00  0.00     0.144 A 
ATOM      2  C   UNL d   1      32.353  18.754 -22.976  0.00  0.00     0.027 A 
ATOM      3  C   UNL d   1      32.267  18.454 -23.748  0.00  0.00     0.021 A 
ATOM      4  C   UNL d   1      32.917  19.959 -23.507  0.00  0.00     0.103 A 
ATOM      5  C   UNL d   1      32.509  18.912 -24.397  0.00  0.00     0.003 A 
ATOM      6  C   UNL d   1      32.832  19.663 -24.271  0.00  0.00     0.021 A 
ENDROOT
BRANCH   3   7
ATOM      7  C   UNL d   1      31.944  17.706 -23.867  0.00  0.00     0.103 A 
ATOM      8  N   UNL d   1      32.337  17.036 -23.584  0.00  0.00    -0.145 NA
ATOM      9  N   UNL d   1      32.015  16.288 -23.703  0.00  0.00    -0.106 NA
ATOM     10  C   UNL d   1      31.298  16.206 -24.103  0.00  0.00     0.297 A 
ATOM     11  C   UNL d   1      30.904  16.876 -24.386  0.00  0.00     0.066 A 
ATOM     12  O   UNL d   1      30.974  15.458 -24.222  0.00  0.00    -0.264 OA
ATOM     13  C   UNL d   1      31.227  17.632 -24.269  0.00  0.00     0.024 A 
ATOM     14  C   UNL d   1      30.834  18.298 -24.551  0.00  0.00     0.002 C 
ENDBRANCH   3   7
BRANCH   1  15
ATOM     15  N   UNL d   1      32.761  19.801 -22.088  0.00  0.00    -0.112 N 
ATOM     16  O   UNL d   1      33.236  19.388 -21.547  0.00  0.00    -0.532 OA
ATOM     17  O   UNL d   1      32.377  20.492 -21.858  0.00  0.00    -0.532 OA
ENDBRANCH   1  15
BRANCH   4  18
ATOM     18  N   UNL d   1      33.240  20.708 -23.388  0.00  0.00    -0.239 NA
BRANCH  18  19
ATOM     19  C   UNL d   1      32.970  21.350 -23.833  0.00  0.00     0.144 C 
BRANCH  19  20
ATOM     20  C   UNL d   1      33.170  22.121 -23.620  0.00  0.00     0.255 C 
ATOM     21  O   UNL d   1      33.076  22.741 -24.153  0.00  0.00    -0.281 OA
ENDBRANCH  19  20
ENDBRANCH  18  19
ENDBRANCH   4  18
TORSDOF 5
ENDMDL
