MODEL 1
REMARK VINA RESULT:      -5.5      0.000      0.000
REMARK  8 active torsions:
REMARK  status: ('A' for Active; 'I' for Inactive)
REMARK    1  A    between atoms: C_21  and  N_5 
REMARK    2  A    between atoms: S_10  and  C_6 
REMARK    3  A    between atoms: C_17  and  C_7 
REMARK    4  A    between atoms: C_23  and  S_10 
REMARK    5  A    between atoms: C_13  and  C_23 
REMARK       I    between atoms: N_19  and  C_13 
REMARK    6  A    between atoms: C_28  and  N_19 
REMARK    7  A    between atoms: C_24  and  C_21 
REMARK    8  A    between atoms: C_27  and  C_28 
ROOT
ATOM      1  C   UNL d   1     -47.262  13.867  22.664  0.00  0.00     0.081 A 
ATOM      2  C   UNL d   1     -46.553  14.212  22.532  0.00  0.00     0.117 A 
ATOM      3  N   UNL d   1     -45.821  13.774  22.514  0.00  0.00    -0.215 NA
ATOM      4  C   UNL d   1     -47.273  13.024  22.791  0.00  0.00     0.268 A 
ATOM      5  N   UNL d   1     -46.582  12.582  22.778  0.00  0.00    -0.253 N 
ATOM      6  C   UNL d   1     -45.823  12.985  22.632  0.00  0.00     0.182 A 
ATOM      7  C   UNL d   1     -47.849  14.430  22.647  0.00  0.00     0.013 A 
ATOM      8  S   UNL d   1     -46.672  15.038  22.423  0.00  0.00    -0.067 SA
ATOM      9  C   UNL d   1     -47.492  15.162  22.498  0.00  0.00     0.037 A 
ATOM     10  O   UNL d   1     -47.994  12.617  22.934  0.00  0.00    -0.267 OA
ENDROOT
BRANCH   6  11
ATOM     11  S   UNL d   1     -45.105  12.556  22.614  0.00  0.00    -0.044 SA
BRANCH  11  12
ATOM     12  C   UNL d   1     -44.490  12.778  22.156  0.00  0.00     0.101 C 
BRANCH  12  13
ATOM     13  C   UNL d   1     -43.839  12.345  22.078  0.00  0.00     0.286 C 
ATOM     14  N   UNL d   1     -43.161  12.583  21.707  0.00  0.00    -0.206 NA
ATOM     15  O   UNL d   1     -43.834  11.601  22.392  0.00  0.00    -0.265 OA
BRANCH  14  16
ATOM     16  C   UNL d   1     -43.217  13.360  21.400  0.00  0.00     0.102 C 
BRANCH  16  17
ATOM     17  C   UNL d   1     -42.475  13.734  21.185  0.00  0.00     0.021 A 
ATOM     18  C   UNL d   1     -42.397  14.577  21.130  0.00  0.00     0.028 A 
ATOM     19  C   UNL d   1     -41.703  14.907  20.930  0.00  0.00     0.119 A 
ATOM     20  O   UNL d   1     -41.497  15.703  20.843  0.00  0.00    -0.300 OA
ATOM     21  C   UNL d   1     -41.043  14.445  20.770  0.00  0.00     0.119 A 
ATOM     22  C   UNL d   1     -40.703  15.692  20.628  0.00  0.00     0.304 A 
ATOM     23  O   UNL d   1     -40.424  14.924  20.583  0.00  0.00    -0.300 OA
ATOM     24  C   UNL d   1     -41.098  13.598  20.818  0.00  0.00     0.026 A 
ATOM     25  C   UNL d   1     -41.808  13.273  21.023  0.00  0.00     0.004 A 
ENDBRANCH  16  17
ENDBRANCH  14  16
ENDBRANCH  12  13
ENDBRANCH  11  12
ENDBRANCH   6  11
BRANCH   5  26
ATOM     26  C   UNL d   1     -46.685  11.751  22.913  0.00  0.00     0.085 C 
BRANCH  26  27
ATOM     27  C   UNL d   1     -47.036  11.457  23.639  0.00  0.00     0.019 C 
ATOM     28  C   UNL d   1     -47.194  10.646  23.693  0.00  0.00     0.002 C 
ENDBRANCH  26  27
ENDBRANCH   5  26
BRANCH   7  29
ATOM     29  C   UNL d   1     -48.609  14.657  22.700  0.00  0.00     0.001 A 
ATOM     30  C   UNL d   1     -49.159  14.659  22.085  0.00  0.00     0.000 A 
ATOM     31  C   UNL d   1     -49.919  14.887  22.139  0.00  0.00     0.000 A 
ATOM     32  C   UNL d   1     -50.191  15.147  22.876  0.00  0.00     0.000 A 
ATOM     33  C   UNL d   1     -49.669  15.158  23.513  0.00  0.00     0.000 A 
ATOM     34  C   UNL d   1     -48.885  14.916  23.428  0.00  0.00     0.000 A 
ENDBRANCH   7  29
TORSDOF 8
ENDMDL
MODEL 2
REMARK VINA RESULT:      -4.3      3.513      8.185
REMARK  8 active torsions:
REMARK  status: ('A' for Active; 'I' for Inactive)
REMARK    1  A    between atoms: C_21  and  N_5 
REMARK    2  A    between atoms: S_10  and  C_6 
REMARK    3  A    between atoms: C_17  and  C_7 
REMARK    4  A    between atoms: C_23  and  S_10 
REMARK    5  A    between atoms: C_13  and  C_23 
REMARK       I    between atoms: N_19  and  C_13 
REMARK    6  A    between atoms: C_28  and  N_19 
REMARK    7  A    between atoms: C_24  and  C_21 
REMARK    8  A    between atoms: C_27  and  C_28 
ROOT
ATOM      1  C   UNL d   1     -39.501  14.722  17.920  0.00  0.00     0.081 A 
ATOM      2  C   UNL d   1     -40.271  14.874  18.077  0.00  0.00     0.117 A 
ATOM      3  N   UNL d   1     -40.584  14.911  18.869  0.00  0.00    -0.215 NA
ATOM      4  C   UNL d   1     -38.982  14.595  18.584  0.00  0.00     0.268 A 
ATOM      5  N   UNL d   1     -39.260  14.626  19.355  0.00  0.00    -0.253 N 
ATOM      6  C   UNL d   1     -40.104  14.793  19.495  0.00  0.00     0.182 A 
ATOM      7  C   UNL d   1     -39.379  14.724  17.116  0.00  0.00     0.013 A 
ATOM      8  S   UNL d   1     -40.677  14.980  17.348  0.00  0.00    -0.067 SA
ATOM      9  C   UNL d   1     -40.104  14.884  16.751  0.00  0.00     0.037 A 
ATOM     10  O   UNL d   1     -38.166  14.432  18.470  0.00  0.00    -0.267 OA
ENDROOT
BRANCH   6  11
ATOM     11  S   UNL d   1     -40.412  14.830  20.273  0.00  0.00    -0.044 SA
BRANCH  11  12
ATOM     12  C   UNL d   1     -41.160  14.608  20.444  0.00  0.00     0.101 C 
BRANCH  12  13
ATOM     13  C   UNL d   1     -41.542  14.859  21.082  0.00  0.00     0.286 C 
ATOM     14  N   UNL d   1     -42.148  14.468  21.448  0.00  0.00    -0.206 NA
ATOM     15  O   UNL d   1     -41.321  15.564  21.410  0.00  0.00    -0.265 OA
BRANCH  14  16
ATOM     16  C   UNL d   1     -42.338  13.746  21.071  0.00  0.00     0.102 C 
BRANCH  16  17
ATOM     17  C   UNL d   1     -43.006  13.314  21.398  0.00  0.00     0.021 A 
ATOM     18  C   UNL d   1     -43.743  13.694  21.575  0.00  0.00     0.028 A 
ATOM     19  C   UNL d   1     -44.349  13.280  21.877  0.00  0.00     0.119 A 
ATOM     20  O   UNL d   1     -45.109  13.527  22.090  0.00  0.00    -0.300 OA
ATOM     21  C   UNL d   1     -44.282  12.475  22.027  0.00  0.00     0.119 A 
ATOM     22  C   UNL d   1     -45.480  12.848  22.367  0.00  0.00     0.304 A 
ATOM     23  O   UNL d   1     -44.976  12.204  22.329  0.00  0.00    -0.300 OA
ATOM     24  C   UNL d   1     -43.552  12.073  21.858  0.00  0.00     0.026 A 
ATOM     25  C   UNL d   1     -42.942  12.504  21.551  0.00  0.00     0.004 A 
ENDBRANCH  16  17
ENDBRANCH  14  16
ENDBRANCH  12  13
ENDBRANCH  11  12
ENDBRANCH   6  11
BRANCH   5  26
ATOM     26  C   UNL d   1     -38.675  14.487  19.954  0.00  0.00     0.085 C 
BRANCH  26  27
ATOM     27  C   UNL d   1     -38.508  13.696  20.239  0.00  0.00     0.019 C 
ATOM     28  C   UNL d   1     -37.940  13.610  20.835  0.00  0.00     0.002 C 
ENDBRANCH  26  27
ENDBRANCH   5  26
BRANCH   7  29
ATOM     29  C   UNL d   1     -38.916  14.651  16.474  0.00  0.00     0.001 A 
ATOM     30  C   UNL d   1     -38.707  13.944  16.104  0.00  0.00     0.000 A 
ATOM     31  C   UNL d   1     -38.244  13.872  15.462  0.00  0.00     0.000 A 
ATOM     32  C   UNL d   1     -37.940  14.565  15.127  0.00  0.00     0.000 A 
ATOM     33  C   UNL d   1     -38.128  15.289  15.471  0.00  0.00     0.000 A 
ATOM     34  C   UNL d   1     -38.611  15.334  16.138  0.00  0.00     0.000 A 
ENDBRANCH   7  29
TORSDOF 8
ENDMDL
MODEL 3
REMARK VINA RESULT:      -3.5      2.321      7.321
REMARK  8 active torsions:
REMARK  status: ('A' for Active; 'I' for Inactive)
REMARK    1  A    between atoms: C_21  and  N_5 
REMARK    2  A    between atoms: S_10  and  C_6 
REMARK    3  A    between atoms: C_17  and  C_7 
REMARK    4  A    between atoms: C_23  and  S_10 
REMARK    5  A    between atoms: C_13  and  C_23 
REMARK       I    between atoms: N_19  and  C_13 
REMARK    6  A    between atoms: C_28  and  N_19 
REMARK    7  A    between atoms: C_24  and  C_21 
REMARK    8  A    between atoms: C_27  and  C_28 
ROOT
ATOM      1  C   UNL d   1     -40.330  14.366  19.552  0.00  0.00     0.081 A 
ATOM      2  C   UNL d   1     -41.073  14.111  19.403  0.00  0.00     0.117 A 
ATOM      3  N   UNL d   1     -41.604  13.847  20.016  0.00  0.00    -0.215 NA
ATOM      4  C   UNL d   1     -40.069  14.367  20.364  0.00  0.00     0.268 A 
ATOM      5  N   UNL d   1     -40.562  14.118  20.970  0.00  0.00    -0.253 N 
ATOM      6  C   UNL d   1     -41.367  13.845  20.778  0.00  0.00     0.182 A 
ATOM      7  C   UNL d   1     -39.967  14.578  18.855  0.00  0.00     0.013 A 
ATOM      8  S   UNL d   1     -41.211  14.156  18.574  0.00  0.00    -0.067 SA
ATOM      9  C   UNL d   1     -40.507  14.451  18.241  0.00  0.00     0.037 A 
ATOM     10  O   UNL d   1     -39.297  14.626  20.570  0.00  0.00    -0.267 OA
ENDROOT
BRANCH   6  11
ATOM     11  S   UNL d   1     -41.888  13.586  21.379  0.00  0.00    -0.044 SA
BRANCH  11  12
ATOM     12  C   UNL d   1     -42.610  13.288  21.214  0.00  0.00     0.101 C 
BRANCH  12  13
ATOM     13  C   UNL d   1     -42.919  12.681  21.606  0.00  0.00     0.286 C 
ATOM     14  N   UNL d   1     -43.691  12.620  21.840  0.00  0.00    -0.206 NA
ATOM     15  O   UNL d   1     -42.437  12.061  21.796  0.00  0.00    -0.265 OA
BRANCH  14  16
ATOM     16  C   UNL d   1     -44.147  13.286  21.620  0.00  0.00     0.102 C 
BRANCH  16  17
ATOM     17  C   UNL d   1     -44.953  13.306  21.918  0.00  0.00     0.021 A 
ATOM     18  C   UNL d   1     -45.293  14.010  22.245  0.00  0.00     0.028 A 
ATOM     19  C   UNL d   1     -46.040  14.011  22.516  0.00  0.00     0.119 A 
ATOM     20  O   UNL d   1     -46.483  14.621  22.854  0.00  0.00    -0.300 OA
ATOM     21  C   UNL d   1     -46.503  13.334  22.487  0.00  0.00     0.119 A 
ATOM     22  C   UNL d   1     -47.213  14.283  23.020  0.00  0.00     0.304 A 
ATOM     23  O   UNL d   1     -47.227  13.496  22.797  0.00  0.00    -0.300 OA
ATOM     24  C   UNL d   1     -46.183  12.616  22.163  0.00  0.00     0.026 A 
ATOM     25  C   UNL d   1     -45.424  12.626  21.891  0.00  0.00     0.004 A 
ENDBRANCH  16  17
ENDBRANCH  14  16
ENDBRANCH  12  13
ENDBRANCH  11  12
ENDBRANCH   6  11
BRANCH   5  26
ATOM     26  C   UNL d   1     -40.221  14.153  21.747  0.00  0.00     0.085 C 
BRANCH  26  27
ATOM     27  C   UNL d   1     -39.489  13.746  21.932  0.00  0.00     0.019 C 
ATOM     28  C   UNL d   1     -39.198  13.804  22.704  0.00  0.00     0.002 C 
ENDBRANCH  26  27
ENDBRANCH   5  26
BRANCH   7  29
ATOM     29  C   UNL d   1     -39.348  14.852  18.439  0.00  0.00     0.001 A 
ATOM     30  C   UNL d   1     -39.176  15.645  18.290  0.00  0.00     0.000 A 
ATOM     31  C   UNL d   1     -38.557  15.918  17.873  0.00  0.00     0.000 A 
ATOM     32  C   UNL d   1     -38.032  15.363  17.555  0.00  0.00     0.000 A 
ATOM     33  C   UNL d   1     -38.173  14.562  17.684  0.00  0.00     0.000 A 
ATOM     34  C   UNL d   1     -38.825  14.306  18.121  0.00  0.00     0.000 A 
ENDBRANCH   7  29
TORSDOF 8
ENDMDL
MODEL 4
REMARK VINA RESULT:      -3.5      1.288      1.707
REMARK  8 active torsions:
REMARK  status: ('A' for Active; 'I' for Inactive)
REMARK    1  A    between atoms: C_21  and  N_5 
REMARK    2  A    between atoms: S_10  and  C_6 
REMARK    3  A    between atoms: C_17  and  C_7 
REMARK    4  A    between atoms: C_23  and  S_10 
REMARK    5  A    between atoms: C_13  and  C_23 
REMARK       I    between atoms: N_19  and  C_13 
REMARK    6  A    between atoms: C_28  and  N_19 
REMARK    7  A    between atoms: C_24  and  C_21 
REMARK    8  A    between atoms: C_27  and  C_28 
ROOT
ATOM      1  C   UNL d   1     -46.630  12.766  22.647  0.00  0.00     0.081 A 
ATOM      2  C   UNL d   1     -46.274  13.217  22.090  0.00  0.00     0.117 A 
ATOM      3  N   UNL d   1     -45.441  13.170  21.917  0.00  0.00    -0.215 NA
ATOM      4  C   UNL d   1     -46.140  12.217  23.078  0.00  0.00     0.268 A 
ATOM      5  N   UNL d   1     -45.336  12.154  22.930  0.00  0.00    -0.253 N 
ATOM      6  C   UNL d   1     -44.977  12.659  22.317  0.00  0.00     0.182 A 
ATOM      7  C   UNL d   1     -47.423  12.941  22.678  0.00  0.00     0.013 A 
ATOM      8  S   UNL d   1     -46.855  13.714  21.737  0.00  0.00    -0.067 SA
ATOM      9  C   UNL d   1     -47.573  13.530  22.116  0.00  0.00     0.037 A 
ATOM     10  O   UNL d   1     -46.467  11.721  23.673  0.00  0.00    -0.267 OA
ENDROOT
BRANCH   6  11
ATOM     11  S   UNL d   1     -44.159  12.613  22.146  0.00  0.00    -0.044 SA
BRANCH  11  12
ATOM     12  C   UNL d   1     -43.805  13.106  21.628  0.00  0.00     0.101 C 
BRANCH  12  13
ATOM     13  C   UNL d   1     -43.252  12.868  21.124  0.00  0.00     0.286 C 
ATOM     14  N   UNL d   1     -42.570  13.268  20.955  0.00  0.00    -0.206 NA
ATOM     15  O   UNL d   1     -43.362  12.168  20.736  0.00  0.00    -0.265 OA
BRANCH  14  16
ATOM     16  C   UNL d   1     -42.504  13.985  21.382  0.00  0.00     0.102 C 
BRANCH  16  17
ATOM     17  C   UNL d   1     -41.827  14.478  21.188  0.00  0.00     0.021 A 
ATOM     18  C   UNL d   1     -41.041  14.163  21.143  0.00  0.00     0.028 A 
ATOM     19  C   UNL d   1     -40.427  14.633  20.962  0.00  0.00     0.119 A 
ATOM     20  O   UNL d   1     -39.624  14.453  20.887  0.00  0.00    -0.300 OA
ATOM     21  C   UNL d   1     -40.533  15.433  20.815  0.00  0.00     0.119 A 
ATOM     22  C   UNL d   1     -39.266  15.167  20.693  0.00  0.00     0.304 A 
ATOM     23  O   UNL d   1     -39.821  15.768  20.649  0.00  0.00    -0.300 OA
ATOM     24  C   UNL d   1     -41.312  15.771  20.855  0.00  0.00     0.026 A 
ATOM     25  C   UNL d   1     -41.929  15.285  21.039  0.00  0.00     0.004 A 
ENDBRANCH  16  17
ENDBRANCH  14  16
ENDBRANCH  12  13
ENDBRANCH  11  12
ENDBRANCH   6  11
BRANCH   5  26
ATOM     26  C   UNL d   1     -44.927  11.582  23.405  0.00  0.00     0.085 C 
BRANCH  26  27
ATOM     27  C   UNL d   1     -45.110  10.746  23.355  0.00  0.00     0.019 C 
ATOM     28  C   UNL d   1     -44.579  10.211  23.696  0.00  0.00     0.002 C 
ENDBRANCH  26  27
ENDBRANCH   5  26
BRANCH   7  29
ATOM     29  C   UNL d   1     -48.155  12.844  22.973  0.00  0.00     0.001 A 
ATOM     30  C   UNL d   1     -48.617  12.163  22.908  0.00  0.00     0.000 A 
ATOM     31  C   UNL d   1     -49.349  12.066  23.204  0.00  0.00     0.000 A 
ATOM     32  C   UNL d   1     -49.685  12.702  23.615  0.00  0.00     0.000 A 
ATOM     33  C   UNL d   1     -49.252  13.397  23.698  0.00  0.00     0.000 A 
ATOM     34  C   UNL d   1     -48.493  13.469  23.381  0.00  0.00     0.000 A 
ENDBRANCH   7  29
TORSDOF 8
ENDMDL
MODEL 5
REMARK VINA RESULT:      -2.9      1.367      2.106
REMARK  8 active torsions:
REMARK  status: ('A' for Active; 'I' for Inactive)
REMARK    1  A    between atoms: C_21  and  N_5 
REMARK    2  A    between atoms: S_10  and  C_6 
REMARK    3  A    between atoms: C_17  and  C_7 
REMARK    4  A    between atoms: C_23  and  S_10 
REMARK    5  A    between atoms: C_13  and  C_23 
REMARK       I    between atoms: N_19  and  C_13 
REMARK    6  A    between atoms: C_28  and  N_19 
REMARK    7  A    between atoms: C_24  and  C_21 
REMARK    8  A    between atoms: C_27  and  C_28 
ROOT
ATOM      1  C   UNL d   1     -47.790  12.460  22.951  0.00  0.00     0.081 A 
ATOM      2  C   UNL d   1     -47.264  11.880  23.112  0.00  0.00     0.117 A 
ATOM      3  N   UNL d   1     -46.420  11.990  23.057  0.00  0.00    -0.215 NA
ATOM      4  C   UNL d   1     -47.479  13.218  22.715  0.00  0.00     0.268 A 
ATOM      5  N   UNL d   1     -46.672  13.348  22.654  0.00  0.00    -0.253 N 
ATOM      6  C   UNL d   1     -46.122  12.697  22.836  0.00  0.00     0.182 A 
ATOM      7  C   UNL d   1     -48.547  12.182  23.055  0.00  0.00     0.013 A 
ATOM      8  S   UNL d   1     -47.687  11.186  23.332  0.00  0.00    -0.067 SA
ATOM      9  C   UNL d   1     -48.494  11.390  23.292  0.00  0.00     0.037 A 
ATOM     10  O   UNL d   1     -47.992  13.859  22.535  0.00  0.00    -0.267 OA
ENDROOT
BRANCH   6  11
ATOM     11  S   UNL d   1     -45.294  12.805  22.782  0.00  0.00    -0.044 SA
BRANCH  11  12
ATOM     12  C   UNL d   1     -44.859  12.466  22.204  0.00  0.00     0.101 C 
BRANCH  12  13
ATOM     13  C   UNL d   1     -44.167  12.121  22.340  0.00  0.00     0.286 C 
ATOM     14  N   UNL d   1     -43.460  12.347  22.018  0.00  0.00    -0.206 NA
ATOM     15  O   UNL d   1     -44.146  11.486  22.839  0.00  0.00    -0.265 OA
BRANCH  14  16
ATOM     16  C   UNL d   1     -43.536  13.007  21.510  0.00  0.00     0.102 C 
BRANCH  16  17
ATOM     17  C   UNL d   1     -42.801  13.385  21.271  0.00  0.00     0.021 A 
ATOM     18  C   UNL d   1     -42.724  14.229  21.231  0.00  0.00     0.028 A 
ATOM     19  C   UNL d   1     -42.037  14.561  21.009  0.00  0.00     0.119 A 
ATOM     20  O   UNL d   1     -41.833  15.358  20.929  0.00  0.00    -0.300 OA
ATOM     21  C   UNL d   1     -41.386  14.102  20.813  0.00  0.00     0.119 A 
ATOM     22  C   UNL d   1     -41.049  15.351  20.683  0.00  0.00     0.304 A 
ATOM     23  O   UNL d   1     -40.774  14.583  20.611  0.00  0.00    -0.300 OA
ATOM     24  C   UNL d   1     -41.441  13.254  20.846  0.00  0.00     0.026 A 
ATOM     25  C   UNL d   1     -42.143  12.927  21.073  0.00  0.00     0.004 A 
ENDBRANCH  16  17
ENDBRANCH  14  16
ENDBRANCH  12  13
ENDBRANCH  11  12
ENDBRANCH   6  11
BRANCH   5  26
ATOM     26  C   UNL d   1     -46.452  14.131  22.413  0.00  0.00     0.085 C 
BRANCH  26  27
ATOM     27  C   UNL d   1     -46.570  14.807  22.928  0.00  0.00     0.019 C 
ATOM     28  C   UNL d   1     -46.772  15.530  22.579  0.00  0.00     0.002 C 
ENDBRANCH  26  27
ENDBRANCH   5  26
BRANCH   7  29
ATOM     29  C   UNL d   1     -49.337  12.270  23.049  0.00  0.00     0.001 A 
ATOM     30  C   UNL d   1     -49.808  12.460  23.698  0.00  0.00     0.000 A 
ATOM     31  C   UNL d   1     -50.599  12.548  23.691  0.00  0.00     0.000 A 
ATOM     32  C   UNL d   1     -50.992  12.441  22.970  0.00  0.00     0.000 A 
ATOM     33  C   UNL d   1     -50.552  12.250  22.301  0.00  0.00     0.000 A 
ATOM     34  C   UNL d   1     -49.732  12.164  22.338  0.00  0.00     0.000 A 
ENDBRANCH   7  29
TORSDOF 8
ENDMDL
