MODEL 1
REMARK VINA RESULT:      -2.6      0.000      0.000
REMARK  5 active torsions:
REMARK  status: ('A' for Active; 'I' for Inactive)
REMARK    1  A    between atoms: N_8  and  C_1 
REMARK    2  A    between atoms: C_11  and  C_2 
REMARK    3  A    between atoms: C_4  and  C_6 
REMARK       I    between atoms: C_6  and  N_8 
REMARK    4  A    between atoms: O_17  and  C_11 
REMARK    5  A    between atoms: C_19  and  O_17 
ROOT
ATOM      1  C   UNL d   1      30.685  15.782 -23.475  0.00  0.00     0.114 A 
ATOM      2  C   UNL d   1      31.725  16.516 -23.845  0.00  0.00     0.094 A 
ATOM      3  S   UNL d   1      31.143  16.440 -23.296  0.00  0.00    -0.062 SA
ATOM      4  C   UNL d   1      31.615  15.877 -24.379  0.00  0.00     0.013 A 
ATOM      5  C   UNL d   1      31.000  15.453 -24.150  0.00  0.00     0.027 A 
ATOM      6  C   UNL d   1      32.080  15.717 -25.042  0.00  0.00     0.001 C 
ENDROOT
BRANCH   1   7
ATOM      7  N   UNL d   1      30.006  15.488 -23.044  0.00  0.00    -0.201 NA
ATOM      8  C   UNL d   1      29.257  15.740 -23.252  0.00  0.00     0.286 C 
ATOM      9  O   UNL d   1      28.606  15.453 -22.830  0.00  0.00    -0.265 OA
BRANCH   8  10
ATOM     10  C   UNL d   1      29.158  16.272 -23.871  0.00  0.00     0.088 A 
ATOM     11  S   UNL d   1      29.014  17.069 -23.794  0.00  0.00    -0.071 SA
ATOM     12  C   UNL d   1      28.952  17.392 -24.544  0.00  0.00     0.087 A 
ATOM     13 CL   UNL d   1      28.811  18.172 -24.684  0.00  0.00    -0.075 Cl
ATOM     14  C   UNL d   1      29.063  16.762 -25.097  0.00  0.00     0.019 A 
ATOM     15  C   UNL d   1      29.186  16.089 -24.680  0.00  0.00     0.013 A 
ENDBRANCH   8  10
ENDBRANCH   1   7
BRANCH   2  16
ATOM     16  C   UNL d   1      32.314  17.101 -23.881  0.00  0.00     0.306 C 
ATOM     17  O   UNL d   1      32.680  17.236 -24.596  0.00  0.00    -0.258 OA
BRANCH  16  18
ATOM     18  O   UNL d   1      32.527  17.535 -23.225  0.00  0.00    -0.271 OA
BRANCH  18  19
ATOM     19  C   UNL d   1      32.930  18.245 -23.308  0.00  0.00     0.126 C 
ATOM     20  C   UNL d   1      33.080  18.698 -22.636  0.00  0.00     0.029 C 
ENDBRANCH  18  19
ENDBRANCH  16  18
ENDBRANCH   2  16
TORSDOF 5
ENDMDL
MODEL 2
REMARK VINA RESULT:      -1.9      1.578      3.418
REMARK  5 active torsions:
REMARK  status: ('A' for Active; 'I' for Inactive)
REMARK    1  A    between atoms: N_8  and  C_1 
REMARK    2  A    between atoms: C_11  and  C_2 
REMARK    3  A    between atoms: C_4  and  C_6 
REMARK       I    between atoms: C_6  and  N_8 
REMARK    4  A    between atoms: O_17  and  C_11 
REMARK    5  A    between atoms: C_19  and  O_17 
ROOT
ATOM      1  C   UNL d   1      31.099  15.717 -24.585  0.00  0.00     0.114 A 
ATOM      2  C   UNL d   1      29.921  16.304 -24.430  0.00  0.00     0.094 A 
ATOM      3  S   UNL d   1      30.531  16.192 -24.942  0.00  0.00    -0.062 SA
ATOM      4  C   UNL d   1      30.127  15.880 -23.736  0.00  0.00     0.013 A 
ATOM      5  C   UNL d   1      30.822  15.539 -23.840  0.00  0.00     0.027 A 
ATOM      6  C   UNL d   1      29.672  15.828 -23.049  0.00  0.00     0.001 C 
ENDROOT
BRANCH   1   7
ATOM      7  N   UNL d   1      31.841  15.453 -24.921  0.00  0.00    -0.201 NA
ATOM      8  C   UNL d   1      32.526  15.869 -24.763  0.00  0.00     0.286 C 
ATOM      9  O   UNL d   1      33.239  15.608 -25.091  0.00  0.00    -0.265 OA
BRANCH   8  10
ATOM     10  C   UNL d   1      32.501  16.537 -24.283  0.00  0.00     0.088 A 
ATOM     11  S   UNL d   1      32.409  17.303 -24.542  0.00  0.00    -0.071 SA
ATOM     12  C   UNL d   1      32.414  17.796 -23.888  0.00  0.00     0.087 A 
ATOM     13 CL   UNL d   1      32.335  18.596 -23.931  0.00  0.00    -0.075 Cl
ATOM     14  C   UNL d   1      32.513  17.305 -23.206  0.00  0.00     0.019 A 
ATOM     15  C   UNL d   1      32.565  16.546 -23.456  0.00  0.00     0.013 A 
ENDBRANCH   8  10
ENDBRANCH   1   7
BRANCH   2  16
ATOM     16  C   UNL d   1      29.229  16.747 -24.559  0.00  0.00     0.306 C 
ATOM     17  O   UNL d   1      28.511  16.385 -24.430  0.00  0.00    -0.258 OA
BRANCH  16  18
ATOM     18  O   UNL d   1      29.256  17.523 -24.806  0.00  0.00    -0.271 OA
BRANCH  18  19
ATOM     19  C   UNL d   1      28.611  18.017 -24.698  0.00  0.00     0.126 C 
ATOM     20  C   UNL d   1      28.591  18.738 -25.097  0.00  0.00     0.029 C 
ENDBRANCH  18  19
ENDBRANCH  16  18
ENDBRANCH   2  16
TORSDOF 5
ENDMDL
MODEL 3
REMARK VINA RESULT:      -1.8      1.856      2.820
REMARK  5 active torsions:
REMARK  status: ('A' for Active; 'I' for Inactive)
REMARK    1  A    between atoms: N_8  and  C_1 
REMARK    2  A    between atoms: C_11  and  C_2 
REMARK    3  A    between atoms: C_4  and  C_6 
REMARK       I    between atoms: C_6  and  N_8 
REMARK    4  A    between atoms: O_17  and  C_11 
REMARK    5  A    between atoms: C_19  and  O_17 
ROOT
ATOM      1  C   UNL d   1      33.085  17.546 -23.782  0.00  0.00     0.114 A 
ATOM      2  C   UNL d   1      33.018  18.818 -23.417  0.00  0.00     0.094 A 
ATOM      3  S   UNL d   1      32.977  18.061 -23.151  0.00  0.00    -0.062 SA
ATOM      4  C   UNL d   1      33.156  18.761 -24.243  0.00  0.00     0.013 A 
ATOM      5  C   UNL d   1      33.194  18.008 -24.445  0.00  0.00     0.027 A 
ATOM      6  C   UNL d   1      33.241  19.396 -24.763  0.00  0.00     0.001 C 
ENDROOT
BRANCH   1   7
ATOM      7  N   UNL d   1      33.085  16.690 -23.761  0.00  0.00    -0.201 NA
ATOM      8  C   UNL d   1      32.425  16.281 -24.014  0.00  0.00     0.286 C 
ATOM      9  O   UNL d   1      32.432  15.454 -23.990  0.00  0.00    -0.265 OA
BRANCH   8  10
ATOM     10  C   UNL d   1      31.765  16.690 -24.287  0.00  0.00     0.088 A 
ATOM     11  S   UNL d   1      31.081  16.821 -23.866  0.00  0.00    -0.071 SA
ATOM     12  C   UNL d   1      30.567  17.248 -24.340  0.00  0.00     0.087 A 
ATOM     13 CL   UNL d   1      29.833  17.479 -24.107  0.00  0.00    -0.075 Cl
ATOM     14  C   UNL d   1      30.960  17.380 -25.078  0.00  0.00     0.019 A 
ATOM     15  C   UNL d   1      31.683  17.038 -25.035  0.00  0.00     0.013 A 
ENDBRANCH   8  10
ENDBRANCH   1   7
BRANCH   2  16
ATOM     16  C   UNL d   1      32.940  19.516 -22.970  0.00  0.00     0.306 C 
ATOM     17  O   UNL d   1      32.793  20.212 -23.366  0.00  0.00    -0.258 OA
BRANCH  16  18
ATOM     18  O   UNL d   1      33.006  19.515 -22.158  0.00  0.00    -0.271 OA
BRANCH  18  19
ATOM     19  C   UNL d   1      32.854  20.195 -21.727  0.00  0.00     0.126 C 
ATOM     20  C   UNL d   1      33.169  20.264 -20.969  0.00  0.00     0.029 C 
ENDBRANCH  18  19
ENDBRANCH  16  18
ENDBRANCH   2  16
TORSDOF 5
ENDMDL
MODEL 4
REMARK VINA RESULT:       0.1      1.636      1.966
REMARK  5 active torsions:
REMARK  status: ('A' for Active; 'I' for Inactive)
REMARK    1  A    between atoms: N_8  and  C_1 
REMARK    2  A    between atoms: C_11  and  C_2 
REMARK    3  A    between atoms: C_4  and  C_6 
REMARK       I    between atoms: C_6  and  N_8 
REMARK    4  A    between atoms: O_17  and  C_11 
REMARK    5  A    between atoms: C_19  and  O_17 
ROOT
ATOM      1  C   UNL d   1      30.160  17.237 -24.552  0.00  0.00     0.114 A 
ATOM      2  C   UNL d   1      31.250  16.628 -24.106  0.00  0.00     0.094 A 
ATOM      3  S   UNL d   1      30.760  17.254 -23.991  0.00  0.00    -0.062 SA
ATOM      4  C   UNL d   1      30.934  16.213 -24.765  0.00  0.00     0.013 A 
ATOM      5  C   UNL d   1      30.294  16.581 -25.017  0.00  0.00     0.027 A 
ATOM      6  C   UNL d   1      31.247  15.525 -25.096  0.00  0.00     0.001 C 
ENDROOT
BRANCH   1   7
ATOM      7  N   UNL d   1      29.515  17.793 -24.642  0.00  0.00    -0.201 NA
ATOM      8  C   UNL d   1      28.772  17.596 -24.366  0.00  0.00     0.286 C 
ATOM      9  O   UNL d   1      28.154  18.138 -24.455  0.00  0.00    -0.265 OA
BRANCH   8  10
ATOM     10  C   UNL d   1      28.646  16.867 -24.004  0.00  0.00     0.088 A 
ATOM     11  S   UNL d   1      28.654  16.727 -23.203  0.00  0.00    -0.071 SA
ATOM     12  C   UNL d   1      28.505  15.932 -23.080  0.00  0.00     0.087 A 
ATOM     13 CL   UNL d   1      28.470  15.590 -22.353  0.00  0.00    -0.075 Cl
ATOM     14  C   UNL d   1      28.402  15.577 -23.841  0.00  0.00     0.019 A 
ATOM     15  C   UNL d   1      28.489  16.151 -24.393  0.00  0.00     0.013 A 
ENDBRANCH   8  10
ENDBRANCH   1   7
BRANCH   2  16
ATOM     16  C   UNL d   1      31.927  16.428 -23.667  0.00  0.00     0.306 C 
ATOM     17  O   UNL d   1      32.608  16.856 -23.794  0.00  0.00    -0.258 OA
BRANCH  16  18
ATOM     18  O   UNL d   1      31.923  15.821 -23.123  0.00  0.00    -0.271 OA
BRANCH  18  19
ATOM     19  C   UNL d   1      32.612  15.602 -22.738  0.00  0.00     0.126 C 
ATOM     20  C   UNL d   1      32.595  15.496 -21.921  0.00  0.00     0.029 C 
ENDBRANCH  18  19
ENDBRANCH  16  18
ENDBRANCH   2  16
TORSDOF 5
ENDMDL
