MODEL 1
REMARK VINA RESULT:       2.4      0.000      0.000
REMARK  3 active torsions:
REMARK  status: ('A' for Active; 'I' for Inactive)
REMARK    1  A    between atoms: C_8  and  N_2 
REMARK    2  A    between atoms: C_14  and  C_8 
REMARK    3  A    between atoms: N_13  and  C_14 
ROOT
ATOM      1  C   UNL d   1     -41.483-122.427 -52.178  0.00  0.00     0.166 A 
ATOM      2  N   UNL d   1     -41.410-122.258 -51.348  0.00  0.00    -0.288 N 
ATOM      3  C   UNL d   1     -41.447-121.717 -52.647  0.00  0.00     0.117 A 
ATOM      4  C   UNL d   1     -41.352-121.111 -52.095  0.00  0.00     0.037 A 
ATOM      5  C   UNL d   1     -41.330-121.456 -51.292  0.00  0.00     0.067 A 
ATOM      6  N   UNL d   1     -41.575-123.124 -52.561  0.00  0.00    -0.225 NA
ATOM      7  N   UNL d   1     -41.504-121.713 -53.490  0.00  0.00    -0.241 NA
ATOM      8  C   UNL d   1     -41.632-123.115 -53.418  0.00  0.00     0.101 A 
ATOM      9  C   UNL d   1     -41.597-122.411 -53.884  0.00  0.00     0.099 A 
ATOM     10  C   UNL d   1     -41.238-120.966 -50.625  0.00  0.00     0.018 A 
ATOM     11  C   UNL d   1     -41.284-120.300 -52.225  0.00  0.00     0.003 A 
ATOM     12  C   UNL d   1     -41.193-119.822 -51.553  0.00  0.00     0.000 A 
ATOM     13  C   UNL d   1     -41.170-120.155 -50.755  0.00  0.00     0.002 A 
ATOM     14  C   UNL d   1     -41.726-123.817 -53.815  0.00  0.00     0.021 A 
ATOM     15  C   UNL d   1     -41.655-122.411 -54.729  0.00  0.00     0.021 A 
ATOM     16  C   UNL d   1     -41.123-119.007 -51.654  0.00  0.00     0.000 C 
ATOM     17  C   UNL d   1     -41.783-123.813 -54.658  0.00  0.00     0.002 A 
ATOM     18  C   UNL d   1     -41.747-123.101 -55.119  0.00  0.00     0.002 A 
ENDROOT
BRANCH   2  19
ATOM     19  C   UNL d   1     -41.414-122.754 -50.713  0.00  0.00     0.101 C 
BRANCH  19  20
ATOM     20  C   UNL d   1     -42.028-123.270 -50.614  0.00  0.00     0.100 C 
BRANCH  20  21
ATOM     21  N   UNL d   1     -42.037-123.428 -49.833  0.00  0.00    -0.298 N 
ATOM     22  C   UNL d   1     -41.375-123.658 -49.466  0.00  0.00     0.107 A 
ATOM     23  C   UNL d   1     -41.380-123.817 -48.684  0.00  0.00     0.142 A 
ATOM     24  O   UNL d   1     -42.068-123.742 -48.268  0.00  0.00    -0.300 OA
ATOM     25  C   UNL d   1     -42.735-123.511 -48.637  0.00  0.00     0.142 A 
ATOM     26  C   UNL d   1     -42.722-123.354 -49.416  0.00  0.00     0.107 A 
ENDBRANCH  20  21
ENDBRANCH  19  20
ENDBRANCH   2  19
TORSDOF 3
ENDMDL
