MODEL 1
REMARK VINA RESULT:      61.2      0.000      0.000
REMARK  5 active torsions:
REMARK  status: ('A' for Active; 'I' for Inactive)
REMARK    1  A    between atoms: N_5  and  S_1 
REMARK    2  A    between atoms: C_9  and  S_1 
REMARK    3  A    between atoms: C_2  and  N_4 
REMARK    4  A    between atoms: C_7  and  C_3 
REMARK       I    between atoms: N_4  and  C_6 
REMARK    5  A    between atoms: C_6  and  C_14 
ROOT
ATOM      1  C   UNL d   1      13.868  14.918  -4.082  0.00  0.00     0.104 A 
ATOM      2  C   UNL d   1      13.820  13.743  -2.924  0.00  0.00     0.058 A 
ATOM      3  C   UNL d   1      14.140  15.077  -3.317  0.00  0.00     0.013 A 
ATOM      4  C   UNL d   1      13.574  14.173  -4.262  0.00  0.00     0.013 A 
ATOM      5  C   UNL d   1      14.114  14.488  -2.744  0.00  0.00     0.005 A 
ATOM      6  C   UNL d   1      13.548  13.585  -3.690  0.00  0.00     0.005 A 
ENDROOT
BRANCH   2   7
ATOM      7  C   UNL d   1      13.794  13.151  -2.344  0.00  0.00     0.280 C 
ATOM      8  N   UNL d   1      14.093  13.299  -1.590  0.00  0.00    -0.201 NA
ATOM      9  O   UNL d   1      13.471  12.429  -2.530  0.00  0.00    -0.265 OA
BRANCH   8  10
ATOM     10  C   UNL d   1      14.065  12.708  -1.019  0.00  0.00     0.119 A 
ATOM     11  C   UNL d   1      14.716  12.385  -0.623  0.00  0.00     0.084 A 
ATOM     12  C   UNL d   1      14.433  11.807  -0.096  0.00  0.00     0.014 A 
ATOM     13  C   UNL d   1      13.611  11.779  -0.173  0.00  0.00     0.037 A 
ATOM     14  S   UNL d   1      13.392  12.334  -0.740  0.00  0.00    -0.067 SA
BRANCH  11  15
ATOM     15  C   UNL d   1      15.506  12.593  -0.726  0.00  0.00     0.299 C 
ATOM     16  O   UNL d   1      16.020  12.064  -1.104  0.00  0.00    -0.264 OA
ATOM     17  N   UNL d   1      15.784  13.321  -0.456  0.00  0.00    -0.102 N 
ENDBRANCH  11  15
ENDBRANCH   8  10
ENDBRANCH   2   7
BRANCH   1  18
ATOM     18  S   UNL d   1      13.895  15.506  -4.656  0.00  0.00     0.271 S 
ATOM     19  O   UNL d   1      13.377  15.068  -5.132  0.00  0.00    -0.200 OA
ATOM     20  O   UNL d   1      14.408  15.942  -4.185  0.00  0.00    -0.200 OA
BRANCH  18  21
ATOM     21  N   UNL d   1      13.922  16.097  -5.230  0.00  0.00    -0.229 N 
ATOM     22  C   UNL d   1      14.532  16.651  -5.226  0.00  0.00     0.092 A 
ATOM     23  C   UNL d   1      14.558  17.244  -5.805  0.00  0.00     0.020 A 
ATOM     24  C   UNL d   1      13.976  17.279  -6.380  0.00  0.00     0.003 A 
ATOM     25  C   UNL d   1      13.361  16.726  -6.388  0.00  0.00     0.020 A 
ATOM     26  C   UNL d   1      13.333  16.137  -5.816  0.00  0.00     0.092 A 
ENDBRANCH  18  21
ENDBRANCH   1  18
TORSDOF 5
ENDMDL
MODEL 2
REMARK VINA RESULT:      61.2      2.084      3.012
REMARK  5 active torsions:
REMARK  status: ('A' for Active; 'I' for Inactive)
REMARK    1  A    between atoms: N_5  and  S_1 
REMARK    2  A    between atoms: C_9  and  S_1 
REMARK    3  A    between atoms: C_2  and  N_4 
REMARK    4  A    between atoms: C_7  and  C_3 
REMARK       I    between atoms: N_4  and  C_6 
REMARK    5  A    between atoms: C_6  and  C_14 
ROOT
ATOM      1  C   UNL d   1      13.698  16.590  -5.696  0.00  0.00     0.104 A 
ATOM      2  C   UNL d   1      13.552  14.970  -5.412  0.00  0.00     0.058 A 
ATOM      3  C   UNL d   1      13.157  16.313  -5.134  0.00  0.00     0.013 A 
ATOM      4  C   UNL d   1      14.162  16.055  -6.111  0.00  0.00     0.013 A 
ATOM      5  C   UNL d   1      13.088  15.505  -4.997  0.00  0.00     0.005 A 
ATOM      6  C   UNL d   1      14.093  15.249  -5.974  0.00  0.00     0.005 A 
ENDROOT
BRANCH   2   7
ATOM      7  C   UNL d   1      13.480  14.156  -5.271  0.00  0.00     0.280 C 
ATOM      8  N   UNL d   1      13.228  13.885  -4.535  0.00  0.00    -0.201 NA
ATOM      9  O   UNL d   1      13.662  13.635  -5.868  0.00  0.00    -0.265 OA
BRANCH   8  10
ATOM     10  C   UNL d   1      13.160  13.077  -4.402  0.00  0.00     0.119 A 
ATOM     11  C   UNL d   1      13.383  12.679  -3.712  0.00  0.00     0.084 A 
ATOM     12  C   UNL d   1      13.216  11.871  -3.818  0.00  0.00     0.014 A 
ATOM     13  C   UNL d   1      12.890  11.779  -4.571  0.00  0.00     0.037 A 
ATOM     14  S   UNL d   1      12.859  12.522  -4.924  0.00  0.00    -0.067 SA
BRANCH  11  15
ATOM     15  C   UNL d   1      13.713  13.014  -3.037  0.00  0.00     0.299 C 
ATOM     16  O   UNL d   1      13.782  13.839  -2.984  0.00  0.00    -0.264 OA
ATOM     17  N   UNL d   1      13.974  12.536  -2.418  0.00  0.00    -0.102 N 
ENDBRANCH  11  15
ENDBRANCH   8  10
ENDBRANCH   2   7
BRANCH   1  18
ATOM     18  S   UNL d   1      13.767  17.397  -5.833  0.00  0.00     0.271 S 
ATOM     19  O   UNL d   1      13.114  17.367  -6.344  0.00  0.00    -0.200 OA
ATOM     20  O   UNL d   1      14.413  17.429  -5.328  0.00  0.00    -0.200 OA
BRANCH  18  21
ATOM     21  N   UNL d   1      13.836  18.208  -5.971  0.00  0.00    -0.229 N 
ATOM     22  C   UNL d   1      13.191  18.637  -6.250  0.00  0.00     0.092 A 
ATOM     23  C   UNL d   1      13.263  19.452  -6.388  0.00  0.00     0.020 A 
ATOM     24  C   UNL d   1      13.976  19.828  -6.246  0.00  0.00     0.003 A 
ATOM     25  C   UNL d   1      14.626  19.401  -5.965  0.00  0.00     0.020 A 
ATOM     26  C   UNL d   1      14.558  18.594  -5.828  0.00  0.00     0.092 A 
ENDBRANCH  18  21
ENDBRANCH   1  18
TORSDOF 5
ENDMDL
MODEL 3
REMARK VINA RESULT:      61.2      2.210      6.012
REMARK  5 active torsions:
REMARK  status: ('A' for Active; 'I' for Inactive)
REMARK    1  A    between atoms: N_5  and  S_1 
REMARK    2  A    between atoms: C_9  and  S_1 
REMARK    3  A    between atoms: C_2  and  N_4 
REMARK    4  A    between atoms: C_7  and  C_3 
REMARK       I    between atoms: N_4  and  C_6 
REMARK    5  A    between atoms: C_6  and  C_14 
ROOT
ATOM      1  C   UNL d   1      14.072  15.350  -4.430  0.00  0.00     0.104 A 
ATOM      2  C   UNL d   1      14.556  16.885  -4.798  0.00  0.00     0.058 A 
ATOM      3  C   UNL d   1      14.336  15.858  -3.833  0.00  0.00     0.013 A 
ATOM      4  C   UNL d   1      14.052  15.614  -5.207  0.00  0.00     0.013 A 
ATOM      5  C   UNL d   1      14.576  16.621  -4.021  0.00  0.00     0.005 A 
ATOM      6  C   UNL d   1      14.292  16.376  -5.396  0.00  0.00     0.005 A 
ENDROOT
BRANCH   2   7
ATOM      7  C   UNL d   1      14.799  17.655  -4.986  0.00  0.00     0.280 C 
ATOM      8  N   UNL d   1      14.268  18.183  -5.330  0.00  0.00    -0.201 NA
ATOM      9  O   UNL d   1      15.564  17.879  -4.826  0.00  0.00    -0.265 OA
BRANCH   8  10
ATOM     10  C   UNL d   1      14.514  18.945  -5.514  0.00  0.00     0.119 A 
ATOM     11  C   UNL d   1      14.053  19.529  -5.876  0.00  0.00     0.084 A 
ATOM     12  C   UNL d   1      14.522  20.212  -5.956  0.00  0.00     0.014 A 
ATOM     13  C   UNL d   1      15.267  20.041  -5.642  0.00  0.00     0.037 A 
ATOM     14  S   UNL d   1      15.256  19.264  -5.372  0.00  0.00    -0.067 SA
BRANCH  11  15
ATOM     15  C   UNL d   1      13.270  19.456  -6.118  0.00  0.00     0.299 C 
ATOM     16  O   UNL d   1      12.772  20.118  -6.090  0.00  0.00    -0.264 OA
ATOM     17  N   UNL d   1      12.982  18.731  -6.386  0.00  0.00    -0.102 N 
ENDBRANCH  11  15
ENDBRANCH   8  10
ENDBRANCH   2   7
BRANCH   1  18
ATOM     18  S   UNL d   1      13.832  14.587  -4.242  0.00  0.00     0.271 S 
ATOM     19  O   UNL d   1      14.315  14.600  -3.568  0.00  0.00    -0.200 OA
ATOM     20  O   UNL d   1      13.354  14.572  -4.909  0.00  0.00    -0.200 OA
BRANCH  18  21
ATOM     21  N   UNL d   1      13.591  13.821  -4.054  0.00  0.00    -0.229 N 
ATOM     22  C   UNL d   1      13.012  13.447  -4.505  0.00  0.00     0.092 A 
ATOM     23  C   UNL d   1      12.770  12.677  -4.314  0.00  0.00     0.020 A 
ATOM     24  C   UNL d   1      13.108  12.289  -3.677  0.00  0.00     0.003 A 
ATOM     25  C   UNL d   1      13.690  12.661  -3.222  0.00  0.00     0.020 A 
ATOM     26  C   UNL d   1      13.931  13.423  -3.408  0.00  0.00     0.092 A 
ENDBRANCH  18  21
ENDBRANCH   1  18
TORSDOF 5
ENDMDL
