MODEL 1
REMARK VINA RESULT:      14.1      0.000      0.000
REMARK  2 active torsions:
REMARK  status: ('A' for Active; 'I' for Inactive)
REMARK    1  A    between atoms: C_7  and  C_1 
REMARK    2  A    between atoms: O_15  and  C_11 
ROOT
ATOM      1  C   UNL d   1      46.076 -17.652  43.957  0.00  0.00     0.103 A 
ATOM      2  C   UNL d   1      46.223 -18.217  44.539  0.00  0.00     0.067 A 
ATOM      3  O   UNL d   1      46.110 -17.864  43.181  0.00  0.00    -0.307 OA
ATOM      4  C   UNL d   1      46.404 -18.994  44.346  0.00  0.00     0.200 A 
ATOM      5  C   UNL d   1      46.437 -19.202  43.530  0.00  0.00     0.062 A 
ATOM      6  C   UNL d   1      46.289 -18.637  42.948  0.00  0.00     0.103 A 
ATOM      7  O   UNL d   1      46.548 -19.541  44.947  0.00  0.00    -0.286 OA
ATOM      8  C   UNL d   1      46.618 -19.982  43.334  0.00  0.00     0.005 A 
ATOM      9  C   UNL d   1      46.324 -18.852  42.168  0.00  0.00     0.025 A 
ATOM     10  C   UNL d   1      46.647 -20.172  42.537  0.00  0.00     0.000 A 
ATOM     11  C   UNL d   1      46.499 -19.607  41.954  0.00  0.00     0.002 A 
ENDROOT
BRANCH   1  12
ATOM     12  C   UNL d   1      45.900 -16.893  44.175  0.00  0.00     0.023 A 
ATOM     13  C   UNL d   1      46.309 -16.249  43.845  0.00  0.00     0.004 A 
ATOM     14  C   UNL d   1      46.145 -15.471  44.053  0.00  0.00     0.024 A 
ATOM     15  C   UNL d   1      45.536 -15.340  44.625  0.00  0.00     0.094 A 
ATOM     16  C   UNL d   1      45.127 -15.984  44.955  0.00  0.00     0.024 A 
ATOM     17  C   UNL d   1      45.298 -16.743  44.742  0.00  0.00     0.004 A 
BRANCH  15  18
ATOM     18  O   UNL d   1      45.348 -14.531  44.858  0.00  0.00    -0.328 OA
ATOM     19  C   UNL d   1      45.516 -13.916  44.318  0.00  0.00     0.181 C 
ENDBRANCH  15  18
ENDBRANCH   1  12
TORSDOF 2
ENDMDL
MODEL 2
REMARK VINA RESULT:      16.4      0.884      4.417
REMARK  2 active torsions:
REMARK  status: ('A' for Active; 'I' for Inactive)
REMARK    1  A    between atoms: C_7  and  C_1 
REMARK    2  A    between atoms: O_15  and  C_11 
ROOT
ATOM      1  C   UNL d   1      45.709 -15.978  44.466  0.00  0.00     0.103 A 
ATOM      2  C   UNL d   1      44.925 -15.784  44.635  0.00  0.00     0.067 A 
ATOM      3  O   UNL d   1      46.266 -15.398  44.449  0.00  0.00    -0.307 OA
ATOM      4  C   UNL d   1      44.699 -15.011  44.788  0.00  0.00     0.200 A 
ATOM      5  C   UNL d   1      45.292 -14.413  44.767  0.00  0.00     0.062 A 
ATOM      6  C   UNL d   1      46.076 -14.606  44.598  0.00  0.00     0.103 A 
ATOM      7  O   UNL d   1      43.908 -14.842  44.955  0.00  0.00    -0.286 OA
ATOM      8  C   UNL d   1      45.067 -13.634  44.920  0.00  0.00     0.005 A 
ATOM      9  C   UNL d   1      46.635 -14.021  44.582  0.00  0.00     0.025 A 
ATOM     10  C   UNL d   1      45.654 -13.062  44.897  0.00  0.00     0.000 A 
ATOM     11  C   UNL d   1      46.438 -13.256  44.728  0.00  0.00     0.002 A 
ENDROOT
BRANCH   1  12
ATOM     12  C   UNL d   1      45.905 -16.749  44.319  0.00  0.00     0.023 A 
ATOM     13  C   UNL d   1      45.940 -17.039  43.541  0.00  0.00     0.004 A 
ATOM     14  C   UNL d   1      46.137 -17.819  43.370  0.00  0.00     0.024 A 
ATOM     15  C   UNL d   1      46.306 -18.329  44.022  0.00  0.00     0.094 A 
ATOM     16  C   UNL d   1      46.270 -18.040  44.801  0.00  0.00     0.024 A 
ATOM     17  C   UNL d   1      46.076 -17.272  44.954  0.00  0.00     0.004 A 
BRANCH  15  18
ATOM     18  O   UNL d   1      46.515 -19.152  43.866  0.00  0.00    -0.328 OA
ATOM     19  C   UNL d   1      46.497 -19.420  43.075  0.00  0.00     0.181 C 
ENDBRANCH  15  18
ENDBRANCH   1  12
TORSDOF 2
ENDMDL
