MODEL 1
REMARK VINA RESULT:       9.6      0.000      0.000
REMARK  2 active torsions:
REMARK  status: ('A' for Active; 'I' for Inactive)
REMARK    1  A    between atoms: C_6  and  C_1 
REMARK    2  A    between atoms: C_8  and  C_5 
ROOT
ATOM      1  C   UNL d   1     -50.798  26.251  33.389  0.00  0.00     0.169 A 
ATOM      2  C   UNL d   1     -51.008  25.442  33.406  0.00  0.00     0.048 A 
ATOM      3  N   UNL d   1     -52.133  26.156  33.315  0.00  0.00    -0.148 NA
ATOM      4  N   UNL d   1     -51.502  26.689  33.332  0.00  0.00    -0.142 NA
ATOM      5  C   UNL d   1     -51.815  25.386  33.361  0.00  0.00     0.105 A 
ENDROOT
BRANCH   5   6
ATOM      6  C   UNL d   1     -52.240  24.703  33.361  0.00  0.00     0.019 A 
ATOM      7  C   UNL d   1     -51.851  23.976  33.398  0.00  0.00     0.002 A 
ATOM      8  C   UNL d   1     -52.275  23.267  33.399  0.00  0.00     0.000 A 
ATOM      9  C   UNL d   1     -53.099  23.299  33.362  0.00  0.00     0.000 A 
ATOM     10  C   UNL d   1     -53.499  24.023  33.325  0.00  0.00     0.000 A 
ATOM     11  C   UNL d   1     -53.064  24.719  33.325  0.00  0.00     0.002 A 
ENDBRANCH   5   6
BRANCH   1  12
ATOM     12  C   UNL d   1     -50.034  26.526  33.423  0.00  0.00     0.231 C 
ATOM     13  O   UNL d   1     -49.397  26.054  33.308  0.00  0.00    -0.643 OA
ATOM     14  O   UNL d   1     -49.882  27.319  33.581  0.00  0.00    -0.643 OA
ENDBRANCH   1  12
TORSDOF 2
ENDMDL
