MODEL 1
REMARK VINA RESULT:      39.2      0.000      0.000
REMARK  5 active torsions:
REMARK  status: ('A' for Active; 'I' for Inactive)
REMARK    1  A    between atoms: N_19  and  C_6 
REMARK    2  A    between atoms: N_15  and  C_21 
REMARK    3  A    between atoms: C_25  and  N_19 
REMARK    4  A    between atoms: C_21  and  C_22 
REMARK    5  A    between atoms: C_22  and  C_25 
ROOT
ATOM      1  N   UNL d   1      44.411 -14.093  38.035  0.00  0.00    -0.183 N 
ATOM      2  C   UNL d   1      44.489 -14.684  37.464  0.00  0.00     0.169 A 
ATOM      3  C   UNL d   1      43.840 -15.099  37.205  0.00  0.00     0.073 A 
ATOM      4  C   UNL d   1      43.112 -14.921  37.521  0.00  0.00     0.185 A 
ATOM      5  N   UNL d   1      43.034 -14.330  38.092  0.00  0.00    -0.142 NA
ATOM      6  C   UNL d   1      45.072 -13.689  38.280  0.00  0.00     0.218 A 
ATOM      7  N   UNL d   1      45.226 -14.854  37.153  0.00  0.00    -0.226 NA
ATOM      8  C   UNL d   1      43.917 -15.683  36.640  0.00  0.00     0.007 A 
ATOM      9  N   UNL d   1      42.444 -15.333  37.269  0.00  0.00    -0.225 NA
ATOM     10  C   UNL d   1      45.803 -13.853  37.977  0.00  0.00     0.071 A 
ATOM     11  C   UNL d   1      43.267 -16.099  36.382  0.00  0.00     0.019 A 
ATOM     12  C   UNL d   1      45.881 -14.444  37.406  0.00  0.00     0.087 A 
ATOM     13  C   UNL d   1      42.522 -15.923  36.698  0.00  0.00     0.083 A 
ATOM     14  C   UNL d   1      44.657 -15.853  36.330  0.00  0.00     0.000 C 
ATOM     15  C   UNL d   1      46.647 -14.618  37.085  0.00  0.00     0.021 C 
ATOM     16  C   UNL d   1      41.871 -16.333  36.446  0.00  0.00     0.021 C 
ENDROOT
BRANCH   6  17
ATOM     17  N   UNL d   1      44.983 -13.081  38.870  0.00  0.00    -0.380 NA
BRANCH  17  18
ATOM     18  C   UNL d   1      44.957 -12.454  39.438  0.00  0.00     0.164 C 
BRANCH  18  19
ATOM     19  C   UNL d   1      45.087 -12.621  40.251  0.00  0.00     0.054 C 
BRANCH  19  20
ATOM     20  C   UNL d   1      44.827 -12.080  40.835  0.00  0.00     0.084 C 
BRANCH  20  21
ATOM     21  N   UNL d   1      44.936 -12.254  41.655  0.00  0.00    -0.285 N 
ATOM     22  C   UNL d   1      45.639 -12.532  42.018  0.00  0.00     0.183 A 
ATOM     23  N   UNL d   1      45.485 -12.626  42.852  0.00  0.00    -0.222 NA
ATOM     24  C   UNL d   1      44.682 -12.404  42.999  0.00  0.00     0.120 A 
ATOM     25  C   UNL d   1      44.336 -12.170  42.254  0.00  0.00     0.102 A 
ENDBRANCH  20  21
ENDBRANCH  19  20
ENDBRANCH  18  19
ENDBRANCH  17  18
ENDBRANCH   6  17
TORSDOF 5
ENDMDL
