MODEL 1
REMARK VINA RESULT:      -2.3      0.000      0.000
REMARK  4 active torsions:
REMARK  status: ('A' for Active; 'I' for Inactive)
REMARK    1  A    between atoms: N_7  and  C_1 
REMARK    2  A    between atoms: C_8  and  C_2 
REMARK    3  A    between atoms: C_11  and  N_7 
REMARK    4  A    between atoms: C_19  and  C_12 
ROOT
ATOM      1  C   UNL d   1     -41.631-122.292 -51.936  0.00  0.00     0.189 A 
ATOM      2  C   UNL d   1     -41.571-122.529 -51.149  0.00  0.00     0.119 A 
ATOM      3  C   UNL d   1     -41.364-121.980 -50.568  0.00  0.00     0.204 A 
ATOM      4  O   UNL d   1     -41.484-121.506 -52.141  0.00  0.00    -0.289 OA
ATOM      5  C   UNL d   1     -41.219-121.201 -50.775  0.00  0.00     0.067 A 
ATOM      6  C   UNL d   1     -41.279-120.964 -51.563  0.00  0.00     0.105 A 
ATOM      7  O   UNL d   1     -41.303-122.218 -49.778  0.00  0.00    -0.286 OA
ATOM      8  C   UNL d   1     -41.134-120.172 -51.790  0.00  0.00     0.027 C 
ENDROOT
BRANCH   1   9
ATOM      9  N   UNL d   1     -41.845-122.852 -52.544  0.00  0.00    -0.222 NA
BRANCH   9  10
ATOM     10  C   UNL d   1     -41.869-122.625 -53.332  0.00  0.00     0.084 A 
ATOM     11  C   UNL d   1     -41.205-122.731 -53.818  0.00  0.00     0.019 A 
ATOM     12  C   UNL d   1     -41.229-122.502 -54.610  0.00  0.00     0.002 A 
ATOM     13  C   UNL d   1     -41.916-122.166 -54.921  0.00  0.00     0.000 A 
ATOM     14  C   UNL d   1     -42.572-122.060 -54.442  0.00  0.00     0.002 A 
ATOM     15  C   UNL d   1     -42.549-122.289 -53.650  0.00  0.00     0.019 A 
BRANCH  13  16
ATOM     16  C   UNL d   1     -41.940-121.937 -55.717  0.00  0.00     0.000 C 
ATOM     17  C   UNL d   1     -42.565-122.168 -56.192  0.00  0.00     0.000 C 
ENDBRANCH  13  16
ENDBRANCH   9  10
ENDBRANCH   1   9
BRANCH   2  18
ATOM     18  C   UNL d   1     -41.723-123.333 -50.949  0.00  0.00     0.202 C 
ATOM     19  O   UNL d   1     -42.488-123.635 -51.041  0.00  0.00    -0.286 OA
ATOM     20  C   UNL d   1     -41.123-123.814 -50.667  0.00  0.00     0.046 C 
ENDBRANCH   2  18
TORSDOF 4
ENDMDL
MODEL 2
REMARK VINA RESULT:      -2.2      1.747      2.586
REMARK  4 active torsions:
REMARK  status: ('A' for Active; 'I' for Inactive)
REMARK    1  A    between atoms: N_7  and  C_1 
REMARK    2  A    between atoms: C_8  and  C_2 
REMARK    3  A    between atoms: C_11  and  N_7 
REMARK    4  A    between atoms: C_19  and  C_12 
ROOT
ATOM      1  C   UNL d   1     -42.114-122.739 -49.969  0.00  0.00     0.189 A 
ATOM      2  C   UNL d   1     -42.172-122.914 -49.165  0.00  0.00     0.119 A 
ATOM      3  C   UNL d   1     -42.914-122.945 -48.804  0.00  0.00     0.204 A 
ATOM      4  O   UNL d   1     -42.797-122.595 -50.409  0.00  0.00    -0.289 OA
ATOM      5  C   UNL d   1     -43.589-122.801 -49.243  0.00  0.00     0.067 A 
ATOM      6  C   UNL d   1     -43.531-122.626 -50.047  0.00  0.00     0.105 A 
ATOM      7  O   UNL d   1     -42.973-123.120 -47.997  0.00  0.00    -0.286 OA
ATOM      8  C   UNL d   1     -44.212-122.477 -50.510  0.00  0.00     0.027 C 
ENDROOT
BRANCH   1   9
ATOM      9  N   UNL d   1     -41.351-122.706 -50.351  0.00  0.00    -0.222 NA
BRANCH   9  10
ATOM     10  C   UNL d   1     -41.295-122.700 -51.170  0.00  0.00     0.084 A 
ATOM     11  C   UNL d   1     -41.259-123.414 -51.591  0.00  0.00     0.019 A 
ATOM     12  C   UNL d   1     -41.203-123.408 -52.414  0.00  0.00     0.002 A 
ATOM     13  C   UNL d   1     -41.181-122.689 -52.820  0.00  0.00     0.000 A 
ATOM     14  C   UNL d   1     -41.216-121.984 -52.406  0.00  0.00     0.002 A 
ATOM     15  C   UNL d   1     -41.273-121.990 -51.583  0.00  0.00     0.019 A 
BRANCH  13  16
ATOM     16  C   UNL d   1     -41.125-122.684 -53.647  0.00  0.00     0.000 C 
ATOM     17  C   UNL d   1     -41.751-122.414 -54.099  0.00  0.00     0.000 C 
ENDBRANCH  13  16
ENDBRANCH   9  10
ENDBRANCH   1   9
BRANCH   2  18
ATOM     18  C   UNL d   1     -41.470-123.060 -48.723  0.00  0.00     0.202 C 
ATOM     19  O   UNL d   1     -41.132-123.816 -48.740  0.00  0.00    -0.286 OA
ATOM     20  C   UNL d   1     -41.123-122.464 -48.282  0.00  0.00     0.046 C 
ENDBRANCH   2  18
TORSDOF 4
ENDMDL
MODEL 3
REMARK VINA RESULT:       0.5      1.459      3.738
REMARK  4 active torsions:
REMARK  status: ('A' for Active; 'I' for Inactive)
REMARK    1  A    between atoms: N_7  and  C_1 
REMARK    2  A    between atoms: C_8  and  C_2 
REMARK    3  A    between atoms: C_11  and  N_7 
REMARK    4  A    between atoms: C_19  and  C_12 
ROOT
ATOM      1  C   UNL d   1     -41.681-122.511 -53.462  0.00  0.00     0.189 A 
ATOM      2  C   UNL d   1     -41.871-122.598 -54.260  0.00  0.00     0.119 A 
ATOM      3  C   UNL d   1     -42.080-121.936 -54.707  0.00  0.00     0.204 A 
ATOM      4  O   UNL d   1     -41.700-121.763 -53.114  0.00  0.00    -0.289 OA
ATOM      5  C   UNL d   1     -42.098-121.196 -54.358  0.00  0.00     0.067 A 
ATOM      6  C   UNL d   1     -41.908-121.109 -53.560  0.00  0.00     0.105 A 
ATOM      7  O   UNL d   1     -42.272-122.023 -55.508  0.00  0.00    -0.286 OA
ATOM      8  C   UNL d   1     -41.921-120.359 -53.190  0.00  0.00     0.027 C 
ENDROOT
BRANCH   1   9
ATOM      9  N   UNL d   1     -41.463-123.189 -52.992  0.00  0.00    -0.222 NA
BRANCH   9  10
ATOM     10  C   UNL d   1     -41.473-123.149 -52.172  0.00  0.00     0.084 A 
ATOM     11  C   UNL d   1     -41.833-123.749 -51.728  0.00  0.00     0.019 A 
ATOM     12  C   UNL d   1     -41.843-123.709 -50.904  0.00  0.00     0.002 A 
ATOM     13  C   UNL d   1     -41.492-123.068 -50.520  0.00  0.00     0.000 A 
ATOM     14  C   UNL d   1     -41.135-122.474 -50.956  0.00  0.00     0.002 A 
ATOM     15  C   UNL d   1     -41.126-122.515 -51.780  0.00  0.00     0.019 A 
BRANCH  13  16
ATOM     16  C   UNL d   1     -41.501-123.027 -49.692  0.00  0.00     0.000 C 
ATOM     17  C   UNL d   1     -42.200-122.869 -49.297  0.00  0.00     0.000 C 
ENDBRANCH  13  16
ENDBRANCH   9  10
ENDBRANCH   1   9
BRANCH   2  18
ATOM     18  C   UNL d   1     -41.849-123.365 -54.607  0.00  0.00     0.202 C 
ATOM     19  O   UNL d   1     -42.542-123.817 -54.632  0.00  0.00    -0.286 OA
ATOM     20  C   UNL d   1     -41.152-123.663 -54.917  0.00  0.00     0.046 C 
ENDBRANCH   2  18
TORSDOF 4
ENDMDL
