MODEL 1
REMARK VINA RESULT:      77.6      0.000      0.000
REMARK  6 active torsions:
REMARK  status: ('A' for Active; 'I' for Inactive)
REMARK    1  A    between atoms: S_6  and  N_1 
REMARK    2  A    between atoms: C_2  and  C_4 
REMARK    3  A    between atoms: C_12  and  C_3 
REMARK    4  A    between atoms: C_17  and  N_8 
REMARK    5  A    between atoms: C_16  and  C_10 
REMARK    6  A    between atoms: O_27  and  C_24 
ROOT
ATOM      1  N   UNL d   1      14.676  15.792  -2.447  0.00  0.00    -0.155 N 
ATOM      2  C   UNL d   1      14.447  15.179  -2.951  0.00  0.00     0.099 A 
ATOM      3  N   UNL d   1      14.742  16.464  -2.913  0.00  0.00    -0.156 NA
ATOM      4  C   UNL d   1      14.556  16.270  -3.698  0.00  0.00     0.103 A 
ATOM      5  C   UNL d   1      14.376  15.464  -3.696  0.00  0.00     0.041 A 
ENDROOT
BRANCH   2   6
ATOM      6  C   UNL d   1      14.319  14.381  -2.667  0.00  0.00     0.058 A 
ATOM      7  C   UNL d   1      13.867  13.819  -3.026  0.00  0.00     0.110 A 
ATOM      8  N   UNL d   1      13.929  13.146  -2.525  0.00  0.00    -0.165 NA
ATOM      9  N   UNL d   1      14.417  13.327  -1.881  0.00  0.00    -0.228 N 
ATOM     10  C   UNL d   1      14.664  14.104  -1.969  0.00  0.00     0.103 A 
BRANCH   7  11
ATOM     11  C   UNL d   1      13.438  13.876  -3.722  0.00  0.00     0.049 A 
ATOM     12  S   UNL d   1      13.134  14.140  -4.245  0.00  0.00    -0.085 SA
ATOM     13  C   UNL d   1      12.816  13.492  -4.671  0.00  0.00     0.035 A 
ATOM     14  C   UNL d   1      12.941  12.763  -4.375  0.00  0.00     0.007 A 
ATOM     15  C   UNL d   1      13.348  12.947  -3.745  0.00  0.00     0.009 A 
ENDBRANCH   7  11
BRANCH   9  16
ATOM     16  C   UNL d   1      14.611  12.812  -1.271  0.00  0.00     0.083 A 
ATOM     17  C   UNL d   1      14.075  12.255  -1.009  0.00  0.00     0.019 A 
ATOM     18  C   UNL d   1      14.329  11.799  -0.425  0.00  0.00     0.002 A 
ATOM     19  C   UNL d   1      15.053  11.780  -0.021  0.00  0.00     0.000 A 
ATOM     20  C   UNL d   1      15.577  12.365  -0.317  0.00  0.00     0.002 A 
ATOM     21  C   UNL d   1      15.380  12.880  -0.929  0.00  0.00     0.019 A 
ENDBRANCH   9  16
ENDBRANCH   2   6
BRANCH   1  22
ATOM     22  S   UNL d   1      14.817  15.763  -1.632  0.00  0.00     0.266 S 
ATOM     23  O   UNL d   1      15.626  15.672  -1.776  0.00  0.00    -0.203 OA
ATOM     24  O   UNL d   1      14.010  15.854  -1.490  0.00  0.00    -0.203 OA
ATOM     25  C   UNL d   1      14.959  15.734  -0.815  0.00  0.00     0.165 C 
ENDBRANCH   1  22
BRANCH   4  26
ATOM     26  C   UNL d   1      14.549  16.765  -4.356  0.00  0.00     0.020 A 
ATOM     27  C   UNL d   1      14.977  17.471  -4.386  0.00  0.00     0.004 A 
ATOM     28  C   UNL d   1      14.950  17.943  -5.054  0.00  0.00     0.024 A 
ATOM     29  C   UNL d   1      14.490  17.710  -5.700  0.00  0.00     0.094 A 
ATOM     30  C   UNL d   1      14.062  17.004  -5.670  0.00  0.00     0.024 A 
ATOM     31  C   UNL d   1      14.097  16.559  -5.021  0.00  0.00     0.004 A 
BRANCH  29  32
ATOM     32  O   UNL d   1      14.474  18.207  -6.378  0.00  0.00    -0.328 OA
ATOM     33  C   UNL d   1      14.023  18.890  -6.374  0.00  0.00     0.181 C 
ENDBRANCH  29  32
ENDBRANCH   4  26
TORSDOF 6
ENDMDL
MODEL 2
REMARK VINA RESULT:      80.2      1.191      2.397
REMARK  6 active torsions:
REMARK  status: ('A' for Active; 'I' for Inactive)
REMARK    1  A    between atoms: S_6  and  N_1 
REMARK    2  A    between atoms: C_2  and  C_4 
REMARK    3  A    between atoms: C_12  and  C_3 
REMARK    4  A    between atoms: C_17  and  N_8 
REMARK    5  A    between atoms: C_16  and  C_10 
REMARK    6  A    between atoms: O_27  and  C_24 
ROOT
ATOM      1  N   UNL d   1      13.787  14.727  -4.044  0.00  0.00    -0.155 N 
ATOM      2  C   UNL d   1      14.177  15.159  -3.457  0.00  0.00     0.099 A 
ATOM      3  N   UNL d   1      13.712  15.226  -4.689  0.00  0.00    -0.156 NA
ATOM      4  C   UNL d   1      14.052  15.961  -4.506  0.00  0.00     0.103 A 
ATOM      5  C   UNL d   1      14.335  15.894  -3.734  0.00  0.00     0.041 A 
ENDROOT
BRANCH   2   6
ATOM      6  C   UNL d   1      14.360  14.823  -2.691  0.00  0.00     0.058 A 
ATOM      7  C   UNL d   1      14.637  15.227  -2.052  0.00  0.00     0.110 A 
ATOM      8  N   UNL d   1      14.722  14.644  -1.452  0.00  0.00    -0.165 NA
ATOM      9  N   UNL d   1      14.493  13.906  -1.752  0.00  0.00    -0.228 N 
ATOM     10  C   UNL d   1      14.265  14.017  -2.532  0.00  0.00     0.103 A 
BRANCH   7  11
ATOM     11  C   UNL d   1      14.802  16.027  -1.987  0.00  0.00     0.049 A 
ATOM     12  S   UNL d   1      14.851  16.667  -2.142  0.00  0.00    -0.085 SA
ATOM     13  C   UNL d   1      15.188  17.037  -1.470  0.00  0.00     0.035 A 
ATOM     14  C   UNL d   1      15.362  16.573  -0.846  0.00  0.00     0.007 A 
ATOM     15  C   UNL d   1      15.130  15.891  -1.123  0.00  0.00     0.009 A 
ENDBRANCH   7  11
BRANCH   9  16
ATOM     16  C   UNL d   1      14.498  13.199  -1.333  0.00  0.00     0.083 A 
ATOM     17  C   UNL d   1      14.449  12.484  -1.723  0.00  0.00     0.019 A 
ATOM     18  C   UNL d   1      14.459  11.853  -1.259  0.00  0.00     0.002 A 
ATOM     19  C   UNL d   1      14.512  11.780  -0.435  0.00  0.00     0.000 A 
ATOM     20  C   UNL d   1      14.561  12.534  -0.071  0.00  0.00     0.002 A 
ATOM     21  C   UNL d   1      14.556  13.241  -0.492  0.00  0.00     0.019 A 
ENDBRANCH   9  16
ENDBRANCH   2   6
BRANCH   1  22
ATOM     22  S   UNL d   1      13.516  13.946  -4.013  0.00  0.00     0.266 S 
ATOM     23  O   UNL d   1      14.260  13.678  -4.254  0.00  0.00    -0.203 OA
ATOM     24  O   UNL d   1      12.774  14.213  -3.772  0.00  0.00    -0.203 OA
ATOM     25  C   UNL d   1      13.244  13.162  -3.982  0.00  0.00     0.165 C 
ENDBRANCH   1  22
BRANCH   4  26
ATOM     26  C   UNL d   1      14.105  16.630  -4.984  0.00  0.00     0.020 A 
ATOM     27  C   UNL d   1      13.535  16.816  -5.553  0.00  0.00     0.004 A 
ATOM     28  C   UNL d   1      13.615  17.488  -6.013  0.00  0.00     0.024 A 
ATOM     29  C   UNL d   1      14.269  17.981  -5.905  0.00  0.00     0.094 A 
ATOM     30  C   UNL d   1      14.838  17.795  -5.336  0.00  0.00     0.024 A 
ATOM     31  C   UNL d   1      14.750  17.145  -4.900  0.00  0.00     0.004 A 
BRANCH  29  32
ATOM     32  O   UNL d   1      14.335  18.667  -6.387  0.00  0.00    -0.328 OA
ATOM     33  C   UNL d   1      13.821  19.296  -6.277  0.00  0.00     0.181 C 
ENDBRANCH  29  32
ENDBRANCH   4  26
TORSDOF 6
ENDMDL
