MODEL 1
REMARK VINA RESULT:      41.9      0.000      0.000
REMARK  5 active torsions:
REMARK  status: ('A' for Active; 'I' for Inactive)
REMARK    1  A    between atoms: N_12  and  C_5 
REMARK    2  A    between atoms: C_17  and  N_12 
REMARK    3  A    between atoms: C_19  and  C_17 
REMARK    4  A    between atoms: C_18  and  C_20 
REMARK    5  A    between atoms: C_20  and  C_19 
ROOT
ATOM      1  C   UNL d   1      44.516 -15.388  37.084  0.00  0.00     0.159 A 
ATOM      2  N   UNL d   1      44.414 -16.115  37.461  0.00  0.00    -0.275 N 
ATOM      3  C   UNL d   1      45.266 -15.024  37.085  0.00  0.00     0.103 A 
ATOM      4  N   UNL d   1      43.877 -15.025  36.708  0.00  0.00    -0.226 NA
ATOM      5  C   UNL d   1      45.062 -16.481  37.842  0.00  0.00     0.149 A 
ATOM      6  C   UNL d   1      45.905 -15.387  37.461  0.00  0.00     0.016 A 
ATOM      7  C   UNL d   1      45.803 -16.114  37.838  0.00  0.00     0.038 A 
ATOM      8  C   UNL d   1      43.029 -16.116  37.086  0.00  0.00     0.084 A 
ATOM      9  C   UNL d   1      43.131 -15.389  36.709  0.00  0.00     0.099 A 
ATOM     10  C   UNL d   1      45.368 -14.297  36.708  0.00  0.00     0.104 C 
ATOM     11  N   UNL d   1      45.469 -13.571  36.330  0.00  0.00    -0.191 NA
ATOM     12  C   UNL d   1      46.646 -15.023  37.459  0.00  0.00     0.001 C 
ATOM     13  C   UNL d   1      42.279 -16.483  37.087  0.00  0.00     0.019 A 
ATOM     14  C   UNL d   1      42.483 -15.026  36.331  0.00  0.00     0.021 A 
ATOM     15  C   UNL d   1      41.649 -16.117  36.712  0.00  0.00     0.002 A 
ATOM     16  C   UNL d   1      41.751 -15.390  36.335  0.00  0.00     0.002 A 
ENDROOT
BRANCH   5  17
ATOM     17  N   UNL d   1      44.960 -17.208  38.219  0.00  0.00    -0.227 NA
BRANCH  17  18
ATOM     18  C   UNL d   1      45.080 -17.270  39.033  0.00  0.00     0.101 C 
BRANCH  18  19
ATOM     19  C   UNL d   1      45.381 -17.968  39.353  0.00  0.00     0.024 C 
BRANCH  19  20
ATOM     20  C   UNL d   1      45.385 -18.079  40.171  0.00  0.00     0.047 C 
BRANCH  20  21
ATOM     21  C   UNL d   1      46.032 -18.437  40.536  0.00  0.00     0.234 C 
ATOM     22  O   UNL d   1      45.973 -18.698  41.317  0.00  0.00    -0.283 OA
ENDBRANCH  20  21
ENDBRANCH  19  20
ENDBRANCH  18  19
ENDBRANCH  17  18
ENDBRANCH   5  17
TORSDOF 5
ENDMDL
MODEL 2
REMARK VINA RESULT:      44.1      2.836      4.890
REMARK  5 active torsions:
REMARK  status: ('A' for Active; 'I' for Inactive)
REMARK    1  A    between atoms: N_12  and  C_5 
REMARK    2  A    between atoms: C_17  and  N_12 
REMARK    3  A    between atoms: C_19  and  C_17 
REMARK    4  A    between atoms: C_18  and  C_20 
REMARK    5  A    between atoms: C_20  and  C_19 
ROOT
ATOM      1  C   UNL d   1      43.886 -15.850  36.630  0.00  0.00     0.159 A 
ATOM      2  N   UNL d   1      43.551 -15.101  36.716  0.00  0.00    -0.275 N 
ATOM      3  C   UNL d   1      43.394 -16.510  36.501  0.00  0.00     0.103 A 
ATOM      4  N   UNL d   1      44.706 -15.943  36.673  0.00  0.00    -0.226 NA
ATOM      5  C   UNL d   1      42.722 -15.007  36.672  0.00  0.00     0.149 A 
ATOM      6  C   UNL d   1      42.575 -16.417  36.459  0.00  0.00     0.016 A 
ATOM      7  C   UNL d   1      42.240 -15.668  36.544  0.00  0.00     0.038 A 
ATOM      8  C   UNL d   1      44.859 -14.535  36.887  0.00  0.00     0.084 A 
ATOM      9  C   UNL d   1      45.194 -15.284  36.801  0.00  0.00     0.099 A 
ATOM     10  C   UNL d   1      43.729 -17.259  36.416  0.00  0.00     0.104 C 
ATOM     11  N   UNL d   1      44.064 -18.008  36.330  0.00  0.00    -0.191 NA
ATOM     12  C   UNL d   1      42.091 -17.074  36.331  0.00  0.00     0.001 C 
ATOM     13  C   UNL d   1      45.350 -13.872  37.016  0.00  0.00     0.019 A 
ATOM     14  C   UNL d   1      46.022 -15.374  36.845  0.00  0.00     0.021 A 
ATOM     15  C   UNL d   1      46.162 -13.972  37.057  0.00  0.00     0.002 A 
ATOM     16  C   UNL d   1      46.497 -14.721  36.972  0.00  0.00     0.002 A 
ENDROOT
BRANCH   5  17
ATOM     17  N   UNL d   1      42.387 -14.258  36.758  0.00  0.00    -0.227 NA
BRANCH  17  18
ATOM     18  C   UNL d   1      41.571 -14.161  36.682  0.00  0.00     0.101 C 
BRANCH  18  19
ATOM     19  C   UNL d   1      41.243 -13.404  36.704  0.00  0.00     0.024 C 
BRANCH  19  20
ATOM     20  C   UNL d   1      40.446 -13.294  36.516  0.00  0.00     0.047 C 
BRANCH  20  21
ATOM     21  C   UNL d   1      40.073 -12.583  36.703  0.00  0.00     0.234 C 
ATOM     22  O   UNL d   1      39.463 -12.570  37.258  0.00  0.00    -0.283 OA
ENDBRANCH  20  21
ENDBRANCH  19  20
ENDBRANCH  18  19
ENDBRANCH  17  18
ENDBRANCH   5  17
TORSDOF 5
ENDMDL
