MODEL 1
REMARK VINA RESULT:      34.0      0.000      0.000
REMARK  4 active torsions:
REMARK  status: ('A' for Active; 'I' for Inactive)
REMARK       I    between atoms: N_3  and  C_1 
REMARK    1  A    between atoms: C_9  and  C_1 
REMARK    2  A    between atoms: C_2  and  N_3 
REMARK    3  A    between atoms: O_15  and  C_6 
REMARK    4  A    between atoms: O_16  and  C_8 
ROOT
ATOM      1  C   UNL d   1      60.186  49.649  50.814  0.00  0.00     0.109 A 
ATOM      2  C   UNL d   1      60.120  49.687  51.631  0.00  0.00     0.046 A 
ATOM      3  C   UNL d   1      61.612  49.570  50.928  0.00  0.00     0.039 A 
ATOM      4  C   UNL d   1      60.940  49.590  50.464  0.00  0.00     0.113 A 
ATOM      5  C   UNL d   1      61.545  49.609  51.762  0.00  0.00     0.082 A 
ATOM      6  C   UNL d   1      60.796  49.667  52.104  0.00  0.00     0.106 A 
ATOM      7 CL   UNL d   1      62.224  49.588  52.232  0.00  0.00    -0.080 Cl
ENDROOT
BRANCH   1   8
ATOM      8  N   UNL d   1      59.511  49.669  50.345  0.00  0.00    -0.206 NA
ATOM      9  C   UNL d   1      58.768  49.599  50.692  0.00  0.00     0.279 C 
ATOM     10  O   UNL d   1      58.701  49.509  51.509  0.00  0.00    -0.265 OA
BRANCH   9  11
ATOM     11  C   UNL d   1      58.088  49.619  50.230  0.00  0.00     0.058 A 
ATOM     12  C   UNL d   1      57.344  49.609  50.586  0.00  0.00     0.006 A 
ATOM     13  C   UNL d   1      56.659  49.628  50.124  0.00  0.00     0.012 A 
ATOM     14  C   UNL d   1      56.727  49.657  49.303  0.00  0.00     0.058 A 
ATOM     15  C   UNL d   1      57.472  49.667  48.943  0.00  0.00     0.012 A 
ATOM     16 CL   UNL d   1      56.048  49.677  48.833  0.00  0.00    -0.082 Cl
ATOM     17  C   UNL d   1      58.147  49.648  49.413  0.00  0.00     0.006 A 
ENDBRANCH   9  11
ENDBRANCH   1   8
BRANCH   4  18
ATOM     18  O   UNL d   1      61.003  49.553  49.642  0.00  0.00    -0.327 OA
ATOM     19  C   UNL d   1      61.745  49.460  49.292  0.00  0.00     0.181 C 
ENDBRANCH   4  18
BRANCH   6  20
ATOM     20  O   UNL d   1      60.729  49.705  52.934  0.00  0.00    -0.327 OA
ATOM     21  C   UNL d   1      59.983  49.701  53.276  0.00  0.00     0.181 C 
ENDBRANCH   6  20
TORSDOF 4
ENDMDL
