MODEL 1
REMARK VINA RESULT:      -5.0      0.000      0.000
REMARK  2 active torsions:
REMARK  status: ('A' for Active; 'I' for Inactive)
REMARK    1  A    between atoms: C_2  and  C_1 
REMARK    2  A    between atoms: C_14  and  N_5 
ROOT
ATOM      1  C   UNL d   1     -41.721-122.334 -51.376  0.00  0.00     0.117 A 
ATOM      2  N   UNL d   1     -41.776-122.848 -52.037  0.00  0.00    -0.164 NA
ATOM      3  C   UNL d   1     -41.421-121.620 -51.633  0.00  0.00     0.107 A 
ATOM      4  N   UNL d   1     -41.508-122.441 -52.685  0.00  0.00    -0.228 N 
ATOM      5  C   UNL d   1     -41.287-121.675 -52.436  0.00  0.00     0.112 A 
ATOM      6  C   UNL d   1     -41.271-120.942 -51.171  0.00  0.00     0.104 C 
ATOM      7  N   UNL d   1     -41.123-120.269 -50.709  0.00  0.00    -0.191 NA
ENDROOT
BRANCH   1   8
ATOM      8  C   UNL d   1     -41.950-122.564 -50.606  0.00  0.00     0.084 A 
ATOM      9  C   UNL d   1     -42.755-122.466 -50.368  0.00  0.00     0.302 A 
ATOM     10  O   UNL d   1     -42.991-122.683 -49.626  0.00  0.00    -0.273 OA
ATOM     11  O   UNL d   1     -43.306-122.148 -50.890  0.00  0.00    -0.259 OA
ATOM     12  C   UNL d   1     -42.449-123.006 -49.083  0.00  0.00     0.103 A 
ATOM     13  C   UNL d   1     -41.661-123.100 -49.319  0.00  0.00     0.023 A 
ATOM     14  C   UNL d   1     -42.696-123.221 -48.340  0.00  0.00     0.025 A 
ATOM     15  C   UNL d   1     -41.415-122.880 -50.075  0.00  0.00     0.009 A 
ATOM     16  C   UNL d   1     -41.123-123.421 -48.779  0.00  0.00     0.002 A 
ATOM     17  C   UNL d   1     -41.377-123.635 -48.034  0.00  0.00     0.000 A 
ATOM     18  C   UNL d   1     -42.158-123.541 -47.803  0.00  0.00     0.002 A 
ENDBRANCH   1   8
BRANCH   4  19
ATOM     19  C   UNL d   1     -41.473-122.756 -53.449  0.00  0.00     0.083 A 
ATOM     20  C   UNL d   1     -41.174-123.515 -53.580  0.00  0.00     0.019 A 
ATOM     21  C   UNL d   1     -41.143-123.817 -54.339  0.00  0.00     0.002 A 
ATOM     22  C   UNL d   1     -41.408-123.368 -54.968  0.00  0.00     0.000 A 
ATOM     23  C   UNL d   1     -41.717-122.590 -54.855  0.00  0.00     0.002 A 
ATOM     24  C   UNL d   1     -41.743-122.294 -54.077  0.00  0.00     0.019 A 
ENDBRANCH   4  19
TORSDOF 2
ENDMDL
MODEL 2
REMARK VINA RESULT:      -3.1      0.908      1.329
REMARK  2 active torsions:
REMARK  status: ('A' for Active; 'I' for Inactive)
REMARK    1  A    between atoms: C_2  and  C_1 
REMARK    2  A    between atoms: C_14  and  N_5 
ROOT
ATOM      1  C   UNL d   1     -41.780-122.273 -51.887  0.00  0.00     0.117 A 
ATOM      2  N   UNL d   1     -41.912-122.657 -52.620  0.00  0.00    -0.164 NA
ATOM      3  C   UNL d   1     -41.521-121.514 -52.040  0.00  0.00     0.107 A 
ATOM      4  N   UNL d   1     -41.732-122.129 -53.208  0.00  0.00    -0.228 N 
ATOM      5  C   UNL d   1     -41.489-121.416 -52.850  0.00  0.00     0.112 A 
ATOM      6  C   UNL d   1     -41.321-120.928 -51.480  0.00  0.00     0.104 C 
ATOM      7  N   UNL d   1     -41.123-120.347 -50.922  0.00  0.00    -0.191 NA
ENDROOT
BRANCH   1   8
ATOM      8  C   UNL d   1     -41.907-122.648 -51.151  0.00  0.00     0.084 A 
ATOM      9  C   UNL d   1     -41.576-123.413 -51.015  0.00  0.00     0.302 A 
ATOM     10  O   UNL d   1     -41.690-123.789 -50.309  0.00  0.00    -0.273 OA
ATOM     11  O   UNL d   1     -41.133-123.783 -51.603  0.00  0.00    -0.259 OA
ATOM     12  C   UNL d   1     -42.134-123.432 -49.702  0.00  0.00     0.103 A 
ATOM     13  C   UNL d   1     -42.457-122.682 -49.838  0.00  0.00     0.023 A 
ATOM     14  C   UNL d   1     -42.243-123.817 -48.997  0.00  0.00     0.025 A 
ATOM     15  C   UNL d   1     -42.344-122.294 -50.557  0.00  0.00     0.009 A 
ATOM     16  C   UNL d   1     -42.899-122.327 -49.235  0.00  0.00     0.002 A 
ATOM     17  C   UNL d   1     -43.005-122.719 -48.528  0.00  0.00     0.000 A 
ATOM     18  C   UNL d   1     -42.684-123.462 -48.396  0.00  0.00     0.002 A 
ENDBRANCH   1   8
BRANCH   4  19
ATOM     19  C   UNL d   1     -41.790-122.296 -54.016  0.00  0.00     0.083 A 
ATOM     20  C   UNL d   1     -42.277-121.844 -54.507  0.00  0.00     0.019 A 
ATOM     21  C   UNL d   1     -42.327-122.017 -55.305  0.00  0.00     0.002 A 
ATOM     22  C   UNL d   1     -41.896-122.637 -55.615  0.00  0.00     0.000 A 
ATOM     23  C   UNL d   1     -41.393-123.111 -55.130  0.00  0.00     0.002 A 
ATOM     24  C   UNL d   1     -41.350-122.925 -54.319  0.00  0.00     0.019 A 
ENDBRANCH   4  19
TORSDOF 2
ENDMDL
