MODEL 1
REMARK VINA RESULT:     115.7      0.000      0.000
REMARK  8 active torsions:
REMARK  status: ('A' for Active; 'I' for Inactive)
REMARK    1  A    between atoms: N_7  and  N_1 
REMARK    2  A    between atoms: S_9  and  C_2 
REMARK       I    between atoms: C_8  and  N_7 
REMARK    3  A    between atoms: C_16  and  C_8 
REMARK    4  A    between atoms: C_15  and  S_9 
REMARK    5  A    between atoms: C_10  and  C_15 
REMARK       I    between atoms: N_12  and  C_10 
REMARK    6  A    between atoms: C_17  and  N_12 
REMARK    7  A    between atoms: C_19  and  C_16 
REMARK    8  A    between atoms: C_20  and  C_17 
ROOT
ATOM      1  N   UNL d   1     -57.893 -98.827 -44.682  0.00  0.00    -0.168 N 
ATOM      2  C   UNL d   1     -58.617 -98.810 -44.322  0.00  0.00     0.199 A 
ATOM      3  C   UNL d   1     -57.840 -98.844 -45.509  0.00  0.00     0.283 A 
ATOM      4  N   UNL d   1     -59.324 -98.808 -44.777  0.00  0.00    -0.221 NA
ATOM      5  C   UNL d   1     -58.542 -98.843 -45.967  0.00  0.00     0.076 A 
ATOM      6  C   UNL d   1     -59.280 -98.825 -45.599  0.00  0.00     0.088 A 
ATOM      7  O   UNL d   1     -57.104 -98.862 -45.882  0.00  0.00    -0.265 OA
ATOM      8  C   UNL d   1     -58.482 -98.860 -46.794  0.00  0.00     0.006 A 
ATOM      9  C   UNL d   1     -59.960 -98.824 -46.055  0.00  0.00     0.019 A 
ATOM     10  C   UNL d   1     -59.177 -98.859 -47.242  0.00  0.00     0.000 A 
ATOM     11  C   UNL d   1     -59.915 -98.841 -46.875  0.00  0.00     0.002 A 
ENDROOT
BRANCH   2  12
ATOM     12  S   UNL d   1     -58.669 -98.793 -43.510  0.00  0.00    -0.043 SA
BRANCH  12  13
ATOM     13  C   UNL d   1     -58.913 -99.463 -43.097  0.00  0.00     0.101 C 
BRANCH  13  14
ATOM     14  C   UNL d   1     -58.545 -99.667 -42.395  0.00  0.00     0.286 C 
ATOM     15  N   UNL d   1     -58.759 -99.296 -41.695  0.00  0.00    -0.206 NA
ATOM     16  O   UNL d   1     -57.959-100.248 -42.391  0.00  0.00    -0.265 OA
BRANCH  15  17
ATOM     17  C   UNL d   1     -58.391 -99.500 -40.993  0.00  0.00     0.102 C 
BRANCH  17  18
ATOM     18  C   UNL d   1     -58.838 -99.633 -40.318  0.00  0.00     0.019 A 
ATOM     19  C   UNL d   1     -58.814-100.366 -39.939  0.00  0.00     0.002 A 
ATOM     20  C   UNL d   1     -59.261-100.500 -39.264  0.00  0.00     0.000 A 
ATOM     21  C   UNL d   1     -59.737 -99.899 -38.962  0.00  0.00     0.000 A 
ATOM     22  C   UNL d   1     -59.761 -99.165 -39.342  0.00  0.00     0.000 A 
ATOM     23  C   UNL d   1     -59.315 -99.033 -40.016  0.00  0.00     0.002 A 
ENDBRANCH  17  18
ENDBRANCH  15  17
ENDBRANCH  13  14
ENDBRANCH  12  13
ENDBRANCH   2  12
BRANCH   1  24
ATOM     24  N   UNL d   1     -57.208 -98.828 -44.237  0.00  0.00    -0.119 NA
ATOM     25  C   UNL d   1     -56.483 -98.802 -44.610  0.00  0.00     0.296 C 
ATOM     26  O   UNL d   1     -56.432 -98.775 -45.433  0.00  0.00    -0.264 OA
BRANCH  25  27
ATOM     27  C   UNL d   1     -55.791 -98.803 -44.156  0.00  0.00     0.064 C 
BRANCH  27  28
ATOM     28  C   UNL d   1     -55.496 -99.505 -43.876  0.00  0.00     0.005 A 
ATOM     29  C   UNL d   1     -55.091 -99.515 -43.157  0.00  0.00     0.000 A 
ATOM     30  C   UNL d   1     -54.790-100.229 -42.872  0.00  0.00     0.000 A 
ATOM     31  C   UNL d   1     -54.893-100.915 -43.295  0.00  0.00     0.000 A 
ATOM     32  C   UNL d   1     -55.302-100.895 -44.017  0.00  0.00     0.000 A 
ATOM     33  C   UNL d   1     -55.598-100.191 -44.298  0.00  0.00     0.000 A 
ENDBRANCH  27  28
ENDBRANCH  25  27
ENDBRANCH   1  24
TORSDOF 8
ENDMDL
