MODEL 1
REMARK VINA RESULT:      -0.3      0.000      0.000
REMARK  5 active torsions:
REMARK  status: ('A' for Active; 'I' for Inactive)
REMARK    1  A    between atoms: N_7  and  C_1 
REMARK    2  A    between atoms: C_14  and  N_4 
REMARK    3  A    between atoms: C_6  and  N_7 
REMARK    4  A    between atoms: C_13  and  N_8 
REMARK    5  A    between atoms: C_17  and  C_13 
ROOT
ATOM      1  C   UNL d   1      57.741  -0.337  31.698  0.00  0.00     0.159 A 
ATOM      2  C   UNL d   1      56.960  -0.426  31.939  0.00  0.00     0.298 A 
ATOM      3  N   UNL d   1      57.598   0.259  32.873  0.00  0.00    -0.238 N 
ATOM      4  N   UNL d   1      56.873  -0.056  32.667  0.00  0.00    -0.209 N 
ATOM      5  C   UNL d   1      58.137   0.088  32.278  0.00  0.00     0.104 A 
ATOM      6  O   UNL d   1      56.367  -0.817  31.521  0.00  0.00    -0.263 OA
ATOM      7  C   UNL d   1      57.766   0.679  33.563  0.00  0.00     0.120 C 
ATOM      8  C   UNL d   1      58.929   0.302  32.264  0.00  0.00     0.022 C 
ENDROOT
BRANCH   1   9
ATOM      9  N   UNL d   1      58.064  -0.624  31.000  0.00  0.00    -0.216 NA
BRANCH   9  10
ATOM     10  C   UNL d   1      58.035  -0.168  30.314  0.00  0.00     0.180 A 
ATOM     11  N   UNL d   1      58.607  -0.138  29.724  0.00  0.00    -0.285 N 
ATOM     12  C   UNL d   1      58.346   0.387  29.148  0.00  0.00     0.072 A 
ATOM     13  C   UNL d   1      58.753   0.583  28.456  0.00  0.00     0.020 C 
ATOM     14  C   UNL d   1      57.619   0.682  29.377  0.00  0.00     0.056 A 
ATOM     15  S   UNL d   1      57.419   0.342  30.100  0.00  0.00    -0.048 SA
BRANCH  11  16
ATOM     16  C   UNL d   1      59.311  -0.556  29.710  0.00  0.00     0.082 C 
BRANCH  16  17
ATOM     17  C   UNL d   1      59.351  -1.306  29.352  0.00  0.00     0.018 A 
ATOM     18  C   UNL d   1      58.731  -1.722  28.991  0.00  0.00     0.002 A 
ATOM     19  C   UNL d   1      58.866  -2.479  28.654  0.00  0.00     0.000 A 
ATOM     20  C   UNL d   1      59.631  -2.813  28.684  0.00  0.00     0.000 A 
ATOM     21  C   UNL d   1      60.259  -2.394  29.048  0.00  0.00     0.000 A 
ATOM     22  C   UNL d   1      60.121  -1.640  29.383  0.00  0.00     0.002 A 
ENDBRANCH  16  17
ENDBRANCH  11  16
ENDBRANCH   9  10
ENDBRANCH   1   9
BRANCH   4  23
ATOM     23  C   UNL d   1      56.179  -0.011  33.109  0.00  0.00     0.085 A 
ATOM     24  C   UNL d   1      56.040  -0.554  33.705  0.00  0.00     0.019 A 
ATOM     25  C   UNL d   1      55.348  -0.508  34.145  0.00  0.00     0.002 A 
ATOM     26  C   UNL d   1      54.790   0.078  33.994  0.00  0.00     0.000 A 
ATOM     27  C   UNL d   1      54.933   0.626  33.391  0.00  0.00     0.002 A 
ATOM     28  C   UNL d   1      55.627   0.581  32.948  0.00  0.00     0.019 A 
ENDBRANCH   4  23
TORSDOF 5
ENDMDL
