MODEL 1
REMARK VINA RESULT:      86.9      0.000      0.000
REMARK  8 active torsions:
REMARK  status: ('A' for Active; 'I' for Inactive)
REMARK    1  A    between atoms: N_10  and  C_4 
REMARK    2  A    between atoms: C_17  and  N_5 
REMARK    3  A    between atoms: C_16  and  N_10 
REMARK    4  A    between atoms: C_11  and  S_19 
REMARK    5  A    between atoms: C_20  and  C_16 
REMARK    6  A    between atoms: C_21  and  C_17 
REMARK    7  A    between atoms: S_19  and  C_26 
REMARK    8  A    between atoms: C_26  and  C_21 
ROOT
ATOM      1  C   UNL d   1     -48.546  28.781  36.209  0.00  0.00     0.191 A 
ATOM      2  C   UNL d   1     -48.599  28.463  35.449  0.00  0.00     0.174 A 
ATOM      3  N   UNL d   1     -49.112  28.411  36.689  0.00  0.00    -0.042 NA
ATOM      4  C   UNL d   1     -49.509  27.862  36.200  0.00  0.00     0.722 A 
ATOM      5  N   UNL d   1     -49.250  27.834  35.419  0.00  0.00    -0.132 N 
ATOM      6  N   UNL d   1     -47.990  29.366  36.372  0.00  0.00    -0.239 N 
ATOM      7  C   UNL d   1     -47.467  29.652  35.767  0.00  0.00     0.358 A 
ATOM      8  N   UNL d   1     -47.521  29.334  35.008  0.00  0.00    -0.152 NA
ATOM      9  C   UNL d   1     -48.098  28.730  34.853  0.00  0.00     0.303 A 
ATOM     10  O   UNL d   1     -46.896  30.249  35.924  0.00  0.00    -0.244 OA
ATOM     11  O   UNL d   1     -48.152  28.412  34.094  0.00  0.00    -0.263 OA
ATOM     12  C   UNL d   1     -47.936  29.685  37.131  0.00  0.00     0.105 C 
ENDROOT
BRANCH   5  13
ATOM     13  C   UNL d   1     -49.294  27.526  34.663  0.00  0.00     0.099 C 
BRANCH  13  14
ATOM     14  C   UNL d   1     -49.908  27.013  34.479  0.00  0.00     0.027 C 
BRANCH  14  15
ATOM     15  C   UNL d   1     -49.885  26.587  33.783  0.00  0.00     0.040 C 
BRANCH  15  16
ATOM     16  S   UNL d   1     -50.587  26.447  33.366  0.00  0.00    -0.048 SA
BRANCH  16  17
ATOM     17  C   UNL d   1     -50.906  25.687  33.347  0.00  0.00     0.194 A 
ATOM     18  N   UNL d   1     -51.722  25.582  33.352  0.00  0.00    -0.220 NA
ATOM     19  C   UNL d   1     -52.029  24.830  33.334  0.00  0.00     0.103 A 
ATOM     20  C   UNL d   1     -51.527  24.173  33.311  0.00  0.00     0.041 A 
ATOM     21  C   UNL d   1     -50.703  24.274  33.306  0.00  0.00     0.103 A 
ATOM     22  N   UNL d   1     -50.396  25.040  33.325  0.00  0.00    -0.220 NA
ENDBRANCH  16  17
ENDBRANCH  15  16
ENDBRANCH  14  15
ENDBRANCH  13  14
ENDBRANCH   5  13
BRANCH   4  23
ATOM     23  N   UNL d   1     -50.121  27.368  36.451  0.00  0.00    -0.137 N 
ATOM     24  C   UNL d   1     -50.824  27.340  36.038  0.00  0.00     0.118 C 
BRANCH  23  25
ATOM     25  C   UNL d   1     -50.025  26.899  37.120  0.00  0.00     0.098 C 
BRANCH  25  26
ATOM     26  C   UNL d   1     -50.661  26.770  37.630  0.00  0.00     0.018 A 
ATOM     27  C   UNL d   1     -50.867  27.350  38.188  0.00  0.00     0.002 A 
ATOM     28  C   UNL d   1     -51.499  27.225  38.696  0.00  0.00     0.000 A 
ATOM     29  C   UNL d   1     -51.932  26.520  38.652  0.00  0.00     0.000 A 
ATOM     30  C   UNL d   1     -51.723  25.941  38.091  0.00  0.00     0.000 A 
ATOM     31  C   UNL d   1     -51.090  26.070  37.584  0.00  0.00     0.002 A 
ENDBRANCH  25  26
ENDBRANCH  23  25
ENDBRANCH   4  23
TORSDOF 8
ENDMDL
MODEL 2
REMARK VINA RESULT:      87.5      1.717      4.784
REMARK  8 active torsions:
REMARK  status: ('A' for Active; 'I' for Inactive)
REMARK    1  A    between atoms: N_10  and  C_4 
REMARK    2  A    between atoms: C_17  and  N_5 
REMARK    3  A    between atoms: C_16  and  N_10 
REMARK    4  A    between atoms: C_11  and  S_19 
REMARK    5  A    between atoms: C_20  and  C_16 
REMARK    6  A    between atoms: C_21  and  C_17 
REMARK    7  A    between atoms: S_19  and  C_26 
REMARK    8  A    between atoms: C_26  and  C_21 
ROOT
ATOM      1  C   UNL d   1     -51.375  26.494  36.241  0.00  0.00     0.191 A 
ATOM      2  C   UNL d   1     -50.615  26.815  36.245  0.00  0.00     0.174 A 
ATOM      3  N   UNL d   1     -51.589  26.340  35.455  0.00  0.00    -0.042 NA
ATOM      4  C   UNL d   1     -50.940  26.575  34.985  0.00  0.00     0.722 A 
ATOM      5  N   UNL d   1     -50.297  26.879  35.400  0.00  0.00    -0.132 N 
ATOM      6  N   UNL d   1     -51.779  26.382  36.949  0.00  0.00    -0.239 N 
ATOM      7  C   UNL d   1     -51.425  26.592  37.692  0.00  0.00     0.358 A 
ATOM      8  N   UNL d   1     -50.665  26.912  37.696  0.00  0.00    -0.152 NA
ATOM      9  C   UNL d   1     -50.259  27.023  36.959  0.00  0.00     0.303 A 
ATOM     10  O   UNL d   1     -51.829  26.480  38.420  0.00  0.00    -0.244 OA
ATOM     11  O   UNL d   1     -49.498  27.344  36.963  0.00  0.00    -0.263 OA
ATOM     12  C   UNL d   1     -52.539  26.061  36.945  0.00  0.00     0.105 C 
ENDROOT
BRANCH   5  13
ATOM     13  C   UNL d   1     -49.545  27.198  35.417  0.00  0.00     0.099 C 
BRANCH  13  14
ATOM     14  C   UNL d   1     -49.430  27.961  35.136  0.00  0.00     0.027 C 
BRANCH  14  15
ATOM     15  C   UNL d   1     -48.826  28.418  35.438  0.00  0.00     0.040 C 
BRANCH  15  16
ATOM     16  S   UNL d   1     -48.323  28.825  34.921  0.00  0.00    -0.048 SA
BRANCH  16  17
ATOM     17  C   UNL d   1     -47.951  29.517  35.174  0.00  0.00     0.194 A 
ATOM     18  N   UNL d   1     -48.102  30.229  34.789  0.00  0.00    -0.220 NA
ATOM     19  C   UNL d   1     -47.732  30.907  35.044  0.00  0.00     0.103 A 
ATOM     20  C   UNL d   1     -47.208  30.883  35.684  0.00  0.00     0.041 A 
ATOM     21  C   UNL d   1     -47.054  30.167  36.074  0.00  0.00     0.103 A 
ATOM     22  N   UNL d   1     -47.432  29.481  35.812  0.00  0.00    -0.220 NA
ENDBRANCH  16  17
ENDBRANCH  15  16
ENDBRANCH  14  15
ENDBRANCH  13  14
ENDBRANCH   5  13
BRANCH   4  23
ATOM     23  N   UNL d   1     -50.911  26.519  34.162  0.00  0.00    -0.137 N 
ATOM     24  C   UNL d   1     -51.247  27.101  33.697  0.00  0.00     0.118 C 
BRANCH  23  25
ATOM     25  C   UNL d   1     -50.544  25.876  33.804  0.00  0.00     0.098 C 
BRANCH  25  26
ATOM     26  C   UNL d   1     -50.975  25.193  33.638  0.00  0.00     0.018 A 
ATOM     27  C   UNL d   1     -51.802  25.232  33.574  0.00  0.00     0.002 A 
ATOM     28  C   UNL d   1     -52.234  24.554  33.409  0.00  0.00     0.000 A 
ATOM     29  C   UNL d   1     -51.843  23.830  33.306  0.00  0.00     0.000 A 
ATOM     30  C   UNL d   1     -51.015  23.795  33.370  0.00  0.00     0.000 A 
ATOM     31  C   UNL d   1     -50.586  24.475  33.536  0.00  0.00     0.002 A 
ENDBRANCH  25  26
ENDBRANCH  23  25
ENDBRANCH   4  23
TORSDOF 8
ENDMDL
MODEL 3
REMARK VINA RESULT:      87.5      1.382      3.520
REMARK  8 active torsions:
REMARK  status: ('A' for Active; 'I' for Inactive)
REMARK    1  A    between atoms: N_10  and  C_4 
REMARK    2  A    between atoms: C_17  and  N_5 
REMARK    3  A    between atoms: C_16  and  N_10 
REMARK    4  A    between atoms: C_11  and  S_19 
REMARK    5  A    between atoms: C_20  and  C_16 
REMARK    6  A    between atoms: C_21  and  C_17 
REMARK    7  A    between atoms: S_19  and  C_26 
REMARK    8  A    between atoms: C_26  and  C_21 
ROOT
ATOM      1  C   UNL d   1     -48.373  28.887  34.980  0.00  0.00     0.191 A 
ATOM      2  C   UNL d   1     -48.597  28.518  35.683  0.00  0.00     0.174 A 
ATOM      3  N   UNL d   1     -48.681  28.450  34.345  0.00  0.00    -0.042 NA
ATOM      4  C   UNL d   1     -49.095  27.808  34.683  0.00  0.00     0.722 A 
ATOM      5  N   UNL d   1     -49.091  27.780  35.506  0.00  0.00    -0.132 N 
ATOM      6  N   UNL d   1     -47.918  29.573  35.001  0.00  0.00    -0.239 N 
ATOM      7  C   UNL d   1     -47.673  29.911  35.740  0.00  0.00     0.358 A 
ATOM      8  N   UNL d   1     -47.897  29.542  36.443  0.00  0.00    -0.152 NA
ATOM      9  C   UNL d   1     -48.366  28.835  36.408  0.00  0.00     0.303 A 
ATOM     10  O   UNL d   1     -47.209  30.611  35.772  0.00  0.00    -0.244 OA
ATOM     11  O   UNL d   1     -48.590  28.466  37.111  0.00  0.00    -0.263 OA
ATOM     12  C   UNL d   1     -47.695  29.942  34.298  0.00  0.00     0.105 C 
ENDROOT
BRANCH   5  13
ATOM     13  C   UNL d   1     -49.306  27.423  36.209  0.00  0.00     0.099 C 
BRANCH  13  14
ATOM     14  C   UNL d   1     -50.090  27.465  36.451  0.00  0.00     0.027 C 
BRANCH  14  15
ATOM     15  C   UNL d   1     -50.304  27.176  37.183  0.00  0.00     0.040 C 
BRANCH  15  16
ATOM     16  S   UNL d   1     -51.089  27.248  37.438  0.00  0.00    -0.048 SA
BRANCH  16  17
ATOM     17  C   UNL d   1     -51.448  26.620  37.835  0.00  0.00     0.194 A 
ATOM     18  N   UNL d   1     -52.160  26.312  37.560  0.00  0.00    -0.220 NA
ATOM     19  C   UNL d   1     -52.508  25.693  37.957  0.00  0.00     0.103 A 
ATOM     20  C   UNL d   1     -52.151  25.374  38.631  0.00  0.00     0.041 A 
ATOM     21  C   UNL d   1     -51.432  25.682  38.911  0.00  0.00     0.103 A 
ATOM     22  N   UNL d   1     -51.083  26.310  38.505  0.00  0.00    -0.220 NA
ENDBRANCH  16  17
ENDBRANCH  15  16
ENDBRANCH  14  15
ENDBRANCH  13  14
ENDBRANCH   5  13
BRANCH   4  23
ATOM     23  N   UNL d   1     -49.492  27.228  34.251  0.00  0.00    -0.137 N 
ATOM     24  C   UNL d   1     -49.252  26.449  34.290  0.00  0.00     0.118 C 
BRANCH  23  25
ATOM     25  C   UNL d   1     -50.135  27.431  33.779  0.00  0.00     0.098 C 
BRANCH  25  26
ATOM     26  C   UNL d   1     -50.724  26.876  33.621  0.00  0.00     0.018 A 
ATOM     27  C   UNL d   1     -51.512  27.125  33.537  0.00  0.00     0.002 A 
ATOM     28  C   UNL d   1     -52.102  26.576  33.380  0.00  0.00     0.000 A 
ATOM     29  C   UNL d   1     -51.910  25.773  33.306  0.00  0.00     0.000 A 
ATOM     30  C   UNL d   1     -51.119  25.528  33.391  0.00  0.00     0.000 A 
ATOM     31  C   UNL d   1     -50.532  26.080  33.548  0.00  0.00     0.002 A 
ENDBRANCH  25  26
ENDBRANCH  23  25
ENDBRANCH   4  23
TORSDOF 8
ENDMDL
MODEL 4
REMARK VINA RESULT:      88.5      1.463      3.834
REMARK  8 active torsions:
REMARK  status: ('A' for Active; 'I' for Inactive)
REMARK    1  A    between atoms: N_10  and  C_4 
REMARK    2  A    between atoms: C_17  and  N_5 
REMARK    3  A    between atoms: C_16  and  N_10 
REMARK    4  A    between atoms: C_11  and  S_19 
REMARK    5  A    between atoms: C_20  and  C_16 
REMARK    6  A    between atoms: C_21  and  C_17 
REMARK    7  A    between atoms: S_19  and  C_26 
REMARK    8  A    between atoms: C_26  and  C_21 
ROOT
ATOM      1  C   UNL d   1     -49.244  27.998  34.196  0.00  0.00     0.191 A 
ATOM      2  C   UNL d   1     -49.430  27.661  34.926  0.00  0.00     0.174 A 
ATOM      3  N   UNL d   1     -49.688  27.615  33.610  0.00  0.00    -0.042 NA
ATOM      4  C   UNL d   1     -50.147  27.038  34.003  0.00  0.00     0.722 A 
ATOM      5  N   UNL d   1     -50.044  27.004  34.820  0.00  0.00    -0.132 N 
ATOM      6  N   UNL d   1     -48.695  28.610  34.153  0.00  0.00    -0.239 N 
ATOM      7  C   UNL d   1     -48.313  28.904  34.852  0.00  0.00     0.358 A 
ATOM      8  N   UNL d   1     -48.500  28.568  35.582  0.00  0.00    -0.152 NA
ATOM      9  C   UNL d   1     -49.067  27.937  35.613  0.00  0.00     0.303 A 
ATOM     10  O   UNL d   1     -47.752  29.529  34.818  0.00  0.00    -0.244 OA
ATOM     11  O   UNL d   1     -49.254  27.600  36.342  0.00  0.00    -0.263 OA
ATOM     12  C   UNL d   1     -48.509  28.947  33.423  0.00  0.00     0.105 C 
ENDROOT
BRANCH   5  13
ATOM     13  C   UNL d   1     -50.220  26.679  35.548  0.00  0.00     0.099 C 
BRANCH  13  14
ATOM     14  C   UNL d   1     -50.806  27.027  36.007  0.00  0.00     0.027 C 
BRANCH  14  15
ATOM     15  C   UNL d   1     -51.323  26.558  36.430  0.00  0.00     0.040 C 
BRANCH  15  16
ATOM     16  S   UNL d   1     -51.590  26.810  37.172  0.00  0.00    -0.048 SA
BRANCH  16  17
ATOM     17  C   UNL d   1     -51.936  26.265  37.686  0.00  0.00     0.194 A 
ATOM     18  N   UNL d   1     -51.480  25.902  38.268  0.00  0.00    -0.220 NA
ATOM     19  C   UNL d   1     -51.828  25.366  38.772  0.00  0.00     0.103 A 
ATOM     20  C   UNL d   1     -52.632  25.186  38.702  0.00  0.00     0.041 A 
ATOM     21  C   UNL d   1     -53.094  25.551  38.116  0.00  0.00     0.103 A 
ATOM     22  N   UNL d   1     -52.738  26.094  37.608  0.00  0.00    -0.220 NA
ENDBRANCH  16  17
ENDBRANCH  15  16
ENDBRANCH  14  15
ENDBRANCH  13  14
ENDBRANCH   5  13
BRANCH   4  23
ATOM     23  N   UNL d   1     -50.674  26.524  33.632  0.00  0.00    -0.137 N 
ATOM     24  C   UNL d   1     -51.429  26.772  33.444  0.00  0.00     0.118 C 
BRANCH  23  25
ATOM     25  C   UNL d   1     -50.442  25.756  33.448  0.00  0.00     0.098 C 
BRANCH  25  26
ATOM     26  C   UNL d   1     -51.004  25.154  33.401  0.00  0.00     0.018 A 
ATOM     27  C   UNL d   1     -50.757  24.363  33.354  0.00  0.00     0.002 A 
ATOM     28  C   UNL d   1     -51.313  23.761  33.307  0.00  0.00     0.000 A 
ATOM     29  C   UNL d   1     -52.122  23.944  33.307  0.00  0.00     0.000 A 
ATOM     30  C   UNL d   1     -52.365  24.739  33.354  0.00  0.00     0.000 A 
ATOM     31  C   UNL d   1     -51.806  25.338  33.401  0.00  0.00     0.002 A 
ENDBRANCH  25  26
ENDBRANCH  23  25
ENDBRANCH   4  23
TORSDOF 8
ENDMDL
MODEL 5
REMARK VINA RESULT:      89.7      1.705      3.659
REMARK  8 active torsions:
REMARK  status: ('A' for Active; 'I' for Inactive)
REMARK    1  A    between atoms: N_10  and  C_4 
REMARK    2  A    between atoms: C_17  and  N_5 
REMARK    3  A    between atoms: C_16  and  N_10 
REMARK    4  A    between atoms: C_11  and  S_19 
REMARK    5  A    between atoms: C_20  and  C_16 
REMARK    6  A    between atoms: C_21  and  C_17 
REMARK    7  A    between atoms: S_19  and  C_26 
REMARK    8  A    between atoms: C_26  and  C_21 
ROOT
ATOM      1  C   UNL d   1     -50.533  27.013  37.316  0.00  0.00     0.191 A 
ATOM      2  C   UNL d   1     -50.952  26.883  36.618  0.00  0.00     0.174 A 
ATOM      3  N   UNL d   1     -49.799  27.347  37.123  0.00  0.00    -0.042 NA
ATOM      4  C   UNL d   1     -49.785  27.416  36.291  0.00  0.00     0.722 A 
ATOM      5  N   UNL d   1     -50.462  27.150  35.904  0.00  0.00    -0.132 N 
ATOM      6  N   UNL d   1     -50.868  26.812  38.041  0.00  0.00    -0.239 N 
ATOM      7  C   UNL d   1     -51.644  26.471  38.084  0.00  0.00     0.358 A 
ATOM      8  N   UNL d   1     -52.063  26.341  37.385  0.00  0.00    -0.152 NA
ATOM      9  C   UNL d   1     -51.706  26.552  36.644  0.00  0.00     0.303 A 
ATOM     10  O   UNL d   1     -51.995  26.263  38.819  0.00  0.00    -0.244 OA
ATOM     11  O   UNL d   1     -52.125  26.422  35.945  0.00  0.00    -0.263 OA
ATOM     12  C   UNL d   1     -50.449  26.942  38.740  0.00  0.00     0.105 C 
ENDROOT
BRANCH   5  13
ATOM     13  C   UNL d   1     -50.887  27.017  35.219  0.00  0.00     0.099 C 
BRANCH  13  14
ATOM     14  C   UNL d   1     -50.500  26.697  34.569  0.00  0.00     0.027 C 
BRANCH  14  15
ATOM     15  C   UNL d   1     -50.906  26.588  33.869  0.00  0.00     0.040 C 
BRANCH  15  16
ATOM     16  S   UNL d   1     -50.619  26.050  33.309  0.00  0.00    -0.048 SA
BRANCH  16  17
ATOM     17  C   UNL d   1     -50.893  25.271  33.314  0.00  0.00     0.194 A 
ATOM     18  N   UNL d   1     -50.358  24.646  33.323  0.00  0.00    -0.220 NA
ATOM     19  C   UNL d   1     -50.635  23.882  33.328  0.00  0.00     0.103 A 
ATOM     20  C   UNL d   1     -51.449  23.731  33.323  0.00  0.00     0.041 A 
ATOM     21  C   UNL d   1     -51.992  24.360  33.314  0.00  0.00     0.103 A 
ATOM     22  N   UNL d   1     -51.705  25.133  33.309  0.00  0.00    -0.220 NA
ENDBRANCH  16  17
ENDBRANCH  15  16
ENDBRANCH  14  15
ENDBRANCH  13  14
ENDBRANCH   5  13
BRANCH   4  23
ATOM     23  N   UNL d   1     -49.155  27.723  35.856  0.00  0.00    -0.137 N 
ATOM     24  C   UNL d   1     -48.525  27.247  35.649  0.00  0.00     0.118 C 
BRANCH  23  25
ATOM     25  C   UNL d   1     -49.158  28.514  35.626  0.00  0.00     0.098 C 
BRANCH  25  26
ATOM     26  C   UNL d   1     -48.448  28.928  35.559  0.00  0.00     0.018 A 
ATOM     27  C   UNL d   1     -48.447  29.756  35.614  0.00  0.00     0.002 A 
ATOM     28  C   UNL d   1     -47.743  30.172  35.547  0.00  0.00     0.000 A 
ATOM     29  C   UNL d   1     -47.031  29.763  35.426  0.00  0.00     0.000 A 
ATOM     30  C   UNL d   1     -47.036  28.933  35.372  0.00  0.00     0.000 A 
ATOM     31  C   UNL d   1     -47.743  28.521  35.439  0.00  0.00     0.002 A 
ENDBRANCH  25  26
ENDBRANCH  23  25
ENDBRANCH   4  23
TORSDOF 8
ENDMDL
