MODEL 1
REMARK VINA RESULT:       0.6      0.000      0.000
REMARK  4 active torsions:
REMARK  status: ('A' for Active; 'I' for Inactive)
REMARK    1  A    between atoms: C_17  and  N_3 
REMARK    2  A    between atoms: C_9  and  C_5 
REMARK    3  A    between atoms: O_21  and  C_12 
REMARK    4  A    between atoms: C_19  and  C_17 
ROOT
ATOM      1  C   UNL d   1      57.552   0.044  32.285  0.00  0.00     0.083 A 
ATOM      2  C   UNL d   1      57.854   0.211  33.030  0.00  0.00     0.161 A 
ATOM      3  N   UNL d   1      58.843   0.450  32.142  0.00  0.00    -0.272 N 
ATOM      4  C   UNL d   1      58.638   0.459  32.950  0.00  0.00     0.288 A 
ATOM      5  C   UNL d   1      58.174   0.194  31.720  0.00  0.00     0.072 A 
ATOM      6  C   UNL d   1      56.775  -0.218  32.189  0.00  0.00     0.201 A 
ATOM      7  O   UNL d   1      57.361   0.113  33.699  0.00  0.00    -0.302 OA
ATOM      8  C   UNL d   1      56.290  -0.314  32.854  0.00  0.00     0.062 A 
ATOM      9  C   UNL d   1      56.586  -0.147  33.614  0.00  0.00     0.103 A 
ATOM     10  O   UNL d   1      59.145   0.680  33.566  0.00  0.00    -0.264 OA
ATOM     11  O   UNL d   1      56.482  -0.383  31.435  0.00  0.00    -0.286 OA
ATOM     12  C   UNL d   1      55.509  -0.577  32.764  0.00  0.00     0.005 A 
ATOM     13  C   UNL d   1      56.096  -0.245  34.277  0.00  0.00     0.025 A 
ATOM     14  C   UNL d   1      55.028  -0.671  33.431  0.00  0.00     0.000 A 
ATOM     15  C   UNL d   1      55.321  -0.506  34.184  0.00  0.00     0.002 A 
ENDROOT
BRANCH   5  16
ATOM     16  C   UNL d   1      58.117   0.100  30.905  0.00  0.00     0.019 A 
ATOM     17  C   UNL d   1      58.412  -0.575  30.549  0.00  0.00     0.029 A 
ATOM     18  C   UNL d   1      58.361  -0.680  29.735  0.00  0.00     0.133 A 
ATOM     19  C   UNL d   1      58.007  -0.095  29.274  0.00  0.00     0.218 A 
ATOM     20  C   UNL d   1      57.706   0.592  29.634  0.00  0.00     0.044 A 
ATOM     21  O   UNL d   1      57.949  -0.189  28.456  0.00  0.00    -0.284 OA
ATOM     22  C   UNL d   1      57.764   0.682  30.443  0.00  0.00     0.005 A 
BRANCH  18  23
ATOM     23  O   UNL d   1      58.656  -1.356  29.379  0.00  0.00    -0.325 OA
ATOM     24  C   UNL d   1      58.550  -2.094  29.739  0.00  0.00     0.181 C 
ENDBRANCH  18  23
ENDBRANCH   5  16
BRANCH   3  25
ATOM     25  C   UNL d   1      59.571   0.657  31.814  0.00  0.00     0.083 C 
BRANCH  25  26
ATOM     26  C   UNL d   1      60.254   0.623  32.271  0.00  0.00     0.019 C 
ATOM     27  C   UNL d   1      60.994   0.673  31.913  0.00  0.00     0.002 C 
ENDBRANCH  25  26
ENDBRANCH   3  25
TORSDOF 4
ENDMDL
