MODEL 1
REMARK VINA RESULT:      -4.8      0.000      0.000
REMARK  7 active torsions:
REMARK  status: ('A' for Active; 'I' for Inactive)
REMARK    1  A    between atoms: C_6  and  C_1 
REMARK    2  A    between atoms: C_14  and  C_5 
REMARK    3  A    between atoms: O_19  and  C_7 
REMARK    4  A    between atoms: O_20  and  C_8 
REMARK    5  A    between atoms: O_21  and  C_9 
REMARK    6  A    between atoms: O_17  and  C_14 
REMARK    7  A    between atoms: C_18  and  O_17 
ROOT
ATOM      1  C   UNL d   1      58.254  -0.328  30.011  0.00  0.00     0.205 A 
ATOM      2  N   UNL d   1      57.696   0.138  29.615  0.00  0.00    -0.121 NA
ATOM      3  O   UNL d   1      58.162  -0.212  30.826  0.00  0.00    -0.267 OA
ATOM      4  N   UNL d   1      57.253   0.547  30.185  0.00  0.00    -0.119 NA
ATOM      5  C   UNL d   1      57.542   0.329  30.933  0.00  0.00     0.230 A 
ENDROOT
BRANCH   1   6
ATOM      6  C   UNL d   1      58.809  -0.824  29.644  0.00  0.00     0.047 A 
ATOM      7  C   UNL d   1      58.597  -1.585  29.404  0.00  0.00     0.030 A 
ATOM      8  C   UNL d   1      59.148  -2.066  29.043  0.00  0.00     0.118 A 
ATOM      9  C   UNL d   1      59.922  -1.800  28.914  0.00  0.00     0.138 A 
ATOM     10  C   UNL d   1      60.130  -1.042  29.154  0.00  0.00     0.118 A 
ATOM     11  C   UNL d   1      59.575  -0.545  29.523  0.00  0.00     0.030 A 
BRANCH   8  12
ATOM     12  O   UNL d   1      58.928  -2.829  28.805  0.00  0.00    -0.326 OA
ATOM     13  C   UNL d   1      58.185  -2.966  28.467  0.00  0.00     0.181 C 
ENDBRANCH   8  12
BRANCH   9  14
ATOM     14  O   UNL d   1      60.471  -2.297  28.548  0.00  0.00    -0.324 OA
ATOM     15  C   UNL d   1      61.097  -2.623  28.982  0.00  0.00     0.182 C 
ENDBRANCH   9  14
BRANCH  10  16
ATOM     16  O   UNL d   1      60.904  -0.774  29.026  0.00  0.00    -0.326 OA
ATOM     17  C   UNL d   1      61.080   0.024  29.095  0.00  0.00     0.181 C 
ENDBRANCH  10  16
ENDBRANCH   1   6
BRANCH   5  18
ATOM     18  C   UNL d   1      57.265   0.602  31.665  0.00  0.00     0.169 C 
BRANCH  18  19
ATOM     19  O   UNL d   1      57.381   0.153  32.346  0.00  0.00    -0.301 OA
BRANCH  19  20
ATOM     20  C   UNL d   1      56.906   0.286  33.009  0.00  0.00     0.100 A 
ATOM     21  C   UNL d   1      56.084   0.259  32.939  0.00  0.00     0.025 A 
ATOM     22  C   UNL d   1      55.613   0.390  33.597  0.00  0.00     0.002 A 
ATOM     23  C   UNL d   1      54.786   0.366  33.534  0.00  0.00     0.000 A 
ATOM     24  C   UNL d   1      55.955   0.549  34.328  0.00  0.00     0.000 A 
ATOM     25  C   UNL d   1      54.317   0.498  34.200  0.00  0.00     0.000 A 
ATOM     26  C   UNL d   1      54.667   0.656  34.929  0.00  0.00     0.000 A 
ATOM     27  C   UNL d   1      55.492   0.682  34.995  0.00  0.00     0.000 A 
ATOM     28  C   UNL d   1      56.777   0.576  34.401  0.00  0.00     0.002 A 
ATOM     29  C   UNL d   1      57.259   0.442  33.732  0.00  0.00     0.025 A 
ENDBRANCH  19  20
ENDBRANCH  18  19
ENDBRANCH   5  18
TORSDOF 7
ENDMDL
