MODEL 1
REMARK VINA RESULT:      95.7      0.000      0.000
REMARK  4 active torsions:
REMARK  status: ('A' for Active; 'I' for Inactive)
REMARK    1  A    between atoms: N_2  and  S_1 
REMARK    2  A    between atoms: C_4  and  S_1 
REMARK    3  A    between atoms: C_3  and  C_8 
REMARK       I    between atoms: N_5  and  C_3 
REMARK    4  A    between atoms: C_17  and  N_5 
ROOT
ATOM      1  C   UNL d   1      61.293  46.608  50.472  0.00  0.00     0.104 A 
ATOM      2  C   UNL d   1      61.757  45.051  50.199  0.00  0.00     0.058 A 
ATOM      3  C   UNL d   1      61.739  46.409  49.791  0.00  0.00     0.013 A 
ATOM      4  C   UNL d   1      61.081  46.008  51.018  0.00  0.00     0.013 A 
ATOM      5  C   UNL d   1      61.965  45.632  49.665  0.00  0.00     0.005 A 
ATOM      6  C   UNL d   1      61.311  45.230  50.885  0.00  0.00     0.005 A 
ENDROOT
BRANCH   1   7
ATOM      7  S   UNL d   1      61.054  47.393  50.617  0.00  0.00     0.272 S 
ATOM      8  O   UNL d   1      61.595  47.682  50.044  0.00  0.00    -0.200 OA
ATOM      9  O   UNL d   1      60.505  47.114  51.196  0.00  0.00    -0.200 OA
BRANCH   7  10
ATOM     10  N   UNL d   1      60.800  48.176  50.777  0.00  0.00    -0.225 N 
ATOM     11  C   UNL d   1      60.945  48.779  50.231  0.00  0.00     0.118 A 
ATOM     12  C   UNL d   1      60.693  49.537  50.398  0.00  0.00     0.142 A 
ATOM     13  O   UNL d   1      60.286  49.708  51.124  0.00  0.00    -0.300 OA
ATOM     14  C   UNL d   1      60.143  49.115  51.664  0.00  0.00     0.142 A 
ATOM     15  C   UNL d   1      60.393  48.346  51.503  0.00  0.00     0.118 A 
ENDBRANCH   7  10
ENDBRANCH   1   7
BRANCH   2  16
ATOM     16  C   UNL d   1      61.984  44.259  50.077  0.00  0.00     0.279 C 
ATOM     17  N   UNL d   1      62.455  43.863  50.623  0.00  0.00    -0.208 NA
ATOM     18  O   UNL d   1      61.720  43.880  49.391  0.00  0.00    -0.265 OA
BRANCH  17  19
ATOM     19  C   UNL d   1      62.682  43.070  50.501  0.00  0.00     0.085 A 
ATOM     20  C   UNL d   1      62.817  42.584  51.155  0.00  0.00     0.019 A 
ATOM     21  C   UNL d   1      63.041  41.797  51.053  0.00  0.00     0.002 A 
ATOM     22  C   UNL d   1      63.128  41.506  50.290  0.00  0.00     0.000 A 
ATOM     23  C   UNL d   1      62.993  41.992  49.636  0.00  0.00     0.002 A 
ATOM     24  C   UNL d   1      62.771  42.769  49.744  0.00  0.00     0.019 A 
ENDBRANCH  17  19
ENDBRANCH   2  16
TORSDOF 4
ENDMDL
