MODEL 1
REMARK VINA RESULT:      -8.0      0.000      0.000
REMARK  3 active torsions:
REMARK  status: ('A' for Active; 'I' for Inactive)
REMARK    1  A    between atoms: S_7  and  C_4 
REMARK    2  A    between atoms: C_9  and  S_7 
REMARK    3  A    between atoms: C_10  and  C_9 
ROOT
ATOM      1  S   UNL d   1      52.654  32.937  53.630  0.00  0.00    -0.046 SA
ENDROOT
BRANCH   1   2
ATOM      2  C   UNL d   1      52.784  33.728  53.823  0.00  0.00     0.217 A 
ATOM      3  N   UNL d   1      53.022  33.934  54.587  0.00  0.00    -0.180 NA
ATOM      4  C   UNL d   1      53.153  34.725  54.780  0.00  0.00     0.300 A 
ATOM      5  C   UNL d   1      53.045  35.310  54.210  0.00  0.00     0.161 A 
ATOM      6  O   UNL d   1      53.391  34.931  55.545  0.00  0.00    -0.263 OA
ATOM      7  C   UNL d   1      53.176  36.102  54.403  0.00  0.00     0.028 C 
ATOM      8  N   UNL d   1      52.807  35.104  53.445  0.00  0.00    -0.141 NA
ATOM      9  N   UNL d   1      52.677  34.314  53.252  0.00  0.00    -0.121 NA
ENDBRANCH   1   2
BRANCH   1  10
ATOM     10  C   UNL d   1      53.272  32.477  53.329  0.00  0.00     0.038 C 
BRANCH  10  11
ATOM     11  C   UNL d   1      53.216  31.654  53.336  0.00  0.00     0.007 A 
ATOM     12  C   UNL d   1      52.632  31.274  52.891  0.00  0.00     0.001 A 
ATOM     13  C   UNL d   1      52.576  30.451  52.897  0.00  0.00     0.000 A 
ATOM     14  C   UNL d   1      53.105  30.008  53.350  0.00  0.00     0.000 A 
ATOM     15  C   UNL d   1      53.689  30.387  53.795  0.00  0.00     0.000 A 
ATOM     16  C   UNL d   1      53.049  29.184  53.356  0.00  0.00     0.000 C 
ATOM     17  C   UNL d   1      53.745  31.210  53.788  0.00  0.00     0.001 A 
ENDBRANCH  10  11
ENDBRANCH   1  10
TORSDOF 3
ENDMDL
MODEL 2
REMARK VINA RESULT:      -7.9      1.922      4.351
REMARK  3 active torsions:
REMARK  status: ('A' for Active; 'I' for Inactive)
REMARK    1  A    between atoms: S_7  and  C_4 
REMARK    2  A    between atoms: C_9  and  S_7 
REMARK    3  A    between atoms: C_10  and  C_9 
ROOT
ATOM      1  S   UNL d   1      53.320  32.513  53.455  0.00  0.00    -0.046 SA
ENDROOT
BRANCH   1   2
ATOM      2  C   UNL d   1      53.191  31.711  53.310  0.00  0.00     0.217 A 
ATOM      3  N   UNL d   1      53.449  31.145  53.854  0.00  0.00    -0.180 NA
ATOM      4  C   UNL d   1      53.320  30.343  53.709  0.00  0.00     0.300 A 
ATOM      5  C   UNL d   1      52.934  30.108  53.021  0.00  0.00     0.161 A 
ATOM      6  O   UNL d   1      53.579  29.777  54.253  0.00  0.00    -0.263 OA
ATOM      7  C   UNL d   1      52.804  29.306  52.875  0.00  0.00     0.028 C 
ATOM      8  N   UNL d   1      52.675  30.674  52.476  0.00  0.00    -0.141 NA
ATOM      9  N   UNL d   1      52.804  31.475  52.621  0.00  0.00    -0.121 NA
ENDBRANCH   1   2
BRANCH   1  10
ATOM     10  C   UNL d   1      52.682  33.010  53.627  0.00  0.00     0.038 C 
BRANCH  10  11
ATOM     11  C   UNL d   1      52.817  33.788  53.867  0.00  0.00     0.007 A 
ATOM     12  C   UNL d   1      53.130  33.943  54.616  0.00  0.00     0.001 A 
ATOM     13  C   UNL d   1      53.265  34.721  54.856  0.00  0.00     0.000 A 
ATOM     14  C   UNL d   1      53.086  35.344  54.345  0.00  0.00     0.000 A 
ATOM     15  C   UNL d   1      52.773  35.190  53.597  0.00  0.00     0.000 A 
ATOM     16  C   UNL d   1      53.221  36.122  54.585  0.00  0.00     0.000 C 
ATOM     17  C   UNL d   1      52.638  34.412  53.357  0.00  0.00     0.001 A 
ENDBRANCH  10  11
ENDBRANCH   1  10
TORSDOF 3
ENDMDL
MODEL 3
REMARK VINA RESULT:      -7.8      2.350      3.560
REMARK  3 active torsions:
REMARK  status: ('A' for Active; 'I' for Inactive)
REMARK    1  A    between atoms: S_7  and  C_4 
REMARK    2  A    between atoms: C_9  and  S_7 
REMARK    3  A    between atoms: C_10  and  C_9 
ROOT
ATOM      1  S   UNL d   1      52.263  33.748  53.717  0.00  0.00    -0.046 SA
ENDROOT
BRANCH   1   2
ATOM      2  C   UNL d   1      52.993  33.729  54.102  0.00  0.00     0.217 A 
ATOM      3  N   UNL d   1      53.552  33.154  53.901  0.00  0.00    -0.180 NA
ATOM      4  C   UNL d   1      54.281  33.135  54.286  0.00  0.00     0.300 A 
ATOM      5  C   UNL d   1      54.451  33.690  54.871  0.00  0.00     0.161 A 
ATOM      6  O   UNL d   1      54.841  32.560  54.085  0.00  0.00    -0.263 OA
ATOM      7  C   UNL d   1      55.181  33.672  55.256  0.00  0.00     0.028 C 
ATOM      8  N   UNL d   1      53.892  34.265  55.072  0.00  0.00    -0.141 NA
ATOM      9  N   UNL d   1      53.163  34.285  54.687  0.00  0.00    -0.121 NA
ENDBRANCH   1   2
BRANCH   1  10
ATOM     10  C   UNL d   1      52.101  34.343  53.167  0.00  0.00     0.038 C 
BRANCH  10  11
ATOM     11  C   UNL d   1      51.378  34.353  52.768  0.00  0.00     0.007 A 
ATOM     12  C   UNL d   1      50.678  34.491  53.185  0.00  0.00     0.001 A 
ATOM     13  C   UNL d   1      49.955  34.500  52.786  0.00  0.00     0.000 A 
ATOM     14  C   UNL d   1      49.934  34.373  51.971  0.00  0.00     0.000 A 
ATOM     15  C   UNL d   1      50.634  34.235  51.555  0.00  0.00     0.000 A 
ATOM     16  C   UNL d   1      49.211  34.383  51.573  0.00  0.00     0.000 C 
ATOM     17  C   UNL d   1      51.357  34.226  51.953  0.00  0.00     0.001 A 
ENDBRANCH  10  11
ENDBRANCH   1  10
TORSDOF 3
ENDMDL
MODEL 4
REMARK VINA RESULT:      -7.6      2.409      3.403
REMARK  3 active torsions:
REMARK  status: ('A' for Active; 'I' for Inactive)
REMARK    1  A    between atoms: S_7  and  C_4 
REMARK    2  A    between atoms: C_9  and  S_7 
REMARK    3  A    between atoms: C_10  and  C_9 
ROOT
ATOM      1  S   UNL d   1      52.109  34.328  53.200  0.00  0.00    -0.046 SA
ENDROOT
BRANCH   1   2
ATOM      2  C   UNL d   1      51.406  34.350  52.769  0.00  0.00     0.217 A 
ATOM      3  N   UNL d   1      50.708  34.610  53.130  0.00  0.00    -0.180 NA
ATOM      4  C   UNL d   1      50.005  34.633  52.699  0.00  0.00     0.300 A 
ATOM      5  C   UNL d   1      49.999  34.395  51.910  0.00  0.00     0.161 A 
ATOM      6  O   UNL d   1      49.307  34.893  53.059  0.00  0.00    -0.263 OA
ATOM      7  C   UNL d   1      49.295  34.417  51.479  0.00  0.00     0.028 C 
ATOM      8  N   UNL d   1      50.696  34.135  51.550  0.00  0.00    -0.141 NA
ATOM      9  N   UNL d   1      51.399  34.113  51.980  0.00  0.00    -0.121 NA
ENDBRANCH   1   2
BRANCH   1  10
ATOM     10  C   UNL d   1      52.364  33.619  53.541  0.00  0.00     0.038 C 
BRANCH  10  11
ATOM     11  C   UNL d   1      53.067  33.597  53.972  0.00  0.00     0.007 A 
ATOM     12  C   UNL d   1      53.201  34.145  54.576  0.00  0.00     0.001 A 
ATOM     13  C   UNL d   1      53.904  34.122  55.008  0.00  0.00     0.000 A 
ATOM     14  C   UNL d   1      54.473  33.550  54.835  0.00  0.00     0.000 A 
ATOM     15  C   UNL d   1      54.339  33.002  54.231  0.00  0.00     0.000 A 
ATOM     16  C   UNL d   1      55.176  33.528  55.266  0.00  0.00     0.000 C 
ATOM     17  C   UNL d   1      53.636  33.025  53.799  0.00  0.00     0.001 A 
ENDBRANCH  10  11
ENDBRANCH   1  10
TORSDOF 3
ENDMDL
MODEL 5
REMARK VINA RESULT:      -7.6      2.561      4.346
REMARK  3 active torsions:
REMARK  status: ('A' for Active; 'I' for Inactive)
REMARK    1  A    between atoms: S_7  and  C_4 
REMARK    2  A    between atoms: C_9  and  S_7 
REMARK    3  A    between atoms: C_10  and  C_9 
ROOT
ATOM      1  S   UNL d   1      52.597  32.052  52.830  0.00  0.00    -0.046 SA
ENDROOT
BRANCH   1   2
ATOM      2  C   UNL d   1      52.869  31.349  53.164  0.00  0.00     0.217 A 
ATOM      3  N   UNL d   1      52.478  30.637  53.007  0.00  0.00    -0.180 NA
ATOM      4  C   UNL d   1      52.750  29.934  53.342  0.00  0.00     0.300 A 
ATOM      5  C   UNL d   1      53.412  29.943  53.833  0.00  0.00     0.161 A 
ATOM      6  O   UNL d   1      52.360  29.223  53.185  0.00  0.00    -0.263 OA
ATOM      7  C   UNL d   1      53.684  29.239  54.169  0.00  0.00     0.028 C 
ATOM      8  N   UNL d   1      53.802  30.655  53.991  0.00  0.00    -0.141 NA
ATOM      9  N   UNL d   1      53.531  31.357  53.656  0.00  0.00    -0.121 NA
ENDBRANCH   1   2
BRANCH   1  10
ATOM     10  C   UNL d   1      52.398  32.692  53.314  0.00  0.00     0.038 C 
BRANCH  10  11
ATOM     11  C   UNL d   1      51.806  33.219  53.083  0.00  0.00     0.007 A 
ATOM     12  C   UNL d   1      51.951  33.766  52.481  0.00  0.00     0.001 A 
ATOM     13  C   UNL d   1      51.359  34.292  52.249  0.00  0.00     0.000 A 
ATOM     14  C   UNL d   1      50.622  34.271  52.621  0.00  0.00     0.000 A 
ATOM     15  C   UNL d   1      50.478  33.724  53.222  0.00  0.00     0.000 A 
ATOM     16  C   UNL d   1      50.031  34.797  52.389  0.00  0.00     0.000 C 
ATOM     17  C   UNL d   1      51.070  33.197  53.454  0.00  0.00     0.001 A 
ENDBRANCH  10  11
ENDBRANCH   1  10
TORSDOF 3
ENDMDL
MODEL 6
REMARK VINA RESULT:      -7.3      1.957      2.256
REMARK  3 active torsions:
REMARK  status: ('A' for Active; 'I' for Inactive)
REMARK    1  A    between atoms: S_7  and  C_4 
REMARK    2  A    between atoms: C_9  and  S_7 
REMARK    3  A    between atoms: C_10  and  C_9 
ROOT
ATOM      1  S   UNL d   1      52.489  32.455  53.254  0.00  0.00    -0.046 SA
ENDROOT
BRANCH   1   2
ATOM      2  C   UNL d   1      51.899  32.997  53.058  0.00  0.00     0.217 A 
ATOM      3  N   UNL d   1      51.969  33.457  52.374  0.00  0.00    -0.180 NA
ATOM      4  C   UNL d   1      51.379  33.999  52.178  0.00  0.00     0.300 A 
ATOM      5  C   UNL d   1      50.720  34.081  52.665  0.00  0.00     0.161 A 
ATOM      6  O   UNL d   1      51.449  34.458  51.494  0.00  0.00    -0.263 OA
ATOM      7  C   UNL d   1      50.129  34.624  52.469  0.00  0.00     0.028 C 
ATOM      8  N   UNL d   1      50.649  33.622  53.349  0.00  0.00    -0.141 NA
ATOM      9  N   UNL d   1      51.238  33.080  53.545  0.00  0.00    -0.121 NA
ENDBRANCH   1   2
BRANCH   1  10
ATOM     10  C   UNL d   1      52.582  31.765  52.808  0.00  0.00     0.038 C 
BRANCH  10  11
ATOM     11  C   UNL d   1      52.850  31.072  53.168  0.00  0.00     0.007 A 
ATOM     12  C   UNL d   1      53.514  31.091  53.659  0.00  0.00     0.001 A 
ATOM     13  C   UNL d   1      53.782  30.399  54.019  0.00  0.00     0.000 A 
ATOM     14  C   UNL d   1      53.385  29.687  53.886  0.00  0.00     0.000 A 
ATOM     15  C   UNL d   1      52.722  29.669  53.395  0.00  0.00     0.000 A 
ATOM     16  C   UNL d   1      53.654  28.995  54.246  0.00  0.00     0.000 C 
ATOM     17  C   UNL d   1      52.453  30.361  53.035  0.00  0.00     0.001 A 
ENDBRANCH  10  11
ENDBRANCH   1  10
TORSDOF 3
ENDMDL
MODEL 7
REMARK VINA RESULT:      -6.8      3.100      3.780
REMARK  3 active torsions:
REMARK  status: ('A' for Active; 'I' for Inactive)
REMARK    1  A    between atoms: S_7  and  C_4 
REMARK    2  A    between atoms: C_9  and  S_7 
REMARK    3  A    between atoms: C_10  and  C_9 
ROOT
ATOM      1  S   UNL d   1      50.681  34.101  52.993  0.00  0.00    -0.046 SA
ENDROOT
BRANCH   1   2
ATOM      2  C   UNL d   1      50.005  34.451  52.676  0.00  0.00     0.217 A 
ATOM      3  N   UNL d   1      49.550  34.966  53.137  0.00  0.00    -0.180 NA
ATOM      4  C   UNL d   1      48.874  35.316  52.819  0.00  0.00     0.300 A 
ATOM      5  C   UNL d   1      48.653  35.153  52.043  0.00  0.00     0.161 A 
ATOM      6  O   UNL d   1      48.419  35.831  53.280  0.00  0.00    -0.263 OA
ATOM      7  C   UNL d   1      47.977  35.503  51.725  0.00  0.00     0.028 C 
ATOM      8  N   UNL d   1      49.108  34.638  51.582  0.00  0.00    -0.141 NA
ATOM      9  N   UNL d   1      49.783  34.288  51.899  0.00  0.00    -0.121 NA
ENDBRANCH   1   2
BRANCH   1  10
ATOM     10  C   UNL d   1      51.407  34.176  52.605  0.00  0.00     0.038 C 
BRANCH  10  11
ATOM     11  C   UNL d   1      52.092  33.863  52.944  0.00  0.00     0.007 A 
ATOM     12  C   UNL d   1      52.247  33.054  52.892  0.00  0.00     0.001 A 
ATOM     13  C   UNL d   1      52.932  32.741  53.231  0.00  0.00     0.000 A 
ATOM     14  C   UNL d   1      53.461  33.240  53.622  0.00  0.00     0.000 A 
ATOM     15  C   UNL d   1      53.305  34.050  53.674  0.00  0.00     0.000 A 
ATOM     16  C   UNL d   1      54.145  32.927  53.961  0.00  0.00     0.000 C 
ATOM     17  C   UNL d   1      52.621  34.362  53.335  0.00  0.00     0.001 A 
ENDBRANCH  10  11
ENDBRANCH   1  10
TORSDOF 3
ENDMDL
MODEL 8
REMARK VINA RESULT:      -5.2     10.297     10.674
REMARK  3 active torsions:
REMARK  status: ('A' for Active; 'I' for Inactive)
REMARK    1  A    between atoms: S_7  and  C_4 
REMARK    2  A    between atoms: C_9  and  S_7 
REMARK    3  A    between atoms: C_10  and  C_9 
ROOT
ATOM      1  S   UNL d   1      44.496  29.085  59.159  0.00  0.00    -0.046 SA
ENDROOT
BRANCH   1   2
ATOM      2  C   UNL d   1      44.526  29.616  59.790  0.00  0.00     0.217 A 
ATOM      3  N   UNL d   1      44.409  29.347  60.563  0.00  0.00    -0.180 NA
ATOM      4  C   UNL d   1      44.438  29.877  61.194  0.00  0.00     0.300 A 
ATOM      5  C   UNL d   1      44.584  30.676  61.052  0.00  0.00     0.161 A 
ATOM      6  O   UNL d   1      44.321  29.608  61.967  0.00  0.00    -0.263 OA
ATOM      7  C   UNL d   1      44.614  31.207  61.683  0.00  0.00     0.028 C 
ATOM      8  N   UNL d   1      44.701  30.945  60.279  0.00  0.00    -0.141 NA
ATOM      9  N   UNL d   1      44.672  30.415  59.648  0.00  0.00    -0.121 NA
ENDBRANCH   1   2
BRANCH   1  10
ATOM     10  C   UNL d   1      45.185  28.901  58.740  0.00  0.00     0.038 C 
BRANCH  10  11
ATOM     11  C   UNL d   1      45.180  28.295  58.180  0.00  0.00     0.007 A 
ATOM     12  C   UNL d   1      44.980  28.458  57.395  0.00  0.00     0.001 A 
ATOM     13  C   UNL d   1      44.974  27.852  56.835  0.00  0.00     0.000 A 
ATOM     14  C   UNL d   1      45.169  27.082  57.061  0.00  0.00     0.000 A 
ATOM     15  C   UNL d   1      45.369  26.919  57.846  0.00  0.00     0.000 A 
ATOM     16  C   UNL d   1      45.164  26.477  56.501  0.00  0.00     0.000 C 
ATOM     17  C   UNL d   1      45.375  27.525  58.406  0.00  0.00     0.001 A 
ENDBRANCH  10  11
ENDBRANCH   1  10
TORSDOF 3
ENDMDL
MODEL 9
REMARK VINA RESULT:      -5.2     10.474     11.560
REMARK  3 active torsions:
REMARK  status: ('A' for Active; 'I' for Inactive)
REMARK    1  A    between atoms: S_7  and  C_4 
REMARK    2  A    between atoms: C_9  and  S_7 
REMARK    3  A    between atoms: C_10  and  C_9 
ROOT
ATOM      1  S   UNL d   1      44.633  26.479  56.883  0.00  0.00    -0.046 SA
ENDROOT
BRANCH   1   2
ATOM      2  C   UNL d   1      44.717  25.721  56.568  0.00  0.00     0.217 A 
ATOM      3  N   UNL d   1      44.473  25.062  57.005  0.00  0.00    -0.180 NA
ATOM      4  C   UNL d   1      44.557  24.305  56.690  0.00  0.00     0.300 A 
ATOM      5  C   UNL d   1      44.884  24.205  55.940  0.00  0.00     0.161 A 
ATOM      6  O   UNL d   1      44.314  23.646  57.126  0.00  0.00    -0.263 OA
ATOM      7  C   UNL d   1      44.968  23.447  55.624  0.00  0.00     0.028 C 
ATOM      8  N   UNL d   1      45.127  24.864  55.503  0.00  0.00    -0.141 NA
ATOM      9  N   UNL d   1      45.043  25.622  55.817  0.00  0.00    -0.121 NA
ENDBRANCH   1   2
BRANCH   1  10
ATOM     10  C   UNL d   1      45.277  26.998  56.890  0.00  0.00     0.038 C 
BRANCH  10  11
ATOM     11  C   UNL d   1      45.201  27.747  57.227  0.00  0.00     0.007 A 
ATOM     12  C   UNL d   1      44.991  28.394  56.758  0.00  0.00     0.001 A 
ATOM     13  C   UNL d   1      44.915  29.143  57.095  0.00  0.00     0.000 A 
ATOM     14  C   UNL d   1      45.049  29.245  57.903  0.00  0.00     0.000 A 
ATOM     15  C   UNL d   1      45.260  28.599  58.372  0.00  0.00     0.000 A 
ATOM     16  C   UNL d   1      44.973  29.994  58.240  0.00  0.00     0.000 C 
ATOM     17  C   UNL d   1      45.336  27.849  58.035  0.00  0.00     0.001 A 
ENDBRANCH  10  11
ENDBRANCH   1  10
TORSDOF 3
ENDMDL
