MODEL 1
REMARK VINA RESULT:      -4.9      0.000      0.000
REMARK  5 active torsions:
REMARK  status: ('A' for Active; 'I' for Inactive)
REMARK    1  A    between atoms: N_2  and  S_1 
REMARK    2  A    between atoms: C_7  and  S_1 
REMARK    3  A    between atoms: C_3  and  N_2 
REMARK    4  A    between atoms: N_6  and  C_8 
REMARK    5  A    between atoms: C_9  and  N_6 
ROOT
ATOM      1  C   UNL d   1      56.794  -0.145  31.908  0.00  0.00     0.111 A 
ATOM      2  C   UNL d   1      56.305  -0.146  32.571  0.00  0.00     0.100 A 
ATOM      3  C   UNL d   1      56.965  -0.866  31.543  0.00  0.00     0.021 A 
ATOM      4  C   UNL d   1      55.994  -0.847  32.862  0.00  0.00     0.021 A 
ATOM      5  C   UNL d   1      56.654  -1.568  31.835  0.00  0.00     0.002 A 
ATOM      6  C   UNL d   1      56.164  -1.564  32.498  0.00  0.00     0.002 A 
ENDROOT
BRANCH   1   7
ATOM      7  N   UNL d   1      57.105   0.556  31.617  0.00  0.00    -0.157 NA
BRANCH   7   8
ATOM      8  S   UNL d   1      57.661   0.542  31.009  0.00  0.00     0.285 S 
ATOM      9  O   UNL d   1      57.055   0.456  30.455  0.00  0.00    -0.198 OA
ATOM     10  O   UNL d   1      58.277   0.631  31.577  0.00  0.00    -0.198 OA
BRANCH   8  11
ATOM     11  C   UNL d   1      58.231   0.529  30.390  0.00  0.00     0.105 A 
ATOM     12  C   UNL d   1      59.050   0.512  30.573  0.00  0.00     0.013 A 
ATOM     13  C   UNL d   1      59.599   0.499  29.963  0.00  0.00     0.001 A 
ATOM     14  C   UNL d   1      59.360   0.502  29.182  0.00  0.00     0.000 A 
ATOM     15  C   UNL d   1      58.542   0.519  28.999  0.00  0.00     0.001 A 
ATOM     16  C   UNL d   1      57.975   0.533  29.600  0.00  0.00     0.013 A 
ENDBRANCH   8  11
ENDBRANCH   7   8
ENDBRANCH   1   7
BRANCH   2  17
ATOM     17  N   UNL d   1      56.131   0.598  32.944  0.00  0.00    -0.244 NA
BRANCH  17  18
ATOM     18  C   UNL d   1      55.768   0.626  33.680  0.00  0.00     0.081 A 
ATOM     19  C   UNL d   1      54.959   0.643  33.720  0.00  0.00     0.019 A 
ATOM     20  C   UNL d   1      54.573   0.671  34.449  0.00  0.00     0.002 A 
ATOM     21  C   UNL d   1      55.015   0.682  35.151  0.00  0.00     0.000 A 
ATOM     22  C   UNL d   1      55.837   0.664  35.108  0.00  0.00     0.002 A 
ATOM     23  C   UNL d   1      56.221   0.636  34.375  0.00  0.00     0.019 A 
ENDBRANCH  17  18
ENDBRANCH   2  17
TORSDOF 5
ENDMDL
MODEL 2
REMARK VINA RESULT:      -3.9      1.000      4.456
REMARK  5 active torsions:
REMARK  status: ('A' for Active; 'I' for Inactive)
REMARK    1  A    between atoms: N_2  and  S_1 
REMARK    2  A    between atoms: C_7  and  S_1 
REMARK    3  A    between atoms: C_3  and  N_2 
REMARK    4  A    between atoms: N_6  and  C_8 
REMARK    5  A    between atoms: C_9  and  N_6 
ROOT
ATOM      1  C   UNL d   1      56.811  -0.041  31.948  0.00  0.00     0.111 A 
ATOM      2  C   UNL d   1      57.314  -0.060  31.297  0.00  0.00     0.100 A 
ATOM      3  C   UNL d   1      56.473  -0.751  32.205  0.00  0.00     0.021 A 
ATOM      4  C   UNL d   1      57.477  -0.766  30.911  0.00  0.00     0.021 A 
ATOM      5  C   UNL d   1      56.636  -1.457  31.819  0.00  0.00     0.002 A 
ATOM      6  C   UNL d   1      57.141  -1.470  31.167  0.00  0.00     0.002 A 
ENDROOT
BRANCH   1   7
ATOM      7  N   UNL d   1      56.648   0.664  32.334  0.00  0.00    -0.157 NA
BRANCH   7   8
ATOM      8  S   UNL d   1      56.207   0.665  33.028  0.00  0.00     0.285 S 
ATOM      9  O   UNL d   1      55.509   0.678  32.587  0.00  0.00    -0.198 OA
ATOM     10  O   UNL d   1      56.920   0.651  33.477  0.00  0.00    -0.198 OA
BRANCH   8  11
ATOM     11  C   UNL d   1      55.758   0.665  33.741  0.00  0.00     0.105 A 
ATOM     12  C   UNL d   1      56.148   0.681  34.484  0.00  0.00     0.013 A 
ATOM     13  C   UNL d   1      55.702   0.682  35.173  0.00  0.00     0.001 A 
ATOM     14  C   UNL d   1      54.886   0.667  35.147  0.00  0.00     0.000 A 
ATOM     15  C   UNL d   1      54.496   0.652  34.404  0.00  0.00     0.001 A 
ATOM     16  C   UNL d   1      54.929   0.651  33.700  0.00  0.00     0.013 A 
ENDBRANCH   8  11
ENDBRANCH   7   8
ENDBRANCH   1   7
BRANCH   2  17
ATOM     17  N   UNL d   1      57.661   0.671  31.035  0.00  0.00    -0.244 NA
BRANCH  17  18
ATOM     18  C   UNL d   1      58.285   0.675  30.501  0.00  0.00     0.081 A 
ATOM     19  C   UNL d   1      59.045   0.677  30.783  0.00  0.00     0.019 A 
ATOM     20  C   UNL d   1      59.687   0.680  30.264  0.00  0.00     0.002 A 
ATOM     21  C   UNL d   1      59.557   0.682  29.445  0.00  0.00     0.000 A 
ATOM     22  C   UNL d   1      58.785   0.680  29.161  0.00  0.00     0.002 A 
ATOM     23  C   UNL d   1      58.143   0.677  29.685  0.00  0.00     0.019 A 
ENDBRANCH  17  18
ENDBRANCH   2  17
TORSDOF 5
ENDMDL
MODEL 3
REMARK VINA RESULT:      -3.8      1.399      4.745
REMARK  5 active torsions:
REMARK  status: ('A' for Active; 'I' for Inactive)
REMARK    1  A    between atoms: N_2  and  S_1 
REMARK    2  A    between atoms: C_7  and  S_1 
REMARK    3  A    between atoms: C_3  and  N_2 
REMARK    4  A    between atoms: N_6  and  C_8 
REMARK    5  A    between atoms: C_9  and  N_6 
ROOT
ATOM      1  C   UNL d   1      57.835   0.131  31.255  0.00  0.00     0.111 A 
ATOM      2  C   UNL d   1      58.368   0.020  30.637  0.00  0.00     0.100 A 
ATOM      3  C   UNL d   1      58.112   0.465  31.959  0.00  0.00     0.021 A 
ATOM      4  C   UNL d   1      59.156   0.235  30.717  0.00  0.00     0.021 A 
ATOM      5  C   UNL d   1      58.901   0.681  32.038  0.00  0.00     0.002 A 
ATOM      6  C   UNL d   1      59.430   0.567  31.416  0.00  0.00     0.002 A 
ENDROOT
BRANCH   1   7
ATOM      7  N   UNL d   1      57.048  -0.084  31.175  0.00  0.00    -0.157 NA
BRANCH   7   8
ATOM      8  S   UNL d   1      56.568  -0.154  31.840  0.00  0.00     0.285 S 
ATOM      9  O   UNL d   1      56.683  -0.972  31.838  0.00  0.00    -0.198 OA
ATOM     10  O   UNL d   1      56.451   0.680  31.840  0.00  0.00    -0.198 OA
BRANCH   8  11
ATOM     11  C   UNL d   1      56.076  -0.224  32.520  0.00  0.00     0.105 A 
ATOM     12  C   UNL d   1      55.976  -0.969  32.892  0.00  0.00     0.013 A 
ATOM     13  C   UNL d   1      55.495  -1.028  33.555  0.00  0.00     0.001 A 
ATOM     14  C   UNL d   1      55.113  -0.372  33.857  0.00  0.00     0.000 A 
ATOM     15  C   UNL d   1      55.213   0.373  33.485  0.00  0.00     0.001 A 
ATOM     16  C   UNL d   1      55.693   0.451  32.817  0.00  0.00     0.013 A 
ENDBRANCH   8  11
ENDBRANCH   7   8
ENDBRANCH   1   7
BRANCH   2  17
ATOM     17  N   UNL d   1      58.080  -0.324  29.914  0.00  0.00    -0.244 NA
BRANCH  17  18
ATOM     18  C   UNL d   1      58.576  -0.760  29.427  0.00  0.00     0.081 A 
ATOM     19  C   UNL d   1      58.521  -1.568  29.428  0.00  0.00     0.019 A 
ATOM     20  C   UNL d   1      59.010  -2.026  28.947  0.00  0.00     0.002 A 
ATOM     21  C   UNL d   1      59.567  -1.658  28.455  0.00  0.00     0.000 A 
ATOM     22  C   UNL d   1      59.623  -0.837  28.455  0.00  0.00     0.002 A 
ATOM     23  C   UNL d   1      59.130  -0.381  28.940  0.00  0.00     0.019 A 
ENDBRANCH  17  18
ENDBRANCH   2  17
TORSDOF 5
ENDMDL
MODEL 4
REMARK VINA RESULT:      -2.8      1.971      2.813
REMARK  5 active torsions:
REMARK  status: ('A' for Active; 'I' for Inactive)
REMARK    1  A    between atoms: N_2  and  S_1 
REMARK    2  A    between atoms: C_7  and  S_1 
REMARK    3  A    between atoms: C_3  and  N_2 
REMARK    4  A    between atoms: N_6  and  C_8 
REMARK    5  A    between atoms: C_9  and  N_6 
ROOT
ATOM      1  C   UNL d   1      58.442  -0.116  30.456  0.00  0.00     0.111 A 
ATOM      2  C   UNL d   1      57.965   0.113  31.087  0.00  0.00     0.100 A 
ATOM      3  C   UNL d   1      59.249   0.059  30.489  0.00  0.00     0.021 A 
ATOM      4  C   UNL d   1      58.283   0.507  31.733  0.00  0.00     0.021 A 
ATOM      5  C   UNL d   1      59.567   0.452  31.135  0.00  0.00     0.002 A 
ATOM      6  C   UNL d   1      59.085   0.680  31.764  0.00  0.00     0.002 A 
ENDROOT
BRANCH   1   7
ATOM      7  N   UNL d   1      58.124  -0.510  29.810  0.00  0.00    -0.157 NA
BRANCH   7   8
ATOM      8  S   UNL d   1      58.524  -1.146  29.474  0.00  0.00     0.285 S 
ATOM      9  O   UNL d   1      58.990  -0.624  29.037  0.00  0.00    -0.198 OA
ATOM     10  O   UNL d   1      58.047  -1.677  29.922  0.00  0.00    -0.198 OA
BRANCH   8  11
ATOM     11  C   UNL d   1      58.931  -1.799  29.132  0.00  0.00     0.105 A 
ATOM     12  C   UNL d   1      59.688  -1.688  28.786  0.00  0.00     0.013 A 
ATOM     13  C   UNL d   1      60.077  -2.330  28.455  0.00  0.00     0.001 A 
ATOM     14  C   UNL d   1      59.740  -3.074  28.457  0.00  0.00     0.000 A 
ATOM     15  C   UNL d   1      58.984  -3.184  28.803  0.00  0.00     0.001 A 
ATOM     16  C   UNL d   1      58.577  -2.550  29.141  0.00  0.00     0.013 A 
ENDBRANCH   8  11
ENDBRANCH   7   8
ENDBRANCH   1   7
BRANCH   2  17
ATOM     17  N   UNL d   1      57.134  -0.069  31.051  0.00  0.00    -0.244 NA
BRANCH  17  18
ATOM     18  C   UNL d   1      56.675  -0.080  31.731  0.00  0.00     0.081 A 
ATOM     19  C   UNL d   1      56.259   0.583  31.938  0.00  0.00     0.019 A 
ATOM     20  C   UNL d   1      55.791   0.593  32.618  0.00  0.00     0.002 A 
ATOM     21  C   UNL d   1      55.744  -0.082  33.098  0.00  0.00     0.000 A 
ATOM     22  C   UNL d   1      56.168  -0.755  32.886  0.00  0.00     0.002 A 
ATOM     23  C   UNL d   1      56.636  -0.762  32.203  0.00  0.00     0.019 A 
ENDBRANCH  17  18
ENDBRANCH   2  17
TORSDOF 5
ENDMDL
