MODEL 1
REMARK VINA RESULT:      -6.7      0.000      0.000
REMARK  6 active torsions:
REMARK  status: ('A' for Active; 'I' for Inactive)
REMARK    1  A    between atoms: C_10  and  C_2 
REMARK    2  A    between atoms: C_11  and  C_4 
REMARK    3  A    between atoms: N_12  and  C_10 
REMARK    4  A    between atoms: O_17  and  C_11 
REMARK    5  A    between atoms: C_14  and  N_12 
REMARK    6  A    between atoms: C_23  and  O_17 
ROOT
ATOM      1  C   UNL d   1     -49.042  13.180  23.165  0.00  0.00     0.035 A 
ATOM      2  C   UNL d   1     -48.441  13.699  22.898  0.00  0.00     0.060 A 
ATOM      3  C   UNL d   1     -49.765  13.475  23.432  0.00  0.00     0.100 A 
ATOM      4  C   UNL d   1     -49.077  12.345  23.229  0.00  0.00     0.088 A 
ATOM      5  O   UNL d   1     -50.243  12.851  23.657  0.00  0.00    -0.307 OA
ATOM      6  C   UNL d   1     -49.823  12.153  23.534  0.00  0.00     0.105 A 
ATOM      7  C   UNL d   1     -48.575  14.501  22.903  0.00  0.00     0.197 A 
ATOM      8  C   UNL d   1     -49.886  14.294  23.431  0.00  0.00     0.026 A 
ATOM      9  C   UNL d   1     -49.284  14.813  23.163  0.00  0.00     0.041 A 
ATOM     10  O   UNL d   1     -47.971  15.022  22.634  0.00  0.00    -0.286 OA
ATOM     11  C   UNL d   1     -50.095  11.373  23.688  0.00  0.00     0.027 C 
ATOM     12  C   UNL d   1     -50.606  14.586  23.697  0.00  0.00     0.002 A 
ATOM     13  C   UNL d   1     -49.417  15.613  23.167  0.00  0.00     0.003 A 
ATOM     14  C   UNL d   1     -50.725  15.403  23.695  0.00  0.00     0.000 A 
ATOM     15  C   UNL d   1     -50.124  15.922  23.427  0.00  0.00     0.000 A 
ENDROOT
BRANCH   2  16
ATOM     16  C   UNL d   1     -47.707  13.389  22.628  0.00  0.00     0.104 C 
BRANCH  16  17
ATOM     17  N   UNL d   1     -47.094  13.907  22.397  0.00  0.00    -0.225 NA
BRANCH  17  18
ATOM     18  C   UNL d   1     -46.346  13.610  22.209  0.00  0.00     0.163 A 
ATOM     19  N   UNL d   1     -46.240  13.210  21.498  0.00  0.00    -0.225 NA
ATOM     20  C   UNL d   1     -45.497  12.917  21.315  0.00  0.00     0.101 A 
ATOM     21  C   UNL d   1     -44.868  13.021  21.831  0.00  0.00     0.021 A 
ATOM     22  C   UNL d   1     -44.969  13.420  22.542  0.00  0.00     0.005 A 
ATOM     23  C   UNL d   1     -45.718  13.714  22.725  0.00  0.00     0.039 A 
ENDBRANCH  17  18
ENDBRANCH  16  17
ENDBRANCH   2  16
BRANCH   4  24
ATOM     24  C   UNL d   1     -48.476  11.801  23.025  0.00  0.00     0.302 C 
ATOM     25  O   UNL d   1     -48.370  11.547  22.254  0.00  0.00    -0.259 OA
BRANCH  24  26
ATOM     26  O   UNL d   1     -47.979  11.518  23.624  0.00  0.00    -0.271 OA
BRANCH  26  27
ATOM     27  C   UNL d   1     -47.725  10.742  23.597  0.00  0.00     0.126 C 
ATOM     28  C   UNL d   1     -46.906  10.590  23.697  0.00  0.00     0.029 C 
ENDBRANCH  26  27
ENDBRANCH  24  26
ENDBRANCH   4  24
TORSDOF 6
ENDMDL
MODEL 2
REMARK VINA RESULT:      -5.8      1.103      3.751
REMARK  6 active torsions:
REMARK  status: ('A' for Active; 'I' for Inactive)
REMARK    1  A    between atoms: C_10  and  C_2 
REMARK    2  A    between atoms: C_11  and  C_4 
REMARK    3  A    between atoms: N_12  and  C_10 
REMARK    4  A    between atoms: O_17  and  C_11 
REMARK    5  A    between atoms: C_14  and  N_12 
REMARK    6  A    between atoms: C_23  and  O_17 
ROOT
ATOM      1  C   UNL d   1     -47.652  12.917  22.724  0.00  0.00     0.035 A 
ATOM      2  C   UNL d   1     -47.757  13.747  22.693  0.00  0.00     0.060 A 
ATOM      3  C   UNL d   1     -46.905  12.582  22.621  0.00  0.00     0.100 A 
ATOM      4  C   UNL d   1     -48.190  12.287  22.851  0.00  0.00     0.088 A 
ATOM      5  O   UNL d   1     -46.965  11.769  22.679  0.00  0.00    -0.307 OA
ATOM      6  C   UNL d   1     -47.755  11.583  22.820  0.00  0.00     0.105 A 
ATOM      7  C   UNL d   1     -47.112  14.226  22.558  0.00  0.00     0.197 A 
ATOM      8  C   UNL d   1     -46.260  13.083  22.485  0.00  0.00     0.026 A 
ATOM      9  C   UNL d   1     -46.365  13.914  22.453  0.00  0.00     0.041 A 
ATOM     10  O   UNL d   1     -47.218  15.061  22.526  0.00  0.00    -0.286 OA
ATOM     11  C   UNL d   1     -48.076  10.812  22.919  0.00  0.00     0.027 C 
ATOM     12  C   UNL d   1     -45.517  12.748  22.381  0.00  0.00     0.002 A 
ATOM     13  C   UNL d   1     -45.724  14.392  22.319  0.00  0.00     0.003 A 
ATOM     14  C   UNL d   1     -44.874  13.248  22.246  0.00  0.00     0.000 A 
ATOM     15  C   UNL d   1     -44.979  14.079  22.214  0.00  0.00     0.000 A 
ENDROOT
BRANCH   2  16
ATOM     16  C   UNL d   1     -48.522  14.080  22.799  0.00  0.00     0.104 C 
BRANCH  16  17
ATOM     17  N   UNL d   1     -48.606  14.900  22.930  0.00  0.00    -0.225 NA
BRANCH  17  18
ATOM     18  C   UNL d   1     -49.358  15.243  22.952  0.00  0.00     0.163 A 
ATOM     19  N   UNL d   1     -49.754  15.389  22.246  0.00  0.00    -0.225 NA
ATOM     20  C   UNL d   1     -50.500  15.730  22.272  0.00  0.00     0.101 A 
ATOM     21  C   UNL d   1     -50.846  15.922  22.990  0.00  0.00     0.021 A 
ATOM     22  C   UNL d   1     -50.454  15.778  23.698  0.00  0.00     0.005 A 
ATOM     23  C   UNL d   1     -49.705  15.435  23.670  0.00  0.00     0.039 A 
ENDBRANCH  17  18
ENDBRANCH  16  17
ENDBRANCH   2  16
BRANCH   4  24
ATOM     24  C   UNL d   1     -49.013  12.350  22.983  0.00  0.00     0.302 C 
ATOM     25  O   UNL d   1     -49.314  12.609  23.698  0.00  0.00    -0.259 OA
BRANCH  24  26
ATOM     26  O   UNL d   1     -49.529  12.142  22.370  0.00  0.00    -0.271 OA
BRANCH  26  27
ATOM     27  C   UNL d   1     -50.296  11.924  22.550  0.00  0.00     0.126 C 
ATOM     28  C   UNL d   1     -50.916  12.226  22.073  0.00  0.00     0.029 C 
ENDBRANCH  26  27
ENDBRANCH  24  26
ENDBRANCH   4  24
TORSDOF 6
ENDMDL
MODEL 3
REMARK VINA RESULT:      -5.6      1.696      3.398
REMARK  6 active torsions:
REMARK  status: ('A' for Active; 'I' for Inactive)
REMARK    1  A    between atoms: C_10  and  C_2 
REMARK    2  A    between atoms: C_11  and  C_4 
REMARK    3  A    between atoms: N_12  and  C_10 
REMARK    4  A    between atoms: O_17  and  C_11 
REMARK    5  A    between atoms: C_14  and  N_12 
REMARK    6  A    between atoms: C_23  and  O_17 
ROOT
ATOM      1  C   UNL d   1     -47.276  12.847  22.995  0.00  0.00     0.035 A 
ATOM      2  C   UNL d   1     -47.143  12.047  23.209  0.00  0.00     0.060 A 
ATOM      3  C   UNL d   1     -48.042  13.141  22.921  0.00  0.00     0.100 A 
ATOM      4  C   UNL d   1     -46.750  13.477  22.824  0.00  0.00     0.088 A 
ATOM      5  O   UNL d   1     -48.008  13.930  22.709  0.00  0.00    -0.307 OA
ATOM      6  C   UNL d   1     -47.213  14.141  22.648  0.00  0.00     0.105 A 
ATOM      7  C   UNL d   1     -47.781  11.559  23.343  0.00  0.00     0.197 A 
ATOM      8  C   UNL d   1     -48.680  12.632  23.061  0.00  0.00     0.026 A 
ATOM      9  C   UNL d   1     -48.548  11.832  23.274  0.00  0.00     0.041 A 
ATOM     10  O   UNL d   1     -47.648  10.756  23.557  0.00  0.00    -0.286 OA
ATOM     11  C   UNL d   1     -46.913  14.899  22.444  0.00  0.00     0.027 C 
ATOM     12  C   UNL d   1     -49.443  12.927  22.986  0.00  0.00     0.002 A 
ATOM     13  C   UNL d   1     -49.182  11.345  23.408  0.00  0.00     0.003 A 
ATOM     14  C   UNL d   1     -50.078  12.418  23.126  0.00  0.00     0.000 A 
ATOM     15  C   UNL d   1     -49.946  11.618  23.339  0.00  0.00     0.000 A 
ENDROOT
BRANCH   2  16
ATOM     16  C   UNL d   1     -46.358  11.755  23.283  0.00  0.00     0.104 C 
BRANCH  16  17
ATOM     17  N   UNL d   1     -46.213  11.046  23.698  0.00  0.00    -0.225 NA
BRANCH  17  18
ATOM     18  C   UNL d   1     -45.470  10.684  23.659  0.00  0.00     0.163 A 
ATOM     19  N   UNL d   1     -44.794  11.151  23.696  0.00  0.00    -0.225 NA
ATOM     20  C   UNL d   1     -44.059  10.789  23.657  0.00  0.00     0.101 A 
ATOM     21  C   UNL d   1     -43.999   9.974  23.584  0.00  0.00     0.021 A 
ATOM     22  C   UNL d   1     -44.672   9.504  23.547  0.00  0.00     0.005 A 
ATOM     23  C   UNL d   1     -45.410   9.870  23.586  0.00  0.00     0.039 A 
ENDBRANCH  17  18
ENDBRANCH  16  17
ENDBRANCH   2  16
BRANCH   4  24
ATOM     24  C   UNL d   1     -45.915  13.448  22.827  0.00  0.00     0.302 C 
ATOM     25  O   UNL d   1     -45.485  13.529  23.518  0.00  0.00    -0.259 OA
BRANCH  24  26
ATOM     26  O   UNL d   1     -45.521  13.335  22.108  0.00  0.00    -0.271 OA
BRANCH  26  27
ATOM     27  C   UNL d   1     -44.745  13.582  22.035  0.00  0.00     0.126 C 
ATOM     28  C   UNL d   1     -44.294  13.285  21.393  0.00  0.00     0.029 C 
ENDBRANCH  26  27
ENDBRANCH  24  26
ENDBRANCH   4  24
TORSDOF 6
ENDMDL
MODEL 4
REMARK VINA RESULT:      -4.9      8.278      9.997
REMARK  6 active torsions:
REMARK  status: ('A' for Active; 'I' for Inactive)
REMARK    1  A    between atoms: C_10  and  C_2 
REMARK    2  A    between atoms: C_11  and  C_4 
REMARK    3  A    between atoms: N_12  and  C_10 
REMARK    4  A    between atoms: O_17  and  C_11 
REMARK    5  A    between atoms: C_14  and  N_12 
REMARK    6  A    between atoms: C_23  and  O_17 
ROOT
ATOM      1  C   UNL d   1     -39.677  14.614  20.410  0.00  0.00     0.035 A 
ATOM      2  C   UNL d   1     -39.030  14.192  20.083  0.00  0.00     0.060 A 
ATOM      3  C   UNL d   1     -39.869  14.538  21.208  0.00  0.00     0.100 A 
ATOM      4  C   UNL d   1     -40.227  15.149  20.072  0.00  0.00     0.088 A 
ATOM      5  O   UNL d   1     -40.517  15.007  21.374  0.00  0.00    -0.307 OA
ATOM      6  C   UNL d   1     -40.741  15.385  20.677  0.00  0.00     0.105 A 
ATOM      7  C   UNL d   1     -38.590  13.704  20.562  0.00  0.00     0.197 A 
ATOM      8  C   UNL d   1     -39.411  14.036  21.682  0.00  0.00     0.026 A 
ATOM      9  C   UNL d   1     -38.764  13.615  21.355  0.00  0.00     0.041 A 
ATOM     10  O   UNL d   1     -37.940  13.280  20.234  0.00  0.00    -0.286 OA
ATOM     11  C   UNL d   1     -41.381  15.922  20.584  0.00  0.00     0.027 C 
ATOM     12  C   UNL d   1     -39.603  13.961  22.477  0.00  0.00     0.002 A 
ATOM     13  C   UNL d   1     -38.324  13.128  21.831  0.00  0.00     0.003 A 
ATOM     14  C   UNL d   1     -39.146  13.462  22.948  0.00  0.00     0.000 A 
ATOM     15  C   UNL d   1     -38.499  13.040  22.622  0.00  0.00     0.000 A 
ENDROOT
BRANCH   2  16
ATOM     16  C   UNL d   1     -38.842  14.276  19.268  0.00  0.00     0.104 C 
BRANCH  16  17
ATOM     17  N   UNL d   1     -38.554  13.622  18.836  0.00  0.00    -0.225 NA
BRANCH  17  18
ATOM     18  C   UNL d   1     -38.438  13.679  18.019  0.00  0.00     0.163 A 
ATOM     19  N   UNL d   1     -38.057  14.340  17.713  0.00  0.00    -0.225 NA
ATOM     20  C   UNL d   1     -37.944  14.394  16.903  0.00  0.00     0.101 A 
ATOM     21  C   UNL d   1     -38.207  13.798  16.405  0.00  0.00     0.021 A 
ATOM     22  C   UNL d   1     -38.589  13.136  16.706  0.00  0.00     0.005 A 
ATOM     23  C   UNL d   1     -38.702  13.084  17.521  0.00  0.00     0.039 A 
ENDBRANCH  17  18
ENDBRANCH  16  17
ENDBRANCH   2  16
BRANCH   4  24
ATOM     24  C   UNL d   1     -40.257  15.401  19.276  0.00  0.00     0.302 C 
ATOM     25  O   UNL d   1     -39.705  15.922  18.970  0.00  0.00    -0.259 OA
BRANCH  24  26
ATOM     26  O   UNL d   1     -40.863  15.112  18.793  0.00  0.00    -0.271 OA
BRANCH  26  27
ATOM     27  C   UNL d   1     -41.232  15.620  18.269  0.00  0.00     0.126 C 
ATOM     28  C   UNL d   1     -41.596  15.291  17.589  0.00  0.00     0.029 C 
ENDBRANCH  26  27
ENDBRANCH  24  26
ENDBRANCH   4  24
TORSDOF 6
ENDMDL
