MODEL 1
REMARK VINA RESULT:      14.5      0.000      0.000
REMARK  2 active torsions:
REMARK  status: ('A' for Active; 'I' for Inactive)
REMARK    1  A    between atoms: C_6  and  C_1 
REMARK       I    between atoms: C_7  and  N_8 
REMARK    2  A    between atoms: N_8  and  C_10 
ROOT
ATOM      1  C   UNL d   1      46.124 -17.368  44.306  0.00  0.00     0.025 A 
ATOM      2  C   UNL d   1      46.261 -17.660  43.553  0.00  0.00     0.021 A 
ATOM      3  C   UNL d   1      46.453 -18.471  43.448  0.00  0.00     0.085 A 
ATOM      4  C   UNL d   1      46.179 -17.887  44.955  0.00  0.00     0.002 A 
ATOM      5  C   UNL d   1      46.361 -18.654  44.852  0.00  0.00     0.002 A 
ATOM      6  C   UNL d   1      46.505 -18.979  44.099  0.00  0.00     0.019 A 
ENDROOT
BRANCH   1   7
ATOM      7  C   UNL d   1      45.943 -16.600  44.402  0.00  0.00     0.111 A 
ATOM      8  N   UNL d   1      46.398 -15.942  44.253  0.00  0.00    -0.239 NA
ATOM      9  C   UNL d   1      45.938 -15.272  44.451  0.00  0.00     0.088 A 
ATOM     10  C   UNL d   1      46.110 -14.458  44.415  0.00  0.00     0.020 A 
ATOM     11  C   UNL d   1      45.207 -15.546  44.718  0.00  0.00     0.049 A 
ATOM     12  C   UNL d   1      45.545 -13.921  44.648  0.00  0.00     0.002 A 
ATOM     13  C   UNL d   1      44.780 -14.208  44.927  0.00  0.00     0.001 A 
ATOM     14  C   UNL d   1      44.637 -15.011  44.953  0.00  0.00     0.008 A 
ATOM     15  S   UNL d   1      45.227 -16.382  44.681  0.00  0.00    -0.066 SA
ENDBRANCH   1   7
BRANCH   3  16
ATOM     16  N   UNL d   1      46.592 -18.757  42.663  0.00  0.00    -0.208 NA
ATOM     17  C   UNL d   1      46.368 -19.534  42.485  0.00  0.00     0.279 C 
ATOM     18  O   UNL d   1      46.505 -19.794  41.734  0.00  0.00    -0.265 OA
ATOM     19  C   UNL d   1      46.021 -20.021  43.044  0.00  0.00     0.068 C 
ENDBRANCH   3  16
TORSDOF 2
ENDMDL
MODEL 2
REMARK VINA RESULT:      15.7      1.904      4.325
REMARK  2 active torsions:
REMARK  status: ('A' for Active; 'I' for Inactive)
REMARK    1  A    between atoms: C_6  and  C_1 
REMARK       I    between atoms: C_7  and  N_8 
REMARK    2  A    between atoms: N_8  and  C_10 
ROOT
ATOM      1  C   UNL d   1      45.494 -16.060  44.482  0.00  0.00     0.025 A 
ATOM      2  C   UNL d   1      46.000 -15.417  44.438  0.00  0.00     0.021 A 
ATOM      3  C   UNL d   1      45.725 -14.654  44.659  0.00  0.00     0.085 A 
ATOM      4  C   UNL d   1      44.714 -15.941  44.746  0.00  0.00     0.002 A 
ATOM      5  C   UNL d   1      44.457 -15.218  44.954  0.00  0.00     0.002 A 
ATOM      6  C   UNL d   1      44.948 -14.546  44.920  0.00  0.00     0.019 A 
ENDROOT
BRANCH   1   7
ATOM      7  C   UNL d   1      45.757 -16.781  44.272  0.00  0.00     0.111 A 
ATOM      8  N   UNL d   1      45.910 -17.076  43.529  0.00  0.00    -0.239 NA
ATOM      9  C   UNL d   1      46.175 -17.864  43.625  0.00  0.00     0.088 A 
ATOM     10  C   UNL d   1      46.411 -18.435  43.067  0.00  0.00     0.020 A 
ATOM     11  C   UNL d   1      46.175 -18.026  44.434  0.00  0.00     0.049 A 
ATOM     12  C   UNL d   1      46.646 -19.170  43.325  0.00  0.00     0.002 A 
ATOM     13  C   UNL d   1      46.647 -19.339  44.171  0.00  0.00     0.001 A 
ATOM     14  C   UNL d   1      46.411 -18.762  44.698  0.00  0.00     0.008 A 
ATOM     15  S   UNL d   1      45.910 -17.336  44.826  0.00  0.00    -0.066 SA
ENDBRANCH   1   7
BRANCH   3  16
ATOM     16  N   UNL d   1      46.260 -14.000  44.608  0.00  0.00    -0.208 NA
ATOM     17  C   UNL d   1      45.993 -13.304  44.248  0.00  0.00     0.279 C 
ATOM     18  O   UNL d   1      46.512 -12.688  44.206  0.00  0.00    -0.265 OA
ATOM     19  C   UNL d   1      45.235 -13.238  43.946  0.00  0.00     0.068 C 
ENDBRANCH   3  16
TORSDOF 2
ENDMDL
