MODEL 1
REMARK VINA RESULT:      -1.9      0.000      0.000
REMARK  12 active torsions:
REMARK  status: ('A' for Active; 'I' for Inactive)
REMARK    1  A    between atoms: C_18  and  N_1 
REMARK    2  A    between atoms: C_9  and  N_3 
REMARK    3  A    between atoms: C_12  and  C_9 
REMARK       I    between atoms: N_19  and  C_12 
REMARK    4  A    between atoms: C_14  and  C_22 
REMARK       I    between atoms: N_15  and  C_14 
REMARK    5  A    between atoms: C_20  and  N_15 
REMARK    6  A    between atoms: C_27  and  C_18 
REMARK    7  A    between atoms: C_23  and  N_19 
REMARK    8  A    between atoms: O_21  and  C_24 
REMARK    9  A    between atoms: C_22  and  C_29 
REMARK   10  A    between atoms: C_24  and  C_23 
REMARK   11  A    between atoms: C_30  and  C_27 
REMARK   12  A    between atoms: C_29  and  C_30 
ROOT
ATOM      1  N   UNL d   1      32.331  17.824 -23.995  0.00  0.00    -0.225 N 
ATOM      2  C   UNL d   1      31.632  17.729 -24.421  0.00  0.00     0.342 A 
ATOM      3  N   UNL d   1      31.139  17.070 -24.290  0.00  0.00    -0.253 N 
ATOM      4  C   UNL d   1      32.069  16.609 -23.297  0.00  0.00     0.102 A 
ATOM      5  C   UNL d   1      32.543  17.262 -23.436  0.00  0.00     0.276 A 
ATOM      6  C   UNL d   1      31.356  16.504 -23.724  0.00  0.00     0.080 A 
ATOM      7  S   UNL d   1      32.148  15.958 -22.767  0.00  0.00    -0.080 SA
ATOM      8  C   UNL d   1      30.990  15.792 -23.465  0.00  0.00     0.025 A 
ATOM      9  O   UNL d   1      31.405  18.285 -24.986  0.00  0.00    -0.245 OA
ATOM     10  C   UNL d   1      31.480  15.455 -22.873  0.00  0.00     0.037 A 
ATOM     11  O   UNL d   1      33.240  17.364 -23.017  0.00  0.00    -0.266 OA
ENDROOT
BRANCH   1  12
ATOM     12  C   UNL d   1      32.800  18.473 -24.135  0.00  0.00     0.087 C 
BRANCH  12  13
ATOM     13  C   UNL d   1      33.077  18.925 -23.498  0.00  0.00     0.019 C 
BRANCH  13  14
ATOM     14  C   UNL d   1      32.876  19.721 -23.444  0.00  0.00     0.002 C 
BRANCH  14  15
ATOM     15  C   UNL d   1      33.224  20.197 -22.872  0.00  0.00     0.005 C 
BRANCH  15  16
ATOM     16  C   UNL d   1      32.849  20.325 -22.153  0.00  0.00     0.062 C 
BRANCH  16  17
ATOM     17  C   UNL d   1      32.850  21.078 -21.811  0.00  0.00     0.279 C 
ATOM     18  N   UNL d   1      32.621  21.172 -21.020  0.00  0.00    -0.208 NA
ATOM     19  O   UNL d   1      33.080  21.730 -22.260  0.00  0.00    -0.265 OA
BRANCH  18  20
ATOM     20  C   UNL d   1      32.623  21.919 -20.684  0.00  0.00     0.085 A 
ATOM     21  C   UNL d   1      33.114  22.071 -20.044  0.00  0.00     0.019 A 
ATOM     22  C   UNL d   1      33.119  22.824 -19.702  0.00  0.00     0.002 A 
ATOM     23  C   UNL d   1      32.628  23.418 -20.008  0.00  0.00     0.000 A 
ATOM     24  C   UNL d   1      32.139  23.257 -20.648  0.00  0.00     0.002 A 
ATOM     25  C   UNL d   1      32.134  22.510 -20.989  0.00  0.00     0.019 A 
ENDBRANCH  18  20
ENDBRANCH  16  17
ENDBRANCH  15  16
ENDBRANCH  14  15
ENDBRANCH  13  14
ENDBRANCH  12  13
ENDBRANCH   1  12
BRANCH   3  26
ATOM     26  C   UNL d   1      30.442  16.987 -24.723  0.00  0.00     0.147 C 
BRANCH  26  27
ATOM     27  C   UNL d   1      29.731  17.296 -24.426  0.00  0.00     0.297 C 
ATOM     28  O   UNL d   1      29.729  17.955 -23.942  0.00  0.00    -0.264 OA
ATOM     29  N   UNL d   1      29.005  16.928 -24.623  0.00  0.00    -0.203 NA
BRANCH  29  30
ATOM     30  C   UNL d   1      28.285  17.235 -24.327  0.00  0.00     0.129 C 
BRANCH  30  31
ATOM     31  C   UNL d   1      27.795  16.763 -23.861  0.00  0.00     0.137 C 
BRANCH  31  32
ATOM     32  O   UNL d   1      27.540  16.032 -24.135  0.00  0.00    -0.325 OA
ATOM     33  C   UNL d   1      27.272  15.465 -23.599  0.00  0.00     0.182 C 
ENDBRANCH  31  32
ENDBRANCH  30  31
ENDBRANCH  29  30
ENDBRANCH  26  27
ENDBRANCH   3  26
TORSDOF 12
ENDMDL
