MODEL 1
REMARK VINA RESULT:      -6.6      0.000      0.000
REMARK  5 active torsions:
REMARK  status: ('A' for Active; 'I' for Inactive)
REMARK    1  A    between atoms: C_5  and  N_1 
REMARK    2  A    between atoms: C_7  and  C_3 
REMARK    3  A    between atoms: C_8  and  C_4 
REMARK    4  A    between atoms: N_10  and  C_5 
REMARK    5  A    between atoms: O_21  and  C_15 
ROOT
ATOM      1  N   UNL d   1     -48.198  12.768  22.694  0.00  0.00    -0.203 N 
ATOM      2  N   UNL d   1     -47.447  12.435  22.588  0.00  0.00    -0.163 NA
ATOM      3  C   UNL d   1     -46.901  13.017  22.475  0.00  0.00     0.103 A 
ATOM      4  C   UNL d   1     -48.123  13.598  22.645  0.00  0.00     0.087 A 
ATOM      5  C   UNL d   1     -47.323  13.759  22.509  0.00  0.00     0.040 A 
ENDROOT
BRANCH   4   6
ATOM      6  C   UNL d   1     -48.711  14.175  22.714  0.00  0.00     0.018 A 
ATOM      7  C   UNL d   1     -49.181  14.378  22.072  0.00  0.00     0.004 A 
ATOM      8  C   UNL d   1     -49.766  14.953  22.142  0.00  0.00     0.024 A 
ATOM      9  C   UNL d   1     -49.880  15.329  22.864  0.00  0.00     0.094 A 
ATOM     10  C   UNL d   1     -49.427  15.140  23.499  0.00  0.00     0.024 A 
ATOM     11  C   UNL d   1     -48.840  14.562  23.431  0.00  0.00     0.004 A 
BRANCH   9  12
ATOM     12  O   UNL d   1     -50.482  15.912  22.913  0.00  0.00    -0.328 OA
ATOM     13  C   UNL d   1     -51.061  15.883  23.527  0.00  0.00     0.181 C 
ENDBRANCH   9  12
ENDBRANCH   4   6
BRANCH   1  14
ATOM     14  C   UNL d   1     -48.917  12.349  22.828  0.00  0.00     0.222 C 
ATOM     15  S   UNL d   1     -49.428  12.191  22.172  0.00  0.00    -0.037 SA
BRANCH  14  16
ATOM     16  N   UNL d   1     -49.138  12.086  23.601  0.00  0.00    -0.214 NA
ATOM     17  C   UNL d   1     -49.665  11.448  23.689  0.00  0.00     0.122 C 
ENDBRANCH  14  16
ENDBRANCH   1  14
BRANCH   3  18
ATOM     18  C   UNL d   1     -46.086  12.893  22.349  0.00  0.00     0.019 A 
ATOM     19  C   UNL d   1     -45.669  13.346  21.803  0.00  0.00     0.002 A 
ATOM     20  C   UNL d   1     -44.853  13.207  21.691  0.00  0.00     0.000 A 
ATOM     21  C   UNL d   1     -44.474  12.625  22.121  0.00  0.00     0.000 A 
ATOM     22  C   UNL d   1     -44.907  12.180  22.665  0.00  0.00     0.000 A 
ATOM     23  C   UNL d   1     -43.451  12.569  21.870  0.00  0.00     0.000 C 
ATOM     24  C   UNL d   1     -45.699  12.310  22.778  0.00  0.00     0.002 A 
ENDBRANCH   3  18
TORSDOF 5
ENDMDL
MODEL 2
REMARK VINA RESULT:      -5.7      8.910      9.617
REMARK  5 active torsions:
REMARK  status: ('A' for Active; 'I' for Inactive)
REMARK    1  A    between atoms: C_5  and  N_1 
REMARK    2  A    between atoms: C_7  and  C_3 
REMARK    3  A    between atoms: C_8  and  C_4 
REMARK    4  A    between atoms: N_10  and  C_5 
REMARK    5  A    between atoms: O_21  and  C_15 
ROOT
ATOM      1  N   UNL d   1     -38.830  13.885  18.876  0.00  0.00    -0.203 N 
ATOM      2  N   UNL d   1     -38.594  13.685  19.644  0.00  0.00    -0.163 NA
ATOM      3  C   UNL d   1     -39.033  14.094  20.182  0.00  0.00     0.103 A 
ATOM      4  C   UNL d   1     -39.446  14.445  18.931  0.00  0.00     0.087 A 
ATOM      5  C   UNL d   1     -39.577  14.579  19.737  0.00  0.00     0.040 A 
ENDROOT
BRANCH   4   6
ATOM      6  C   UNL d   1     -39.865  14.815  18.321  0.00  0.00     0.018 A 
ATOM      7  C   UNL d   1     -40.573  14.504  18.047  0.00  0.00     0.004 A 
ATOM      8  C   UNL d   1     -40.990  14.873  17.440  0.00  0.00     0.024 A 
ATOM      9  C   UNL d   1     -40.693  15.561  17.106  0.00  0.00     0.094 A 
ATOM     10  C   UNL d   1     -40.001  15.877  17.365  0.00  0.00     0.024 A 
ATOM     11  C   UNL d   1     -39.582  15.507  17.974  0.00  0.00     0.004 A 
BRANCH   9  12
ATOM     12  O   UNL d   1     -41.133  15.922  16.488  0.00  0.00    -0.328 OA
ATOM     13  C   UNL d   1     -41.977  15.911  16.497  0.00  0.00     0.181 C 
ENDBRANCH   9  12
ENDBRANCH   4   6
BRANCH   1  14
ATOM     14  C   UNL d   1     -38.509  13.580  18.158  0.00  0.00     0.222 C 
ATOM     15  S   UNL d   1     -37.940  14.042  17.735  0.00  0.00    -0.037 SA
BRANCH  14  16
ATOM     16  N   UNL d   1     -38.744  12.827  17.853  0.00  0.00    -0.214 NA
ATOM     17  C   UNL d   1     -38.243  12.414  17.332  0.00  0.00     0.122 C 
ENDBRANCH  14  16
ENDBRANCH   1  14
BRANCH   3  18
ATOM     18  C   UNL d   1     -38.953  14.036  21.010  0.00  0.00     0.019 A 
ATOM     19  C   UNL d   1     -38.210  13.959  21.357  0.00  0.00     0.002 A 
ATOM     20  C   UNL d   1     -38.149  13.903  22.189  0.00  0.00     0.000 A 
ATOM     21  C   UNL d   1     -38.822  13.924  22.651  0.00  0.00     0.000 A 
ATOM     22  C   UNL d   1     -39.558  14.002  22.286  0.00  0.00     0.000 A 
ATOM     23  C   UNL d   1     -38.585  13.842  23.675  0.00  0.00     0.000 C 
ATOM     24  C   UNL d   1     -39.624  14.057  21.480  0.00  0.00     0.002 A 
ENDBRANCH   3  18
TORSDOF 5
ENDMDL
MODEL 3
REMARK VINA RESULT:      -5.1      8.881     10.292
REMARK  5 active torsions:
REMARK  status: ('A' for Active; 'I' for Inactive)
REMARK    1  A    between atoms: C_5  and  N_1 
REMARK    2  A    between atoms: C_7  and  C_3 
REMARK    3  A    between atoms: C_8  and  C_4 
REMARK    4  A    between atoms: N_10  and  C_5 
REMARK    5  A    between atoms: O_21  and  C_15 
ROOT
ATOM      1  N   UNL d   1     -39.592  14.681  18.882  0.00  0.00    -0.203 N 
ATOM      2  N   UNL d   1     -39.631  14.648  19.708  0.00  0.00    -0.163 NA
ATOM      3  C   UNL d   1     -39.083  14.128  19.989  0.00  0.00     0.103 A 
ATOM      4  C   UNL d   1     -38.992  14.159  18.629  0.00  0.00     0.087 A 
ATOM      5  C   UNL d   1     -38.672  13.813  19.310  0.00  0.00     0.040 A 
ENDROOT
BRANCH   4   6
ATOM      6  C   UNL d   1     -38.740  13.994  17.859  0.00  0.00     0.018 A 
ATOM      7  C   UNL d   1     -38.190  14.473  17.483  0.00  0.00     0.004 A 
ATOM      8  C   UNL d   1     -37.940  14.308  16.717  0.00  0.00     0.024 A 
ATOM      9  C   UNL d   1     -38.246  13.655  16.323  0.00  0.00     0.094 A 
ATOM     10  C   UNL d   1     -38.785  13.179  16.678  0.00  0.00     0.024 A 
ATOM     11  C   UNL d   1     -39.037  13.343  17.448  0.00  0.00     0.004 A 
BRANCH   9  12
ATOM     12  O   UNL d   1     -37.977  13.505  15.541  0.00  0.00    -0.328 OA
ATOM     13  C   UNL d   1     -38.173  14.029  14.909  0.00  0.00     0.181 C 
ENDBRANCH   9  12
ENDBRANCH   4   6
BRANCH   1  14
ATOM     14  C   UNL d   1     -40.071  15.157  18.376  0.00  0.00     0.222 C 
ATOM     15  S   UNL d   1     -39.791  15.922  18.147  0.00  0.00    -0.037 SA
BRANCH  14  16
ATOM     16  N   UNL d   1     -40.822  14.886  18.095  0.00  0.00    -0.214 NA
ATOM     17  C   UNL d   1     -41.362  15.426  17.766  0.00  0.00     0.122 C 
ENDBRANCH  14  16
ENDBRANCH   1  14
BRANCH   3  18
ATOM     18  C   UNL d   1     -38.959  13.950  20.794  0.00  0.00     0.019 A 
ATOM     19  C   UNL d   1     -38.275  13.563  21.040  0.00  0.00     0.002 A 
ATOM     20  C   UNL d   1     -38.169  13.393  21.852  0.00  0.00     0.000 A 
ATOM     21  C   UNL d   1     -38.740  13.609  22.394  0.00  0.00     0.000 A 
ATOM     22  C   UNL d   1     -39.419  13.996  22.129  0.00  0.00     0.000 A 
ATOM     23  C   UNL d   1     -38.465  13.328  23.372  0.00  0.00     0.000 C 
ATOM     24  C   UNL d   1     -39.529  14.164  21.344  0.00  0.00     0.002 A 
ENDBRANCH   3  18
TORSDOF 5
ENDMDL
MODEL 4
REMARK VINA RESULT:      -3.7      6.917      9.480
REMARK  5 active torsions:
REMARK  status: ('A' for Active; 'I' for Inactive)
REMARK    1  A    between atoms: C_5  and  N_1 
REMARK    2  A    between atoms: C_7  and  C_3 
REMARK    3  A    between atoms: C_8  and  C_4 
REMARK    4  A    between atoms: N_10  and  C_5 
REMARK    5  A    between atoms: O_21  and  C_15 
ROOT
ATOM      1  N   UNL d   1     -38.923  15.017  19.790  0.00  0.00    -0.203 N 
ATOM      2  N   UNL d   1     -38.483  15.167  19.105  0.00  0.00    -0.163 NA
ATOM      3  C   UNL d   1     -38.949  15.076  18.453  0.00  0.00     0.103 A 
ATOM      4  C   UNL d   1     -39.701  14.822  19.561  0.00  0.00     0.087 A 
ATOM      5  C   UNL d   1     -39.724  14.856  18.734  0.00  0.00     0.040 A 
ENDROOT
BRANCH   4   6
ATOM      6  C   UNL d   1     -40.348  14.627  20.038  0.00  0.00     0.018 A 
ATOM      7  C   UNL d   1     -40.512  13.845  20.228  0.00  0.00     0.004 A 
ATOM      8  C   UNL d   1     -41.156  13.653  20.704  0.00  0.00     0.024 A 
ATOM      9  C   UNL d   1     -41.640  14.251  20.992  0.00  0.00     0.094 A 
ATOM     10  C   UNL d   1     -41.491  15.019  20.813  0.00  0.00     0.024 A 
ATOM     11  C   UNL d   1     -40.844  15.214  20.336  0.00  0.00     0.004 A 
BRANCH   9  12
ATOM     12  O   UNL d   1     -42.291  14.033  21.475  0.00  0.00    -0.328 OA
ATOM     13  C   UNL d   1     -42.694  13.301  21.352  0.00  0.00     0.181 C 
ENDBRANCH   9  12
ENDBRANCH   4   6
BRANCH   1  14
ATOM     14  C   UNL d   1     -38.642  15.053  20.584  0.00  0.00     0.222 C 
ATOM     15  S   UNL d   1     -38.311  14.357  20.933  0.00  0.00    -0.037 SA
BRANCH  14  16
ATOM     16  N   UNL d   1     -38.684  15.767  21.036  0.00  0.00    -0.214 NA
ATOM     17  C   UNL d   1     -38.120  15.917  21.629  0.00  0.00     0.122 C 
ENDBRANCH  14  16
ENDBRANCH   1  14
BRANCH   3  18
ATOM     18  C   UNL d   1     -38.697  15.181  17.665  0.00  0.00     0.019 A 
ATOM     19  C   UNL d   1     -38.943  15.834  17.227  0.00  0.00     0.002 A 
ATOM     20  C   UNL d   1     -38.680  15.922  16.439  0.00  0.00     0.000 A 
ATOM     21  C   UNL d   1     -38.183  15.364  16.108  0.00  0.00     0.000 A 
ATOM     22  C   UNL d   1     -37.946  14.717  16.561  0.00  0.00     0.000 A 
ATOM     23  C   UNL d   1     -37.940  15.613  15.112  0.00  0.00     0.000 C 
ATOM     24  C   UNL d   1     -38.198  14.625  17.326  0.00  0.00     0.002 A 
ENDBRANCH   3  18
TORSDOF 5
ENDMDL
