MODEL 1
REMARK VINA RESULT:      -6.1      0.000      0.000
REMARK  3 active torsions:
REMARK  status: ('A' for Active; 'I' for Inactive)
REMARK    1  A    between atoms: N_5  and  S_1 
REMARK    2  A    between atoms: C_6  and  S_1 
REMARK    3  A    between atoms: C_2  and  C_9 
ROOT
ATOM      1  C   UNL d   1      58.694  -0.677  29.555  0.00  0.00     0.104 A 
ATOM      2  C   UNL d   1      57.755  -0.123  30.476  0.00  0.00     0.025 A 
ATOM      3  C   UNL d   1      58.214  -0.755  30.225  0.00  0.00     0.015 A 
ATOM      4  C   UNL d   1      58.710   0.041  29.139  0.00  0.00     0.013 A 
ATOM      5  C   UNL d   1      57.771   0.595  30.060  0.00  0.00     0.002 A 
ATOM      6  C   UNL d   1      58.252   0.676  29.388  0.00  0.00     0.001 A 
ENDROOT
BRANCH   2   7
ATOM      7  C   UNL d   1      57.275  -0.200  31.145  0.00  0.00     0.111 A 
ATOM      8  N   UNL d   1      56.968  -0.901  31.430  0.00  0.00    -0.239 NA
ATOM      9  C   UNL d   1      56.526  -0.725  32.101  0.00  0.00     0.088 A 
ATOM     10  C   UNL d   1      56.094  -1.194  32.614  0.00  0.00     0.020 A 
ATOM     11  C   UNL d   1      56.563   0.089  32.228  0.00  0.00     0.049 A 
ATOM     12  C   UNL d   1      55.701  -0.861  33.251  0.00  0.00     0.002 A 
ATOM     13  C   UNL d   1      55.739  -0.047  33.378  0.00  0.00     0.001 A 
ATOM     14  C   UNL d   1      56.175   0.427  32.859  0.00  0.00     0.008 A 
ATOM     15  S   UNL d   1      57.030   0.415  31.633  0.00  0.00    -0.066 SA
ENDBRANCH   2   7
BRANCH   1  16
ATOM     16  S   UNL d   1      59.155  -1.310  29.301  0.00  0.00     0.271 S 
ATOM     17  O   UNL d   1      58.536  -1.748  29.054  0.00  0.00    -0.200 OA
ATOM     18  O   UNL d   1      59.876  -0.763  29.606  0.00  0.00    -0.200 OA
BRANCH  16  19
ATOM     19  N   UNL d   1      59.498  -1.998  29.014  0.00  0.00    -0.229 N 
ATOM     20  C   UNL d   1      60.307  -2.128  28.877  0.00  0.00     0.092 A 
ATOM     21  C   UNL d   1      60.399  -2.897  28.588  0.00  0.00     0.021 A 
ATOM     22  C   UNL d   1      59.659  -3.248  28.543  0.00  0.00     0.021 A 
ATOM     23  C   UNL d   1      59.103  -2.695  28.805  0.00  0.00     0.092 A 
ENDBRANCH  16  19
ENDBRANCH   1  16
TORSDOF 3
ENDMDL
