MODEL 1
REMARK VINA RESULT:      68.2      0.000      0.000
REMARK  7 active torsions:
REMARK  status: ('A' for Active; 'I' for Inactive)
REMARK    1  A    between atoms: C_2  and  S_1 
REMARK    2  A    between atoms: N_8  and  S_1 
REMARK    3  A    between atoms: C_13  and  N_8 
REMARK    4  A    between atoms: N_9  and  C_14 
REMARK    5  A    between atoms: O_15  and  C_10 
REMARK    6  A    between atoms: C_14  and  C_13 
REMARK    7  A    between atoms: C_22  and  O_15 
ROOT
ATOM      1  C   UNL d   1      60.620  48.599  50.394  0.00  0.00     0.105 A 
ATOM      2  C   UNL d   1      60.562  48.966  51.121  0.00  0.00     0.014 A 
ATOM      3  C   UNL d   1      59.859  49.334  51.347  0.00  0.00     0.024 A 
ATOM      4  C   UNL d   1      59.970  48.596  49.880  0.00  0.00     0.015 A 
ATOM      5  C   UNL d   1      59.214  49.335  50.845  0.00  0.00     0.100 A 
ATOM      6  C   UNL d   1      59.267  48.964  50.105  0.00  0.00     0.025 A 
ATOM      7  C   UNL d   1      61.210  48.968  51.631  0.00  0.00     0.001 A 
ATOM      8  C   UNL d   1      59.804  49.704  52.082  0.00  0.00     0.002 A 
ATOM      9  C   UNL d   1      61.156  49.337  52.367  0.00  0.00     0.000 A 
ATOM     10  C   UNL d   1      60.453  49.705  52.592  0.00  0.00     0.000 A 
ENDROOT
BRANCH   1  11
ATOM     11  S   UNL d   1      61.323  48.231  50.169  0.00  0.00     0.285 S 
ATOM     12  O   UNL d   1      61.351  48.703  49.484  0.00  0.00    -0.198 OA
ATOM     13  O   UNL d   1      61.296  47.768  50.839  0.00  0.00    -0.198 OA
BRANCH  11  14
ATOM     14  N   UNL d   1      62.026  47.863  49.943  0.00  0.00    -0.155 NA
BRANCH  14  15
ATOM     15  C   UNL d   1      62.090  47.048  49.961  0.00  0.00     0.131 C 
BRANCH  15  16
ATOM     16  C   UNL d   1      62.344  46.635  49.294  0.00  0.00     0.102 C 
BRANCH  16  17
ATOM     17  N   UNL d   1      62.154  45.838  49.206  0.00  0.00    -0.298 N 
ATOM     18  C   UNL d   1      61.397  45.569  49.395  0.00  0.00     0.107 A 
ATOM     19  C   UNL d   1      61.205  44.768  49.308  0.00  0.00     0.142 A 
ATOM     20  O   UNL d   1      61.773  44.237  49.031  0.00  0.00    -0.300 OA
ATOM     21  C   UNL d   1      62.533  44.508  48.842  0.00  0.00     0.142 A 
ATOM     22  C   UNL d   1      62.722  45.307  48.929  0.00  0.00     0.107 A 
ENDBRANCH  16  17
ENDBRANCH  15  16
ENDBRANCH  14  15
ENDBRANCH  11  14
ENDBRANCH   1  11
BRANCH   5  23
ATOM     23  O   UNL d   1      58.509  49.701  51.064  0.00  0.00    -0.305 OA
BRANCH  23  24
ATOM     24  C   UNL d   1      57.849  49.668  50.573  0.00  0.00     0.123 C 
ATOM     25  C   UNL d   1      57.244  49.130  50.729  0.00  0.00     0.029 C 
ENDBRANCH  23  24
ENDBRANCH   5  23
TORSDOF 7
ENDMDL
