MODEL 1
REMARK VINA RESULT:      -4.6      0.000      0.000
REMARK  1 active torsions:
REMARK  status: ('A' for Active; 'I' for Inactive)
REMARK    1  A    between atoms: C_2  and  CA_3 
ROOT
ATOM      1  N   UNL d   1     -42.015-121.945 -53.512  0.00  0.00    -0.237 NA
ATOM      2  CA  UNL d   1     -41.509-122.576 -53.411  0.00  0.00     0.145 A 
ATOM      3  C   UNL d   1     -41.242-123.007 -54.072  0.00  0.00     0.026 A 
ATOM      4  C   UNL d   1     -42.262-121.732 -54.263  0.00  0.00     0.106 A 
ATOM      5  C   UNL d   1     -41.996-122.162 -54.925  0.00  0.00     0.054 A 
ATOM      6  C   UNL d   1     -41.489-122.794 -54.816  0.00  0.00     0.010 A 
ATOM      7 BR   UNL d   1     -42.248-121.943 -55.676  0.00  0.00    -0.048 Br
ENDROOT
BRANCH   2   8
ATOM      8  C   UNL d   1     -41.258-122.793 -52.655  0.00  0.00     0.229 C 
ATOM      9  O   UNL d   1     -41.139-122.222 -52.071  0.00  0.00    -0.643 OA
ATOM     10  OXT UNL d   1     -41.123-123.583 -52.472  0.00  0.00    -0.643 OA
ENDBRANCH   2   8
TORSDOF 1
ENDMDL
MODEL 2
REMARK VINA RESULT:      -4.3      2.028      2.552
REMARK  1 active torsions:
REMARK  status: ('A' for Active; 'I' for Inactive)
REMARK    1  A    between atoms: C_2  and  CA_3 
ROOT
ATOM      1  N   UNL d   1     -41.584-122.108 -52.934  0.00  0.00    -0.237 NA
ATOM      2  CA  UNL d   1     -41.470-122.780 -53.381  0.00  0.00     0.145 A 
ATOM      3  C   UNL d   1     -41.236-123.490 -53.013  0.00  0.00     0.026 A 
ATOM      4  C   UNL d   1     -41.469-122.128 -52.123  0.00  0.00     0.106 A 
ATOM      5  C   UNL d   1     -41.235-122.838 -51.755  0.00  0.00     0.054 A 
ATOM      6  C   UNL d   1     -41.123-123.508 -52.209  0.00  0.00     0.010 A 
ATOM      7 BR   UNL d   1     -41.123-122.851 -50.941  0.00  0.00    -0.048 Br
ENDROOT
BRANCH   2   8
ATOM      8  C   UNL d   1     -41.584-122.762 -54.198  0.00  0.00     0.229 C 
ATOM      9  O   UNL d   1     -41.124-122.274 -54.677  0.00  0.00    -0.643 OA
ATOM     10  OXT UNL d   1     -42.161-123.232 -54.547  0.00  0.00    -0.643 OA
ENDBRANCH   2   8
TORSDOF 1
ENDMDL
MODEL 3
REMARK VINA RESULT:      -3.7      2.682      3.465
REMARK  1 active torsions:
REMARK  status: ('A' for Active; 'I' for Inactive)
REMARK    1  A    between atoms: C_2  and  CA_3 
ROOT
ATOM      1  N   UNL d   1     -42.086-122.159 -51.154  0.00  0.00    -0.237 NA
ATOM      2  CA  UNL d   1     -41.553-122.560 -51.624  0.00  0.00     0.145 A 
ATOM      3  C   UNL d   1     -41.123-123.201 -51.312  0.00  0.00     0.026 A 
ATOM      4  C   UNL d   1     -42.199-122.387 -50.375  0.00  0.00     0.106 A 
ATOM      5  C   UNL d   1     -41.769-123.029 -50.063  0.00  0.00     0.054 A 
ATOM      6  C   UNL d   1     -41.237-123.425 -50.540  0.00  0.00     0.010 A 
ATOM      7 BR   UNL d   1     -41.889-123.251 -49.281  0.00  0.00    -0.048 Br
ENDROOT
BRANCH   2   8
ATOM      8  C   UNL d   1     -41.436-122.333 -52.408  0.00  0.00     0.229 C 
ATOM      9  O   UNL d   1     -41.123-121.591 -52.590  0.00  0.00    -0.643 OA
ATOM     10  OXT UNL d   1     -41.631-122.843 -53.022  0.00  0.00    -0.643 OA
ENDBRANCH   2   8
TORSDOF 1
ENDMDL
MODEL 4
REMARK VINA RESULT:      -3.0     10.057     10.270
REMARK  1 active torsions:
REMARK  status: ('A' for Active; 'I' for Inactive)
REMARK    1  A    between atoms: C_2  and  CA_3 
ROOT
ATOM      1  N   UNL d   1     -43.124-114.440 -47.799  0.00  0.00    -0.237 NA
ATOM      2  CA  UNL d   1     -43.530-115.007 -47.378  0.00  0.00     0.145 A 
ATOM      3  C   UNL d   1     -43.132-115.471 -46.811  0.00  0.00     0.026 A 
ATOM      4  C   UNL d   1     -42.323-114.324 -47.666  0.00  0.00     0.106 A 
ATOM      5  C   UNL d   1     -41.925-114.787 -47.100  0.00  0.00     0.054 A 
ATOM      6  C   UNL d   1     -42.339-115.354 -46.681  0.00  0.00     0.010 A 
ATOM      7 BR   UNL d   1     -41.123-114.664 -46.972  0.00  0.00    -0.048 Br
ENDROOT
BRANCH   2   8
ATOM      8  C   UNL d   1     -44.336-115.127 -47.509  0.00  0.00     0.229 C 
ATOM      9  O   UNL d   1     -44.597-115.563 -48.159  0.00  0.00    -0.643 OA
ATOM     10  OXT UNL d   1     -44.893-114.811 -46.994  0.00  0.00    -0.643 OA
ENDBRANCH   2   8
TORSDOF 1
ENDMDL
MODEL 5
REMARK VINA RESULT:      -3.0      4.180      5.087
REMARK  1 active torsions:
REMARK  status: ('A' for Active; 'I' for Inactive)
REMARK    1  A    between atoms: C_2  and  CA_3 
ROOT
ATOM      1  N   UNL d   1     -41.504-123.269 -49.468  0.00  0.00    -0.237 NA
ATOM      2  CA  UNL d   1     -42.089-122.809 -49.802  0.00  0.00     0.145 A 
ATOM      3  C   UNL d   1     -42.803-122.680 -49.392  0.00  0.00     0.026 A 
ATOM      4  C   UNL d   1     -41.617-123.606 -48.729  0.00  0.00     0.106 A 
ATOM      5  C   UNL d   1     -42.331-123.477 -48.319  0.00  0.00     0.054 A 
ATOM      6  C   UNL d   1     -42.912-123.015 -48.660  0.00  0.00     0.010 A 
ATOM      7 BR   UNL d   1     -42.436-123.817 -47.578  0.00  0.00    -0.048 Br
ENDROOT
BRANCH   2   8
ATOM      8  C   UNL d   1     -41.978-122.469 -50.545  0.00  0.00     0.229 C 
ATOM      9  O   UNL d   1     -41.257-122.543 -50.939  0.00  0.00    -0.643 OA
ATOM     10  OXT UNL d   1     -42.587-122.051 -50.906  0.00  0.00    -0.643 OA
ENDBRANCH   2   8
TORSDOF 1
ENDMDL
