MODEL 1
REMARK VINA RESULT:      -2.3      0.000      0.000
REMARK  7 active torsions:
REMARK  status: ('A' for Active; 'I' for Inactive)
REMARK    1  A    between atoms: N_2  and  C_1 
REMARK       I    between atoms: C_6  and  N_2 
REMARK    2  A    between atoms: S_3  and  C_12 
REMARK    3  A    between atoms: C_28  and  N_4 
REMARK    4  A    between atoms: C_8  and  C_6 
REMARK    5  A    between atoms: C_15  and  C_11 
REMARK    6  A    between atoms: C_32  and  C_28 
REMARK    7  A    between atoms: O_31  and  C_32 
ROOT
ATOM      1  N   UNL d   1      32.939  20.732 -22.232  0.00  0.00    -0.184 NA
ATOM      2  C   UNL d   1      33.059  19.922 -22.146  0.00  0.00     0.281 C 
ATOM      3  O   UNL d   1      33.239  19.611 -21.405  0.00  0.00    -0.265 OA
ENDROOT
BRANCH   1   4
ATOM      4  C   UNL d   1      33.002  21.225 -21.573  0.00  0.00     0.182 A 
ATOM      5  N   UNL d   1      33.083  22.040 -21.593  0.00  0.00    -0.283 N 
ATOM      6  C   UNL d   1      33.127  22.318 -20.817  0.00  0.00     0.072 A 
ATOM      7  C   UNL d   1      33.209  23.075 -20.503  0.00  0.00     0.019 A 
ATOM      8  C   UNL d   1      33.072  21.666 -20.314  0.00  0.00     0.049 A 
ATOM      9  C   UNL d   1      33.237  23.179 -19.687  0.00  0.00     0.015 A 
ATOM     10  C   UNL d   1      33.182  22.527 -19.184  0.00  0.00     0.107 A 
ATOM     11  C   UNL d   1      33.100  21.771 -19.498  0.00  0.00     0.021 A 
ATOM     12  S   UNL d   1      32.995  20.989 -20.784  0.00  0.00    -0.048 SA
BRANCH   5  13
ATOM     13  C   UNL d   1      33.117  22.512 -22.271  0.00  0.00     0.108 C 
BRANCH  13  14
ATOM     14  C   UNL d   1      32.563  23.108 -22.392  0.00  0.00     0.135 C 
BRANCH  14  15
ATOM     15  O   UNL d   1      32.580  23.556 -23.079  0.00  0.00    -0.325 OA
ATOM     16  C   UNL d   1      31.920  23.592 -23.578  0.00  0.00     0.182 C 
ENDBRANCH  14  15
ENDBRANCH  13  14
ENDBRANCH   5  13
BRANCH  10  17
ATOM     17  S   UNL d   1      33.210  22.637 -18.356  0.00  0.00     0.302 S 
ATOM     18  O   UNL d   1      33.209  23.447 -18.496  0.00  0.00    -0.197 OA
ATOM     19  O   UNL d   1      33.211  21.819 -18.218  0.00  0.00    -0.197 OA
ATOM     20  N   UNL d   1      33.238  22.773 -17.544  0.00  0.00    -0.043 N 
ENDBRANCH  10  17
ENDBRANCH   1   4
BRANCH   2  21
ATOM     21  C   UNL d   1      32.998  19.424 -22.801  0.00  0.00     0.061 A 
ATOM     22  C   UNL d   1      32.874  18.602 -22.699  0.00  0.00     0.025 A 
ATOM     23  C   UNL d   1      32.813  18.103 -23.353  0.00  0.00     0.087 A 
ATOM     24  N   UNL d   1      32.875  18.422 -24.121  0.00  0.00    -0.245 NA
ATOM     25  C   UNL d   1      32.997  19.234 -24.222  0.00  0.00     0.082 A 
ATOM     26  C   UNL d   1      33.058  19.732 -23.567  0.00  0.00     0.022 A 
ATOM     27  C   UNL d   1      33.058  19.549 -24.987  0.00  0.00     0.019 A 
ATOM     28  C   UNL d   1      33.180  20.548 -23.664  0.00  0.00     0.002 A 
ATOM     29  C   UNL d   1      33.241  20.858 -24.443  0.00  0.00     0.000 A 
ATOM     30  C   UNL d   1      33.180  20.360 -25.097  0.00  0.00     0.002 A 
BRANCH  23  31
ATOM     31  C   UNL d   1      32.692  17.296 -23.252  0.00  0.00     0.047 A 
ATOM     32  S   UNL d   1      31.941  16.973 -23.360  0.00  0.00    -0.085 SA
ATOM     33  C   UNL d   1      31.978  16.160 -23.225  0.00  0.00     0.035 A 
ATOM     34  C   UNL d   1      32.763  15.988 -23.033  0.00  0.00     0.007 A 
ATOM     35  C   UNL d   1      33.206  16.682 -23.048  0.00  0.00     0.009 A 
ENDBRANCH  23  31
ENDBRANCH   2  21
TORSDOF 7
ENDMDL
MODEL 2
REMARK VINA RESULT:       0.2      1.744      2.193
REMARK  7 active torsions:
REMARK  status: ('A' for Active; 'I' for Inactive)
REMARK    1  A    between atoms: N_2  and  C_1 
REMARK       I    between atoms: C_6  and  N_2 
REMARK    2  A    between atoms: S_3  and  C_12 
REMARK    3  A    between atoms: C_28  and  N_4 
REMARK    4  A    between atoms: C_8  and  C_6 
REMARK    5  A    between atoms: C_15  and  C_11 
REMARK    6  A    between atoms: C_32  and  C_28 
REMARK    7  A    between atoms: O_31  and  C_32 
ROOT
ATOM      1  N   UNL d   1      32.268  19.579 -23.168  0.00  0.00    -0.184 NA
ATOM      2  C   UNL d   1      31.691  19.035 -22.949  0.00  0.00     0.281 C 
ATOM      3  O   UNL d   1      31.282  19.135 -22.240  0.00  0.00    -0.265 OA
ENDROOT
BRANCH   1   4
ATOM      4  C   UNL d   1      32.431  20.221 -22.676  0.00  0.00     0.182 A 
ATOM      5  N   UNL d   1      32.857  20.888 -22.888  0.00  0.00    -0.283 N 
ATOM      6  C   UNL d   1      32.891  21.395 -22.237  0.00  0.00     0.072 A 
ATOM      7  C   UNL d   1      33.240  22.133 -22.126  0.00  0.00     0.019 A 
ATOM      8  C   UNL d   1      32.482  21.034 -21.618  0.00  0.00     0.049 A 
ATOM      9  C   UNL d   1      33.179  22.509 -21.397  0.00  0.00     0.015 A 
ATOM     10  C   UNL d   1      32.770  22.148 -20.778  0.00  0.00     0.107 A 
ATOM     11  C   UNL d   1      32.422  21.411 -20.888  0.00  0.00     0.021 A 
ATOM     12  S   UNL d   1      32.197  20.307 -21.891  0.00  0.00    -0.048 SA
BRANCH   5  13
ATOM     13  C   UNL d   1      33.197  21.038 -23.626  0.00  0.00     0.108 C 
BRANCH  13  14
ATOM     14  C   UNL d   1      33.174  21.793 -23.951  0.00  0.00     0.135 C 
BRANCH  14  15
ATOM     15  O   UNL d   1      33.240  21.897 -24.763  0.00  0.00    -0.325 OA
ATOM     16  C   UNL d   1      33.218  22.655 -25.095  0.00  0.00     0.182 C 
ENDBRANCH  14  15
ENDBRANCH  13  14
ENDBRANCH   5  13
BRANCH  10  17
ATOM     17  S   UNL d   1      32.710  22.534 -20.038  0.00  0.00     0.302 S 
ATOM     18  O   UNL d   1      33.033  21.859 -19.698  0.00  0.00    -0.197 OA
ATOM     19  O   UNL d   1      32.385  23.213 -20.385  0.00  0.00    -0.197 OA
ATOM     20  N   UNL d   1      32.662  22.890 -19.297  0.00  0.00    -0.043 N 
ENDBRANCH  10  17
ENDBRANCH   1   4
BRANCH   2  21
ATOM     21  C   UNL d   1      31.523  18.390 -23.436  0.00  0.00     0.061 A 
ATOM     22  C   UNL d   1      32.047  17.738 -23.474  0.00  0.00     0.025 A 
ATOM     23  C   UNL d   1      31.878  17.094 -23.961  0.00  0.00     0.087 A 
ATOM     24  N   UNL d   1      31.181  17.094 -24.418  0.00  0.00    -0.245 NA
ATOM     25  C   UNL d   1      30.664  17.738 -24.380  0.00  0.00     0.082 A 
ATOM     26  C   UNL d   1      30.833  18.383 -23.893  0.00  0.00     0.022 A 
ATOM     27  C   UNL d   1      29.971  17.737 -24.837  0.00  0.00     0.019 A 
ATOM     28  C   UNL d   1      30.316  19.031 -23.853  0.00  0.00     0.002 A 
ATOM     29  C   UNL d   1      29.616  19.021 -24.318  0.00  0.00     0.000 A 
ATOM     30  C   UNL d   1      29.448  18.377 -24.805  0.00  0.00     0.002 A 
BRANCH  23  31
ATOM     31  C   UNL d   1      32.393  16.454 -23.998  0.00  0.00     0.047 A 
ATOM     32  S   UNL d   1      32.566  16.102 -24.723  0.00  0.00    -0.085 SA
ATOM     33  C   UNL d   1      33.092  15.478 -24.600  0.00  0.00     0.035 A 
ATOM     34  C   UNL d   1      33.240  15.453 -23.787  0.00  0.00     0.007 A 
ATOM     35  C   UNL d   1      32.813  16.049 -23.413  0.00  0.00     0.009 A 
ENDBRANCH  23  31
ENDBRANCH   2  21
TORSDOF 7
ENDMDL
