MODEL 1
REMARK VINA RESULT:      48.3      0.000      0.000
REMARK  6 active torsions:
REMARK  status: ('A' for Active; 'I' for Inactive)
REMARK    1  A    between atoms: N_3  and  S_1 
REMARK    2  A    between atoms: C_7  and  S_1 
REMARK    3  A    between atoms: C_2  and  N_3 
REMARK    4  A    between atoms: N_9  and  C_5 
REMARK    5  A    between atoms: C_22  and  N_9 
REMARK    6  A    between atoms: C_21  and  C_22 
ROOT
ATOM      1  C   UNL d   1      46.264 -17.865  42.834  0.00  0.00     0.211 A 
ATOM      2  N   UNL d   1      46.320 -18.682  42.831  0.00  0.00    -0.222 NA
ATOM      3  C   UNL d   1      46.316 -17.446  43.544  0.00  0.00     0.200 A 
ATOM      4  N   UNL d   1      46.426 -17.862  44.257  0.00  0.00    -0.223 NA
ATOM      5  C   UNL d   1      46.428 -19.088  43.532  0.00  0.00     0.101 A 
ATOM      6  C   UNL d   1      46.482 -18.686  44.248  0.00  0.00     0.101 A 
ATOM      7  C   UNL d   1      46.590 -19.101  44.952  0.00  0.00     0.021 A 
ATOM      8  C   UNL d   1      46.484 -19.915  43.520  0.00  0.00     0.021 A 
ATOM      9  C   UNL d   1      46.645 -19.920  44.937  0.00  0.00     0.002 A 
ATOM     10  C   UNL d   1      46.592 -20.327  44.227  0.00  0.00     0.002 A 
ENDROOT
BRANCH   1  11
ATOM     11  N   UNL d   1      46.156 -17.456  42.130  0.00  0.00    -0.136 NA
BRANCH  11  12
ATOM     12  S   UNL d   1      46.030 -17.933  41.385  0.00  0.00     0.287 S 
ATOM     13  O   UNL d   1      46.544 -18.652  41.265  0.00  0.00    -0.198 OA
ATOM     14  O   UNL d   1      46.645 -18.322  41.800  0.00  0.00    -0.198 OA
BRANCH  12  15
ATOM     15  C   UNL d   1      45.516 -17.855  40.745  0.00  0.00     0.105 A 
ATOM     16  C   UNL d   1      45.716 -17.371  40.102  0.00  0.00     0.013 A 
ATOM     17  C   UNL d   1      45.196 -17.291  39.454  0.00  0.00     0.001 A 
ATOM     18  C   UNL d   1      45.400 -16.811  38.822  0.00  0.00     0.000 C 
ATOM     19  C   UNL d   1      44.474 -17.703  39.456  0.00  0.00     0.000 A 
ATOM     20  C   UNL d   1      44.277 -18.186  40.099  0.00  0.00     0.001 A 
ATOM     21  C   UNL d   1      44.792 -18.264  40.740  0.00  0.00     0.013 A 
ENDBRANCH  12  15
ENDBRANCH  11  12
ENDBRANCH   1  11
BRANCH   3  22
ATOM     22  N   UNL d   1      46.260 -16.618  43.555  0.00  0.00    -0.223 NA
BRANCH  22  23
ATOM     23  C   UNL d   1      46.082 -16.217  44.263  0.00  0.00     0.101 C 
BRANCH  23  24
ATOM     24  C   UNL d   1      45.846 -15.427  44.240  0.00  0.00     0.021 A 
ATOM     25  C   UNL d   1      46.177 -14.754  43.885  0.00  0.00     0.028 A 
ATOM     26  C   UNL d   1      45.797 -14.019  43.965  0.00  0.00     0.119 A 
ATOM     27  O   UNL d   1      45.990 -13.269  43.681  0.00  0.00    -0.300 OA
ATOM     28  C   UNL d   1      45.097 -13.965  44.394  0.00  0.00     0.119 A 
ATOM     29  C   UNL d   1      45.406 -12.745  43.935  0.00  0.00     0.304 A 
ATOM     30  O   UNL d   1      44.854 -13.169  44.374  0.00  0.00    -0.300 OA
ATOM     31  C   UNL d   1      44.771 -14.634  44.745  0.00  0.00     0.026 A 
ATOM     32  C   UNL d   1      45.141 -15.364  44.670  0.00  0.00     0.004 A 
ENDBRANCH  23  24
ENDBRANCH  22  23
ENDBRANCH   3  22
TORSDOF 6
ENDMDL
