MODEL 1
REMARK VINA RESULT:      -8.4      0.000      0.000
REMARK  5 active torsions:
REMARK  status: ('A' for Active; 'I' for Inactive)
REMARK    1  A    between atoms: N_8  and  C_1 
REMARK    2  A    between atoms: C_11  and  C_2 
REMARK    3  A    between atoms: C_4  and  C_6 
REMARK       I    between atoms: C_6  and  N_8 
REMARK    4  A    between atoms: O_17  and  C_11 
REMARK    5  A    between atoms: C_19  and  O_17 
ROOT
ATOM      1  C   UNL d   1      53.918  33.285  54.548  0.00  0.00     0.114 A 
ATOM      2  C   UNL d   1      53.786  32.180  53.827  0.00  0.00     0.094 A 
ATOM      3  S   UNL d   1      53.479  32.598  54.441  0.00  0.00    -0.062 SA
ATOM      4  C   UNL d   1      54.438  32.632  53.550  0.00  0.00     0.013 A 
ATOM      5  C   UNL d   1      54.504  33.279  53.982  0.00  0.00     0.027 A 
ATOM      6  C   UNL d   1      54.933  32.429  52.922  0.00  0.00     0.001 C 
ENDROOT
BRANCH   1   7
ATOM      7  N   UNL d   1      53.793  33.895  55.135  0.00  0.00    -0.201 NA
ATOM      8  C   UNL d   1      53.315  34.534  54.957  0.00  0.00     0.286 C 
ATOM      9  O   UNL d   1      53.199  35.120  55.529  0.00  0.00    -0.265 OA
BRANCH   8  10
ATOM     10  C   UNL d   1      52.956  34.588  54.218  0.00  0.00     0.088 A 
ATOM     11  S   UNL d   1      52.189  34.378  54.047  0.00  0.00    -0.071 SA
ATOM     12  C   UNL d   1      52.058  34.519  53.251  0.00  0.00     0.087 A 
ATOM     13 CL   UNL d   1      51.357  34.376  52.882  0.00  0.00    -0.075 Cl
ATOM     14  C   UNL d   1      52.777  34.826  52.929  0.00  0.00     0.019 A 
ATOM     15  C   UNL d   1      53.314  34.864  53.522  0.00  0.00     0.013 A 
ENDBRANCH   8  10
ENDBRANCH   1   7
BRANCH   2  16
ATOM     16  C   UNL d   1      53.518  31.453  53.526  0.00  0.00     0.306 C 
ATOM     17  O   UNL d   1      53.198  31.440  52.778  0.00  0.00    -0.258 OA
BRANCH  16  18
ATOM     18  O   UNL d   1      53.569  30.765  53.960  0.00  0.00    -0.271 OA
BRANCH  18  19
ATOM     19  C   UNL d   1      53.254  30.065  53.670  0.00  0.00     0.126 C 
ATOM     20  C   UNL d   1      53.314  29.382  54.127  0.00  0.00     0.029 C 
ENDBRANCH  18  19
ENDBRANCH  16  18
ENDBRANCH   2  16
TORSDOF 5
ENDMDL
MODEL 2
REMARK VINA RESULT:      -7.5      1.682      3.262
REMARK  5 active torsions:
REMARK  status: ('A' for Active; 'I' for Inactive)
REMARK    1  A    between atoms: N_8  and  C_1 
REMARK    2  A    between atoms: C_11  and  C_2 
REMARK    3  A    between atoms: C_4  and  C_6 
REMARK       I    between atoms: C_6  and  N_8 
REMARK    4  A    between atoms: O_17  and  C_11 
REMARK    5  A    between atoms: C_19  and  O_17 
ROOT
ATOM      1  C   UNL d   1      53.103  34.104  54.253  0.00  0.00     0.114 A 
ATOM      2  C   UNL d   1      52.135  34.152  53.348  0.00  0.00     0.094 A 
ATOM      3  S   UNL d   1      52.322  33.904  54.089  0.00  0.00    -0.062 SA
ATOM      4  C   UNL d   1      52.830  34.516  53.049  0.00  0.00     0.013 A 
ATOM      5  C   UNL d   1      53.391  34.481  53.591  0.00  0.00     0.027 A 
ATOM      6  C   UNL d   1      52.912  34.858  52.303  0.00  0.00     0.001 C 
ENDROOT
BRANCH   1   7
ATOM      7  N   UNL d   1      53.538  33.950  54.974  0.00  0.00    -0.201 NA
ATOM      8  C   UNL d   1      53.989  33.271  55.035  0.00  0.00     0.286 C 
ATOM      9  O   UNL d   1      54.407  33.130  55.735  0.00  0.00    -0.265 OA
BRANCH   8  10
ATOM     10  C   UNL d   1      54.023  32.740  54.408  0.00  0.00     0.088 A 
ATOM     11  S   UNL d   1      53.596  32.050  54.347  0.00  0.00    -0.071 SA
ATOM     12  C   UNL d   1      53.794  31.689  53.640  0.00  0.00     0.087 A 
ATOM     13 CL   UNL d   1      53.479  30.991  53.391  0.00  0.00    -0.075 Cl
ATOM     14  C   UNL d   1      54.365  32.182  53.258  0.00  0.00     0.019 A 
ATOM     15  C   UNL d   1      54.496  32.815  53.731  0.00  0.00     0.013 A 
ENDBRANCH   8  10
ENDBRANCH   1   7
BRANCH   2  16
ATOM     16  C   UNL d   1      51.407  34.066  52.955  0.00  0.00     0.306 C 
ATOM     17  O   UNL d   1      51.355  33.518  52.356  0.00  0.00    -0.258 OA
BRANCH  16  18
ATOM     18  O   UNL d   1      50.756  34.514  53.156  0.00  0.00    -0.271 OA
BRANCH  18  19
ATOM     19  C   UNL d   1      50.038  34.399  52.777  0.00  0.00     0.126 C 
ATOM     20  C   UNL d   1      49.425  34.931  52.918  0.00  0.00     0.029 C 
ENDBRANCH  18  19
ENDBRANCH  16  18
ENDBRANCH   2  16
TORSDOF 5
ENDMDL
MODEL 3
REMARK VINA RESULT:      -7.0      1.880      3.632
REMARK  5 active torsions:
REMARK  status: ('A' for Active; 'I' for Inactive)
REMARK    1  A    between atoms: N_8  and  C_1 
REMARK    2  A    between atoms: C_11  and  C_2 
REMARK    3  A    between atoms: C_4  and  C_6 
REMARK       I    between atoms: C_6  and  N_8 
REMARK    4  A    between atoms: O_17  and  C_11 
REMARK    5  A    between atoms: C_19  and  O_17 
ROOT
ATOM      1  C   UNL d   1      52.546  32.601  52.974  0.00  0.00     0.114 A 
ATOM      2  C   UNL d   1      51.877  33.742  53.051  0.00  0.00     0.094 A 
ATOM      3  S   UNL d   1      51.901  32.982  53.311  0.00  0.00    -0.062 SA
ATOM      4  C   UNL d   1      52.534  33.826  52.535  0.00  0.00     0.013 A 
ATOM      5  C   UNL d   1      52.919  33.148  52.498  0.00  0.00     0.027 A 
ATOM      6  C   UNL d   1      52.745  34.513  52.130  0.00  0.00     0.001 C 
ENDROOT
BRANCH   1   7
ATOM      7  N   UNL d   1      52.789  31.788  53.091  0.00  0.00    -0.201 NA
ATOM      8  C   UNL d   1      53.428  31.624  53.573  0.00  0.00     0.286 C 
ATOM      9  O   UNL d   1      53.657  30.837  53.681  0.00  0.00    -0.265 OA
BRANCH   8  10
ATOM     10  C   UNL d   1      53.834  32.237  53.943  0.00  0.00     0.088 A 
ATOM     11  S   UNL d   1      53.735  32.474  54.714  0.00  0.00    -0.071 SA
ATOM     12  C   UNL d   1      54.244  33.099  54.858  0.00  0.00     0.087 A 
ATOM     13 CL   UNL d   1      54.299  33.477  55.566  0.00  0.00    -0.075 Cl
ATOM     14  C   UNL d   1      54.669  33.245  54.141  0.00  0.00     0.019 A 
ATOM     15  C   UNL d   1      54.414  32.718  53.594  0.00  0.00     0.013 A 
ENDBRANCH   8  10
ENDBRANCH   1   7
BRANCH   2  16
ATOM     16  C   UNL d   1      51.320  34.327  53.249  0.00  0.00     0.306 C 
ATOM     17  O   UNL d   1      51.561  34.945  53.722  0.00  0.00    -0.258 OA
BRANCH  16  18
ATOM     18  O   UNL d   1      50.550  34.294  52.984  0.00  0.00    -0.271 OA
BRANCH  18  19
ATOM     19  C   UNL d   1      50.000  34.848  53.231  0.00  0.00     0.126 C 
ATOM     20  C   UNL d   1      49.282  34.903  52.829  0.00  0.00     0.029 C 
ENDBRANCH  18  19
ENDBRANCH  16  18
ENDBRANCH   2  16
TORSDOF 5
ENDMDL
MODEL 4
REMARK VINA RESULT:      -6.8      1.815      2.422
REMARK  5 active torsions:
REMARK  status: ('A' for Active; 'I' for Inactive)
REMARK    1  A    between atoms: N_8  and  C_1 
REMARK    2  A    between atoms: C_11  and  C_2 
REMARK    3  A    between atoms: C_4  and  C_6 
REMARK       I    between atoms: C_6  and  N_8 
REMARK    4  A    between atoms: O_17  and  C_11 
REMARK    5  A    between atoms: C_19  and  O_17 
ROOT
ATOM      1  C   UNL d   1      52.674  31.738  52.930  0.00  0.00     0.114 A 
ATOM      2  C   UNL d   1      52.895  30.498  53.346  0.00  0.00     0.094 A 
ATOM      3  S   UNL d   1      52.413  31.136  53.426  0.00  0.00    -0.062 SA
ATOM      4  C   UNL d   1      53.472  30.721  52.779  0.00  0.00     0.013 A 
ATOM      5  C   UNL d   1      53.331  31.452  52.542  0.00  0.00     0.027 A 
ATOM      6  C   UNL d   1      54.092  30.248  52.510  0.00  0.00     0.001 C 
ENDROOT
BRANCH   1   7
ATOM      7  N   UNL d   1      52.332  32.516  52.832  0.00  0.00    -0.201 NA
ATOM      8  C   UNL d   1      52.669  33.156  53.213  0.00  0.00     0.286 C 
ATOM      9  O   UNL d   1      52.332  33.904  53.113  0.00  0.00    -0.265 OA
BRANCH   8  10
ATOM     10  C   UNL d   1      53.332  33.050  53.688  0.00  0.00     0.088 A 
ATOM     11  S   UNL d   1      53.333  33.011  54.500  0.00  0.00    -0.071 SA
ATOM     12  C   UNL d   1      54.105  32.903  54.751  0.00  0.00     0.087 A 
ATOM     13 CL   UNL d   1      54.319  32.839  55.523  0.00  0.00    -0.075 Cl
ATOM     14  C   UNL d   1      54.591  32.876  54.058  0.00  0.00     0.019 A 
ATOM     15  C   UNL d   1      54.114  32.966  53.421  0.00  0.00     0.013 A 
ENDBRANCH   8  10
ENDBRANCH   1   7
BRANCH   2  16
ATOM     16  C   UNL d   1      52.837  29.768  53.740  0.00  0.00     0.306 C 
ATOM     17  O   UNL d   1      52.369  29.189  53.412  0.00  0.00    -0.258 OA
BRANCH  16  18
ATOM     18  O   UNL d   1      53.234  29.625  54.438  0.00  0.00    -0.271 OA
BRANCH  18  19
ATOM     19  C   UNL d   1      53.168  28.899  54.813  0.00  0.00     0.126 C 
ATOM     20  C   UNL d   1      53.452  28.823  55.583  0.00  0.00     0.029 C 
ENDBRANCH  18  19
ENDBRANCH  16  18
ENDBRANCH   2  16
TORSDOF 5
ENDMDL
MODEL 5
REMARK VINA RESULT:      -6.7      1.639      2.252
REMARK  5 active torsions:
REMARK  status: ('A' for Active; 'I' for Inactive)
REMARK    1  A    between atoms: N_8  and  C_1 
REMARK    2  A    between atoms: C_11  and  C_2 
REMARK    3  A    between atoms: C_4  and  C_6 
REMARK       I    between atoms: C_6  and  N_8 
REMARK    4  A    between atoms: O_17  and  C_11 
REMARK    5  A    between atoms: C_19  and  O_17 
ROOT
ATOM      1  C   UNL d   1      52.518  34.052  53.203  0.00  0.00     0.114 A 
ATOM      2  C   UNL d   1      52.421  32.742  53.022  0.00  0.00     0.094 A 
ATOM      3  S   UNL d   1      52.903  33.379  52.931  0.00  0.00    -0.062 SA
ATOM      4  C   UNL d   1      51.714  33.041  53.363  0.00  0.00     0.013 A 
ATOM      5  C   UNL d   1      51.785  33.812  53.464  0.00  0.00     0.027 A 
ATOM      6  C   UNL d   1      51.049  32.595  53.562  0.00  0.00     0.001 C 
ENDROOT
BRANCH   1   7
ATOM      7  N   UNL d   1      52.818  34.853  53.215  0.00  0.00    -0.201 NA
ATOM      8  C   UNL d   1      53.304  35.093  53.827  0.00  0.00     0.286 C 
ATOM      9  O   UNL d   1      53.591  35.869  53.831  0.00  0.00    -0.265 OA
BRANCH   8  10
ATOM     10  C   UNL d   1      53.503  34.565  54.426  0.00  0.00     0.088 A 
ATOM     11  S   UNL d   1      54.203  34.155  54.485  0.00  0.00    -0.071 SA
ATOM     12  C   UNL d   1      54.173  33.694  55.161  0.00  0.00     0.087 A 
ATOM     13 CL   UNL d   1      54.771  33.211  55.399  0.00  0.00    -0.075 Cl
ATOM     14  C   UNL d   1      53.423  33.833  55.525  0.00  0.00     0.019 A 
ATOM     15  C   UNL d   1      53.025  34.361  55.074  0.00  0.00     0.013 A 
ENDBRANCH   8  10
ENDBRANCH   1   7
BRANCH   2  16
ATOM     16  C   UNL d   1      52.584  31.951  52.822  0.00  0.00     0.306 C 
ATOM     17  O   UNL d   1      52.454  31.714  52.054  0.00  0.00    -0.258 OA
BRANCH  16  18
ATOM     18  O   UNL d   1      52.865  31.419  53.371  0.00  0.00    -0.271 OA
BRANCH  18  19
ATOM     19  C   UNL d   1      53.149  30.687  53.134  0.00  0.00     0.126 C 
ATOM     20  C   UNL d   1      53.407  30.156  53.710  0.00  0.00     0.029 C 
ENDBRANCH  18  19
ENDBRANCH  16  18
ENDBRANCH   2  16
TORSDOF 5
ENDMDL
MODEL 6
REMARK VINA RESULT:      -6.2      2.060      3.241
REMARK  5 active torsions:
REMARK  status: ('A' for Active; 'I' for Inactive)
REMARK    1  A    between atoms: N_8  and  C_1 
REMARK    2  A    between atoms: C_11  and  C_2 
REMARK    3  A    between atoms: C_4  and  C_6 
REMARK       I    between atoms: C_6  and  N_8 
REMARK    4  A    between atoms: O_17  and  C_11 
REMARK    5  A    between atoms: C_19  and  O_17 
ROOT
ATOM      1  C   UNL d   1      53.402  32.597  52.953  0.00  0.00     0.114 A 
ATOM      2  C   UNL d   1      52.105  32.839  53.079  0.00  0.00     0.094 A 
ATOM      3  S   UNL d   1      52.818  33.175  52.922  0.00  0.00    -0.062 SA
ATOM      4  C   UNL d   1      52.262  32.025  53.211  0.00  0.00     0.013 A 
ATOM      5  C   UNL d   1      53.028  31.896  53.133  0.00  0.00     0.027 A 
ATOM      6  C   UNL d   1      51.700  31.449  53.393  0.00  0.00     0.001 C 
ENDROOT
BRANCH   1   7
ATOM      7  N   UNL d   1      54.242  32.700  52.823  0.00  0.00    -0.201 NA
ATOM      8  C   UNL d   1      54.718  32.944  53.440  0.00  0.00     0.286 C 
ATOM      9  O   UNL d   1      55.529  33.041  53.307  0.00  0.00    -0.265 OA
BRANCH   8  10
ATOM     10  C   UNL d   1      54.391  33.090  54.181  0.00  0.00     0.088 A 
ATOM     11  S   UNL d   1      54.191  33.821  54.475  0.00  0.00    -0.071 SA
ATOM     12  C   UNL d   1      53.885  33.720  55.227  0.00  0.00     0.087 A 
ATOM     13 CL   UNL d   1      53.626  34.325  55.690  0.00  0.00    -0.075 Cl
ATOM     14  C   UNL d   1      53.902  32.890  55.394  0.00  0.00     0.019 A 
ATOM     15  C   UNL d   1      54.210  32.519  54.755  0.00  0.00     0.013 A 
ENDBRANCH   8  10
ENDBRANCH   1   7
BRANCH   2  16
ATOM     16  C   UNL d   1      51.364  33.216  53.107  0.00  0.00     0.306 C 
ATOM     17  O   UNL d   1      50.859  33.028  53.717  0.00  0.00    -0.258 OA
BRANCH  16  18
ATOM     18  O   UNL d   1      51.138  33.760  52.544  0.00  0.00    -0.271 OA
BRANCH  18  19
ATOM     19  C   UNL d   1      50.464  34.214  52.649  0.00  0.00     0.126 C 
ATOM     20  C   UNL d   1      50.084  34.522  51.986  0.00  0.00     0.029 C 
ENDBRANCH  18  19
ENDBRANCH  16  18
ENDBRANCH   2  16
TORSDOF 5
ENDMDL
MODEL 7
REMARK VINA RESULT:      -6.1      1.457      3.081
REMARK  5 active torsions:
REMARK  status: ('A' for Active; 'I' for Inactive)
REMARK    1  A    between atoms: N_8  and  C_1 
REMARK    2  A    between atoms: C_11  and  C_2 
REMARK    3  A    between atoms: C_4  and  C_6 
REMARK       I    between atoms: C_6  and  N_8 
REMARK    4  A    between atoms: O_17  and  C_11 
REMARK    5  A    between atoms: C_19  and  O_17 
ROOT
ATOM      1  C   UNL d   1      53.871  31.846  53.831  0.00  0.00     0.114 A 
ATOM      2  C   UNL d   1      54.247  32.964  54.437  0.00  0.00     0.094 A 
ATOM      3  S   UNL d   1      53.756  32.329  54.486  0.00  0.00    -0.062 SA
ATOM      4  C   UNL d   1      54.677  32.861  53.723  0.00  0.00     0.013 A 
ATOM      5  C   UNL d   1      54.446  32.200  53.377  0.00  0.00     0.027 A 
ATOM      6  C   UNL d   1      55.252  33.374  53.429  0.00  0.00     0.001 C 
ENDROOT
BRANCH   1   7
ATOM      7  N   UNL d   1      53.470  31.111  53.651  0.00  0.00    -0.201 NA
ATOM      8  C   UNL d   1      52.748  31.129  53.270  0.00  0.00     0.286 C 
ATOM      9  O   UNL d   1      52.367  30.415  53.099  0.00  0.00    -0.265 OA
BRANCH   8  10
ATOM     10  C   UNL d   1      52.409  31.849  53.061  0.00  0.00     0.088 A 
ATOM     11  S   UNL d   1      51.777  32.201  53.433  0.00  0.00    -0.071 SA
ATOM     12  C   UNL d   1      51.617  32.908  53.052  0.00  0.00     0.087 A 
ATOM     13 CL   UNL d   1      51.026  33.409  53.268  0.00  0.00    -0.075 Cl
ATOM     14  C   UNL d   1      52.179  32.985  52.424  0.00  0.00     0.019 A 
ATOM     15  C   UNL d   1      52.653  32.340  52.438  0.00  0.00     0.013 A 
ENDBRANCH   8  10
ENDBRANCH   1   7
BRANCH   2  16
ATOM     16  C   UNL d   1      54.317  33.592  54.977  0.00  0.00     0.306 C 
ATOM     17  O   UNL d   1      54.740  33.466  55.661  0.00  0.00    -0.258 OA
BRANCH  16  18
ATOM     18  O   UNL d   1      53.976  34.319  54.836  0.00  0.00    -0.271 OA
BRANCH  18  19
ATOM     19  C   UNL d   1      53.669  34.762  55.454  0.00  0.00     0.126 C 
ATOM     20  C   UNL d   1      53.226  35.435  55.279  0.00  0.00     0.029 C 
ENDBRANCH  18  19
ENDBRANCH  16  18
ENDBRANCH   2  16
TORSDOF 5
ENDMDL
