MODEL 1
REMARK VINA RESULT:      53.1      0.000      0.000
REMARK  7 active torsions:
REMARK  status: ('A' for Active; 'I' for Inactive)
REMARK    1  A    between atoms: N_9  and  C_2 
REMARK    2  A    between atoms: C_8  and  C_14 
REMARK    3  A    between atoms: C_15  and  N_9 
REMARK    4  A    between atoms: C_14  and  C_16 
REMARK    5  A    between atoms: C_17  and  C_15 
REMARK    6  A    between atoms: C_16  and  C_18 
REMARK    7  A    between atoms: C_18  and  C_17 
ROOT
ATOM      1  N   UNL d   1      59.114  49.460  51.452  0.00  0.00    -0.198 NA
ATOM      2  C   UNL d   1      58.292  49.544  51.483  0.00  0.00     0.166 A 
ATOM      3  C   UNL d   1      59.485  49.299  50.732  0.00  0.00     0.222 A 
ATOM      4  C   UNL d   1      57.843  49.466  50.795  0.00  0.00     0.054 A 
ATOM      5  N   UNL d   1      59.033  49.222  50.044  0.00  0.00    -0.217 NA
ATOM      6  C   UNL d   1      58.214  49.305  50.076  0.00  0.00     0.087 A 
ATOM      7  S   UNL d   1      60.305  49.214  50.693  0.00  0.00    -0.037 SA
ATOM      8  C   UNL d   1      57.027  49.549  50.830  0.00  0.00     0.005 A 
ATOM      9  C   UNL d   1      57.769  49.227  49.391  0.00  0.00     0.019 A 
ATOM     10  C   UNL d   1      56.574  49.472  50.140  0.00  0.00     0.000 A 
ATOM     11  C   UNL d   1      56.945  49.311  49.421  0.00  0.00     0.002 A 
ENDROOT
BRANCH   2  12
ATOM     12  N   UNL d   1      57.922  49.704  52.200  0.00  0.00    -0.225 NA
BRANCH  12  13
ATOM     13  C   UNL d   1      58.314  49.536  52.904  0.00  0.00     0.101 C 
BRANCH  13  14
ATOM     14  C   UNL d   1      57.968  49.023  53.450  0.00  0.00     0.021 C 
BRANCH  14  15
ATOM     15  C   UNL d   1      58.009  49.192  54.259  0.00  0.00     0.002 C 
BRANCH  15  16
ATOM     16  C   UNL d   1      57.320  49.319  54.686  0.00  0.00     0.006 C 
BRANCH  16  17
ATOM     17  C   UNL d   1      57.304  49.158  55.496  0.00  0.00     0.070 C 
BRANCH  17  18
ATOM     18  C   UNL d   1      56.580  49.073  55.882  0.00  0.00     0.211 C 
ATOM     19  O   UNL d   1      56.052  49.704  55.919  0.00  0.00    -0.644 OA
ATOM     20  O   UNL d   1      56.384  48.347  56.235  0.00  0.00    -0.644 OA
ENDBRANCH  17  18
ENDBRANCH  16  17
ENDBRANCH  15  16
ENDBRANCH  14  15
ENDBRANCH  13  14
ENDBRANCH  12  13
ENDBRANCH   2  12
TORSDOF 7
ENDMDL
