MODEL 1
REMARK VINA RESULT:      -2.9      0.000      0.000
REMARK  3 active torsions:
REMARK  status: ('A' for Active; 'I' for Inactive)
REMARK    1  A    between atoms: C_9  and  C_1 
REMARK       I    between atoms: N_12  and  C_9 
REMARK    2  A    between atoms: C_16  and  N_12 
REMARK    3  A    between atoms: C_17  and  C_16 
ROOT
ATOM      1  C   UNL d   1      32.801  18.883 -23.381  0.00  0.00     0.108 A 
ATOM      2  C   UNL d   1      32.939  20.144 -22.993  0.00  0.00     0.044 A 
ATOM      3  C   UNL d   1      32.931  19.647 -22.293  0.00  0.00     0.112 A 
ATOM      4  S   UNL d   1      32.845  18.860 -22.541  0.00  0.00    -0.061 SA
ATOM      5  C   UNL d   1      32.857  19.650 -23.654  0.00  0.00     0.116 A 
ATOM      6  N   UNL d   1      33.002  19.985 -21.559  0.00  0.00    -0.239 NA
ATOM      7  C   UNL d   1      33.089  21.278 -22.162  0.00  0.00     0.057 A 
ATOM      8  C   UNL d   1      33.017  20.946 -22.914  0.00  0.00     0.008 A 
ATOM      9  C   UNL d   1      33.082  20.803 -21.493  0.00  0.00     0.085 A 
ATOM     10  C   UNL d   1      33.169  22.102 -22.092  0.00  0.00     0.197 A 
ATOM     11  N   UNL d   1      32.834  19.880 -24.468  0.00  0.00    -0.147 N 
ATOM     12  O   UNL d   1      33.176  22.584 -22.772  0.00  0.00    -0.286 OA
ATOM     13  C   UNL d   1      33.154  21.140 -20.738  0.00  0.00     0.019 A 
ATOM     14  C   UNL d   1      33.241  22.446 -21.355  0.00  0.00     0.042 A 
ATOM     15  C   UNL d   1      33.233  21.949 -20.656  0.00  0.00     0.005 A 
ENDROOT
BRANCH   1  16
ATOM     16  C   UNL d   1      32.713  18.219 -23.877  0.00  0.00     0.287 C 
ATOM     17  N   UNL d   1      32.072  17.722 -23.745  0.00  0.00    -0.206 NA
ATOM     18  O   UNL d   1      33.241  18.053 -24.482  0.00  0.00    -0.265 OA
BRANCH  17  19
ATOM     19  C   UNL d   1      31.968  17.053 -24.230  0.00  0.00     0.102 C 
BRANCH  19  20
ATOM     20  C   UNL d   1      31.278  16.609 -24.181  0.00  0.00     0.019 A 
ATOM     21  C   UNL d   1      30.634  16.791 -24.661  0.00  0.00     0.002 A 
ATOM     22  C   UNL d   1      29.944  16.342 -24.607  0.00  0.00     0.000 A 
ATOM     23  C   UNL d   1      29.893  15.719 -24.083  0.00  0.00     0.000 A 
ATOM     24  C   UNL d   1      30.532  15.532 -23.602  0.00  0.00     0.000 A 
ATOM     25  C   UNL d   1      31.227  15.976 -23.649  0.00  0.00     0.002 A 
ENDBRANCH  19  20
ENDBRANCH  17  19
ENDBRANCH   1  16
TORSDOF 3
ENDMDL
MODEL 2
REMARK VINA RESULT:      -1.9      1.190      5.123
REMARK  3 active torsions:
REMARK  status: ('A' for Active; 'I' for Inactive)
REMARK    1  A    between atoms: C_9  and  C_1 
REMARK       I    between atoms: N_12  and  C_9 
REMARK    2  A    between atoms: C_16  and  N_12 
REMARK    3  A    between atoms: C_17  and  C_16 
ROOT
ATOM      1  C   UNL d   1      32.995  19.610 -23.073  0.00  0.00     0.108 A 
ATOM      2  C   UNL d   1      32.682  18.453 -23.642  0.00  0.00     0.044 A 
ATOM      3  C   UNL d   1      32.999  18.291 -22.861  0.00  0.00     0.112 A 
ATOM      4  S   UNL d   1      33.193  19.017 -22.510  0.00  0.00    -0.061 SA
ATOM      5  C   UNL d   1      32.689  19.275 -23.752  0.00  0.00     0.116 A 
ATOM      6  N   UNL d   1      33.058  17.525 -22.602  0.00  0.00    -0.239 NA
ATOM      7  C   UNL d   1      32.510  17.063 -23.840  0.00  0.00     0.057 A 
ATOM      8  C   UNL d   1      32.445  17.839 -24.114  0.00  0.00     0.008 A 
ATOM      9  C   UNL d   1      32.813  16.908 -23.093  0.00  0.00     0.085 A 
ATOM     10  C   UNL d   1      32.264  16.441 -24.331  0.00  0.00     0.197 A 
ATOM     11  N   UNL d   1      32.431  19.705 -24.434  0.00  0.00    -0.147 N 
ATOM     12  O   UNL d   1      31.956  16.598 -25.090  0.00  0.00    -0.286 OA
ATOM     13  C   UNL d   1      32.877  16.127 -22.819  0.00  0.00     0.019 A 
ATOM     14  C   UNL d   1      32.322  15.668 -24.074  0.00  0.00     0.042 A 
ATOM     15  C   UNL d   1      32.639  15.506 -23.293  0.00  0.00     0.005 A 
ENDROOT
BRANCH   1  16
ATOM     16  C   UNL d   1      33.093  20.430 -22.964  0.00  0.00     0.287 C 
ATOM     17  N   UNL d   1      33.040  20.726 -22.199  0.00  0.00    -0.206 NA
ATOM     18  O   UNL d   1      33.240  20.938 -23.590  0.00  0.00    -0.265 OA
BRANCH  17  19
ATOM     19  C   UNL d   1      33.136  21.543 -22.071  0.00  0.00     0.102 C 
BRANCH  19  20
ATOM     20  C   UNL d   1      32.939  21.874 -21.345  0.00  0.00     0.019 A 
ATOM     21  C   UNL d   1      32.443  22.531 -21.311  0.00  0.00     0.002 A 
ATOM     22  C   UNL d   1      32.248  22.860 -20.580  0.00  0.00     0.000 A 
ATOM     23  C   UNL d   1      32.543  22.541 -19.890  0.00  0.00     0.000 A 
ATOM     24  C   UNL d   1      33.039  21.886 -19.916  0.00  0.00     0.000 A 
ATOM     25  C   UNL d   1      33.238  21.550 -20.644  0.00  0.00     0.002 A 
ENDBRANCH  19  20
ENDBRANCH  17  19
ENDBRANCH   1  16
TORSDOF 3
ENDMDL
MODEL 3
REMARK VINA RESULT:      -0.8      0.913      1.361
REMARK  3 active torsions:
REMARK  status: ('A' for Active; 'I' for Inactive)
REMARK    1  A    between atoms: C_9  and  C_1 
REMARK       I    between atoms: N_12  and  C_9 
REMARK    2  A    between atoms: C_16  and  N_12 
REMARK    3  A    between atoms: C_17  and  C_16 
ROOT
ATOM      1  C   UNL d   1      32.714  18.602 -23.863  0.00  0.00     0.108 A 
ATOM      2  C   UNL d   1      32.794  19.619 -23.014  0.00  0.00     0.044 A 
ATOM      3  C   UNL d   1      32.919  19.921 -23.808  0.00  0.00     0.112 A 
ATOM      4  S   UNL d   1      32.868  19.282 -24.334  0.00  0.00    -0.061 SA
ATOM      5  C   UNL d   1      32.670  18.801 -23.072  0.00  0.00     0.116 A 
ATOM      6  N   UNL d   1      33.055  20.713 -23.919  0.00  0.00    -0.239 NA
ATOM      7  C   UNL d   1      32.955  20.930 -22.510  0.00  0.00     0.057 A 
ATOM      8  C   UNL d   1      32.815  20.127 -22.384  0.00  0.00     0.008 A 
ATOM      9  C   UNL d   1      33.074  21.219 -23.268  0.00  0.00     0.085 A 
ATOM     10  C   UNL d   1      32.973  21.442 -21.857  0.00  0.00     0.197 A 
ATOM     11  N   UNL d   1      32.522  18.257 -22.441  0.00  0.00    -0.147 N 
ATOM     12  O   UNL d   1      32.852  21.148 -21.086  0.00  0.00    -0.286 OA
ATOM     13  C   UNL d   1      33.214  22.028 -23.392  0.00  0.00     0.019 A 
ATOM     14  C   UNL d   1      33.111  22.240 -21.965  0.00  0.00     0.042 A 
ATOM     15  C   UNL d   1      33.235  22.542 -22.758  0.00  0.00     0.005 A 
ENDROOT
BRANCH   1  16
ATOM     16  C   UNL d   1      32.619  17.827 -24.153  0.00  0.00     0.287 C 
ATOM     17  N   UNL d   1      31.878  17.478 -24.083  0.00  0.00    -0.206 NA
ATOM     18  O   UNL d   1      33.235  17.413 -24.500  0.00  0.00    -0.265 OA
BRANCH  17  19
ATOM     19  C   UNL d   1      31.764  16.703 -24.368  0.00  0.00     0.102 C 
BRANCH  19  20
ATOM     20  C   UNL d   1      31.006  16.389 -24.423  0.00  0.00     0.019 A 
ATOM     21  C   UNL d   1      30.508  16.617 -25.038  0.00  0.00     0.002 A 
ATOM     22  C   UNL d   1      29.749  16.299 -25.089  0.00  0.00     0.000 A 
ATOM     23  C   UNL d   1      29.486  15.761 -24.534  0.00  0.00     0.000 A 
ATOM     24  C   UNL d   1      29.977  15.530 -23.918  0.00  0.00     0.000 A 
ATOM     25  C   UNL d   1      30.740  15.844 -23.860  0.00  0.00     0.002 A 
ENDBRANCH  19  20
ENDBRANCH  17  19
ENDBRANCH   1  16
TORSDOF 3
ENDMDL
