MODEL 1
REMARK VINA RESULT:      13.5      0.000      0.000
REMARK  5 active torsions:
REMARK  status: ('A' for Active; 'I' for Inactive)
REMARK    1  A    between atoms: C_7  and  N_1 
REMARK    2  A    between atoms: C_15  and  C_5 
REMARK    3  A    between atoms: C_14  and  C_6 
REMARK    4  A    between atoms: C_8  and  C_7 
REMARK       I    between atoms: N_11  and  C_8 
REMARK    5  A    between atoms: C_13  and  N_11 
ROOT
ATOM      1  N   UNL d   1      46.465 -18.185  43.733  0.00  0.00    -0.235 N 
ATOM      2  C   UNL d   1      46.394 -18.910  44.132  0.00  0.00     0.273 A 
ATOM      3  C   UNL d   1      46.353 -18.156  42.909  0.00  0.00     0.273 A 
ATOM      4  S   UNL d   1      46.103 -19.566  42.899  0.00  0.00    -0.077 SA
ATOM      5  C   UNL d   1      46.172 -18.851  42.500  0.00  0.00     0.086 A 
ATOM      6  C   UNL d   1      46.215 -19.589  43.713  0.00  0.00     0.086 A 
ATOM      7  O   UNL d   1      46.423 -17.437  42.512  0.00  0.00    -0.266 OA
ATOM      8  O   UNL d   1      46.505 -18.942  44.953  0.00  0.00    -0.266 OA
ENDROOT
BRANCH   1   9
ATOM      9  C   UNL d   1      46.646 -17.498  44.157  0.00  0.00     0.148 C 
BRANCH   9  10
ATOM     10  C   UNL d   1      46.064 -16.928  44.280  0.00  0.00     0.297 C 
ATOM     11  N   UNL d   1      46.276 -16.172  44.534  0.00  0.00    -0.207 NA
ATOM     12  O   UNL d   1      45.270 -17.120  44.148  0.00  0.00    -0.264 OA
BRANCH  11  13
ATOM     13  C   UNL d   1      45.693 -15.601  44.657  0.00  0.00     0.085 A 
ATOM     14  C   UNL d   1      44.925 -15.829  44.821  0.00  0.00     0.019 A 
ATOM     15  C   UNL d   1      44.349 -15.256  44.943  0.00  0.00     0.002 A 
ATOM     16  C   UNL d   1      44.535 -14.453  44.903  0.00  0.00     0.000 A 
ATOM     17  C   UNL d   1      45.316 -14.226  44.737  0.00  0.00     0.002 A 
ATOM     18  C   UNL d   1      45.887 -14.800  44.615  0.00  0.00     0.019 A 
ENDBRANCH  11  13
ENDBRANCH   9  10
ENDBRANCH   1   9
BRANCH   6  19
ATOM     19  C   UNL d   1      46.144 -20.316  44.114  0.00  0.00     0.011 C 
ATOM     20  C   UNL d   1      45.995 -20.328  44.926  0.00  0.00     0.001 C 
ENDBRANCH   6  19
BRANCH   5  21
ATOM     21  C   UNL d   1      46.061 -18.820  41.682  0.00  0.00     0.011 C 
ATOM     22  C   UNL d   1      46.604 -19.190  41.179  0.00  0.00     0.001 C 
ENDBRANCH   5  21
TORSDOF 5
ENDMDL
