MODEL 1
REMARK VINA RESULT:      -6.8      0.000      0.000
REMARK  5 active torsions:
REMARK  status: ('A' for Active; 'I' for Inactive)
REMARK    1  A    between atoms: S_3  and  N_1 
REMARK    2  A    between atoms: S_4  and  N_8 
REMARK    3  A    between atoms: C_12  and  C_5 
REMARK    4  A    between atoms: C_9  and  C_6 
REMARK    5  A    between atoms: N_8  and  C_16 
ROOT
ATOM      1  N   UNL d   1     -40.080  14.741  18.354  0.00  0.00    -0.155 N 
ATOM      2  N   UNL d   1     -40.184  14.904  19.162  0.00  0.00    -0.156 NA
ATOM      3  C   UNL d   1     -39.295  14.486  18.249  0.00  0.00     0.096 A 
ATOM      4  C   UNL d   1     -39.472  14.751  19.551  0.00  0.00     0.104 A 
ATOM      5  C   UNL d   1     -38.927  14.494  18.985  0.00  0.00     0.041 A 
ENDROOT
BRANCH   4   6
ATOM      6  C   UNL d   1     -39.331  14.840  20.357  0.00  0.00     0.021 A 
ATOM      7  C   UNL d   1     -39.400  14.191  20.857  0.00  0.00     0.021 A 
ATOM      8  C   UNL d   1     -39.258  14.280  21.669  0.00  0.00     0.093 A 
ATOM      9  C   UNL d   1     -39.045  15.022  21.977  0.00  0.00     0.020 A 
ATOM     10  C   UNL d   1     -38.978  15.670  21.466  0.00  0.00     0.002 A 
ATOM     11  C   UNL d   1     -39.118  15.584  20.662  0.00  0.00     0.002 A 
BRANCH   8  12
ATOM     12  N   UNL d   1     -39.327  13.623  22.177  0.00  0.00    -0.162 NA
BRANCH  12  13
ATOM     13  S   UNL d   1     -38.691  13.393  22.641  0.00  0.00     0.266 S 
ATOM     14  O   UNL d   1     -38.004  12.978  22.863  0.00  0.00    -0.203 OA
ATOM     15  O   UNL d   1     -38.530  12.885  22.005  0.00  0.00    -0.203 OA
ATOM     16  C   UNL d   1     -38.839  13.891  23.276  0.00  0.00     0.165 C 
ENDBRANCH  12  13
ENDBRANCH   8  12
ENDBRANCH   4   6
BRANCH   1  17
ATOM     17  S   UNL d   1     -40.658  14.822  17.768  0.00  0.00     0.266 S 
ATOM     18  O   UNL d   1     -41.292  14.511  17.340  0.00  0.00    -0.203 OA
ATOM     19  O   UNL d   1     -40.602  14.119  18.201  0.00  0.00    -0.203 OA
ATOM     20  C   UNL d   1     -40.659  15.540  17.377  0.00  0.00     0.165 C 
ENDBRANCH   1  17
BRANCH   3  21
ATOM     21  C   UNL d   1     -38.959  14.267  17.535  0.00  0.00     0.018 A 
ATOM     22  C   UNL d   1     -38.650  14.850  17.039  0.00  0.00     0.002 A 
ATOM     23  C   UNL d   1     -38.310  14.636  16.318  0.00  0.00     0.000 A 
ATOM     24  C   UNL d   1     -38.280  13.849  16.096  0.00  0.00     0.000 A 
ATOM     25  C   UNL d   1     -38.592  13.274  16.599  0.00  0.00     0.000 A 
ATOM     26  C   UNL d   1     -37.940  13.636  15.374  0.00  0.00     0.000 C 
ATOM     27  C   UNL d   1     -38.928  13.476  17.309  0.00  0.00     0.002 A 
ENDBRANCH   3  21
TORSDOF 5
ENDMDL
MODEL 2
REMARK VINA RESULT:      -6.2      8.219      9.133
REMARK  5 active torsions:
REMARK  status: ('A' for Active; 'I' for Inactive)
REMARK    1  A    between atoms: S_3  and  N_1 
REMARK    2  A    between atoms: S_4  and  N_8 
REMARK    3  A    between atoms: C_12  and  C_5 
REMARK    4  A    between atoms: C_9  and  C_6 
REMARK    5  A    between atoms: N_8  and  C_16 
ROOT
ATOM      1  N   UNL d   1     -47.580  13.957  22.620  0.00  0.00    -0.155 N 
ATOM      2  N   UNL d   1     -46.756  13.880  22.681  0.00  0.00    -0.156 NA
ATOM      3  C   UNL d   1     -47.886  13.215  22.399  0.00  0.00     0.096 A 
ATOM      4  C   UNL d   1     -46.555  13.100  22.500  0.00  0.00     0.104 A 
ATOM      5  C   UNL d   1     -47.254  12.694  22.327  0.00  0.00     0.041 A 
ENDROOT
BRANCH   4   6
ATOM      6  C   UNL d   1     -45.794  12.784  22.494  0.00  0.00     0.021 A 
ATOM      7  C   UNL d   1     -45.585  12.212  23.044  0.00  0.00     0.021 A 
ATOM      8  C   UNL d   1     -44.820  11.893  23.038  0.00  0.00     0.093 A 
ATOM      9  C   UNL d   1     -44.266  12.152  22.476  0.00  0.00     0.020 A 
ATOM     10  C   UNL d   1     -44.484  12.729  21.924  0.00  0.00     0.002 A 
ATOM     11  C   UNL d   1     -45.241  13.045  21.929  0.00  0.00     0.002 A 
BRANCH   8  12
ATOM     12  N   UNL d   1     -44.607  11.312  23.596  0.00  0.00    -0.162 NA
BRANCH  12  13
ATOM     13  S   UNL d   1     -44.229  10.626  23.352  0.00  0.00     0.266 S 
ATOM     14  O   UNL d   1     -43.619  10.137  23.068  0.00  0.00    -0.203 OA
ATOM     15  O   UNL d   1     -43.584  11.133  23.236  0.00  0.00    -0.203 OA
ATOM     16  C   UNL d   1     -44.862  10.114  23.462  0.00  0.00     0.165 C 
ENDBRANCH  12  13
ENDBRANCH   8  12
ENDBRANCH   4   6
BRANCH   1  17
ATOM     17  S   UNL d   1     -48.012  14.650  22.756  0.00  0.00     0.266 S 
ATOM     18  O   UNL d   1     -48.386  15.169  23.277  0.00  0.00    -0.203 OA
ATOM     19  O   UNL d   1     -47.797  14.163  23.391  0.00  0.00    -0.203 OA
ATOM     20  C   UNL d   1     -48.191  15.085  22.087  0.00  0.00     0.165 C 
ENDBRANCH   1  17
BRANCH   3  21
ATOM     21  C   UNL d   1     -48.678  13.045  22.278  0.00  0.00     0.018 A 
ATOM     22  C   UNL d   1     -48.985  13.074  21.513  0.00  0.00     0.002 A 
ATOM     23  C   UNL d   1     -49.782  12.905  21.383  0.00  0.00     0.000 A 
ATOM     24  C   UNL d   1     -50.266  12.708  22.013  0.00  0.00     0.000 A 
ATOM     25  C   UNL d   1     -49.949  12.681  22.775  0.00  0.00     0.000 A 
ATOM     26  C   UNL d   1     -51.064  12.538  21.883  0.00  0.00     0.000 C 
ATOM     27  C   UNL d   1     -49.168  12.847  22.910  0.00  0.00     0.002 A 
ENDBRANCH   3  21
TORSDOF 5
ENDMDL
MODEL 3
REMARK VINA RESULT:      -5.7      1.153      1.824
REMARK  5 active torsions:
REMARK  status: ('A' for Active; 'I' for Inactive)
REMARK    1  A    between atoms: S_3  and  N_1 
REMARK    2  A    between atoms: S_4  and  N_8 
REMARK    3  A    between atoms: C_12  and  C_5 
REMARK    4  A    between atoms: C_9  and  C_6 
REMARK    5  A    between atoms: N_8  and  C_16 
ROOT
ATOM      1  N   UNL d   1     -39.171  14.116  18.724  0.00  0.00    -0.155 N 
ATOM      2  N   UNL d   1     -38.864  14.021  19.490  0.00  0.00    -0.156 NA
ATOM      3  C   UNL d   1     -39.700  14.758  18.744  0.00  0.00     0.096 A 
ATOM      4  C   UNL d   1     -39.200  14.598  19.976  0.00  0.00     0.104 A 
ATOM      5  C   UNL d   1     -39.714  15.049  19.512  0.00  0.00     0.041 A 
ENDROOT
BRANCH   4   6
ATOM      6  C   UNL d   1     -39.050  14.704  20.779  0.00  0.00     0.021 A 
ATOM      7  C   UNL d   1     -38.574  14.167  21.179  0.00  0.00     0.021 A 
ATOM      8  C   UNL d   1     -38.422  14.273  21.988  0.00  0.00     0.093 A 
ATOM      9  C   UNL d   1     -38.750  14.920  22.392  0.00  0.00     0.020 A 
ATOM     10  C   UNL d   1     -39.229  15.457  21.981  0.00  0.00     0.002 A 
ATOM     11  C   UNL d   1     -39.380  15.353  21.181  0.00  0.00     0.002 A 
BRANCH   8  12
ATOM     12  N   UNL d   1     -37.940  13.729  22.395  0.00  0.00    -0.162 NA
BRANCH  12  13
ATOM     13  S   UNL d   1     -38.219  13.359  23.072  0.00  0.00     0.266 S 
ATOM     14  O   UNL d   1     -38.553  12.763  23.547  0.00  0.00    -0.203 OA
ATOM     15  O   UNL d   1     -38.379  12.733  22.552  0.00  0.00    -0.203 OA
ATOM     16  C   UNL d   1     -38.065  13.971  23.597  0.00  0.00     0.165 C 
ENDBRANCH  12  13
ENDBRANCH   8  12
ENDBRANCH   4   6
BRANCH   1  17
ATOM     17  S   UNL d   1     -38.979  13.652  18.067  0.00  0.00     0.266 S 
ATOM     18  O   UNL d   1     -39.061  12.953  17.636  0.00  0.00    -0.203 OA
ATOM     19  O   UNL d   1     -39.507  13.366  18.636  0.00  0.00    -0.203 OA
ATOM     20  C   UNL d   1     -38.451  13.992  17.543  0.00  0.00     0.165 C 
ENDBRANCH   1  17
BRANCH   3  21
ATOM     21  C   UNL d   1     -40.126  15.041  18.104  0.00  0.00     0.018 A 
ATOM     22  C   UNL d   1     -39.764  15.562  17.576  0.00  0.00     0.002 A 
ATOM     23  C   UNL d   1     -40.187  15.851  16.929  0.00  0.00     0.000 A 
ATOM     24  C   UNL d   1     -40.964  15.620  16.812  0.00  0.00     0.000 A 
ATOM     25  C   UNL d   1     -41.317  15.098  17.346  0.00  0.00     0.000 A 
ATOM     26  C   UNL d   1     -41.388  15.909  16.164  0.00  0.00     0.000 C 
ATOM     27  C   UNL d   1     -40.907  14.811  17.983  0.00  0.00     0.002 A 
ENDBRANCH   3  21
TORSDOF 5
ENDMDL
MODEL 4
REMARK VINA RESULT:      -5.7      1.753      4.738
REMARK  5 active torsions:
REMARK  status: ('A' for Active; 'I' for Inactive)
REMARK    1  A    between atoms: S_3  and  N_1 
REMARK    2  A    between atoms: S_4  and  N_8 
REMARK    3  A    between atoms: C_12  and  C_5 
REMARK    4  A    between atoms: C_9  and  C_6 
REMARK    5  A    between atoms: N_8  and  C_16 
ROOT
ATOM      1  N   UNL d   1     -40.525  14.992  20.166  0.00  0.00    -0.155 N 
ATOM      2  N   UNL d   1     -40.566  15.015  19.336  0.00  0.00    -0.156 NA
ATOM      3  C   UNL d   1     -39.740  15.165  20.383  0.00  0.00     0.096 A 
ATOM      4  C   UNL d   1     -39.816  15.201  19.046  0.00  0.00     0.104 A 
ATOM      5  C   UNL d   1     -39.310  15.292  19.694  0.00  0.00     0.041 A 
ENDROOT
BRANCH   4   6
ATOM      6  C   UNL d   1     -39.608  15.281  18.252  0.00  0.00     0.021 A 
ATOM      7  C   UNL d   1     -38.950  14.885  17.961  0.00  0.00     0.021 A 
ATOM      8  C   UNL d   1     -38.741  14.964  17.163  0.00  0.00     0.093 A 
ATOM      9  C   UNL d   1     -39.196  15.443  16.659  0.00  0.00     0.020 A 
ATOM     10  C   UNL d   1     -39.858  15.839  16.961  0.00  0.00     0.002 A 
ATOM     11  C   UNL d   1     -40.066  15.761  17.750  0.00  0.00     0.002 A 
BRANCH   8  12
ATOM     12  N   UNL d   1     -38.074  14.563  16.866  0.00  0.00    -0.162 NA
BRANCH  12  13
ATOM     13  S   UNL d   1     -38.143  14.087  16.201  0.00  0.00     0.266 S 
ATOM     14  O   UNL d   1     -38.221  13.391  15.751  0.00  0.00    -0.203 OA
ATOM     15  O   UNL d   1     -38.170  13.473  16.757  0.00  0.00    -0.203 OA
ATOM     16  C   UNL d   1     -38.118  14.687  15.640  0.00  0.00     0.165 C 
ENDBRANCH  12  13
ENDBRANCH   8  12
ENDBRANCH   4   6
BRANCH   1  17
ATOM     17  S   UNL d   1     -41.155  14.826  20.675  0.00  0.00     0.266 S 
ATOM     18  O   UNL d   1     -41.648  14.280  21.049  0.00  0.00    -0.203 OA
ATOM     19  O   UNL d   1     -40.747  14.208  20.304  0.00  0.00    -0.203 OA
ATOM     20  C   UNL d   1     -41.515  15.480  21.008  0.00  0.00     0.165 C 
ENDBRANCH   1  17
BRANCH   3  21
ATOM     21  C   UNL d   1     -39.458  15.200  21.151  0.00  0.00     0.018 A 
ATOM     22  C   UNL d   1     -39.133  14.524  21.493  0.00  0.00     0.002 A 
ATOM     23  C   UNL d   1     -38.847  14.552  22.267  0.00  0.00     0.000 A 
ATOM     24  C   UNL d   1     -38.886  15.250  22.693  0.00  0.00     0.000 A 
ATOM     25  C   UNL d   1     -39.212  15.922  22.341  0.00  0.00     0.000 A 
ATOM     26  C   UNL d   1     -38.599  15.278  23.467  0.00  0.00     0.000 C 
ATOM     27  C   UNL d   1     -39.495  15.902  21.582  0.00  0.00     0.002 A 
ENDBRANCH   3  21
TORSDOF 5
ENDMDL
MODEL 5
REMARK VINA RESULT:      -4.7      8.523      9.561
REMARK  5 active torsions:
REMARK  status: ('A' for Active; 'I' for Inactive)
REMARK    1  A    between atoms: S_3  and  N_1 
REMARK    2  A    between atoms: S_4  and  N_8 
REMARK    3  A    between atoms: C_12  and  C_5 
REMARK    4  A    between atoms: C_9  and  C_6 
REMARK    5  A    between atoms: N_8  and  C_16 
ROOT
ATOM      1  N   UNL d   1     -48.579  13.705  22.024  0.00  0.00    -0.155 N 
ATOM      2  N   UNL d   1     -47.808  13.976  21.880  0.00  0.00    -0.156 NA
ATOM      3  C   UNL d   1     -48.524  13.064  22.553  0.00  0.00     0.096 A 
ATOM      4  C   UNL d   1     -47.283  13.509  22.314  0.00  0.00     0.104 A 
ATOM      5  C   UNL d   1     -47.729  12.948  22.727  0.00  0.00     0.041 A 
ENDROOT
BRANCH   4   6
ATOM      6  C   UNL d   1     -46.463  13.587  22.332  0.00  0.00     0.021 A 
ATOM      7  C   UNL d   1     -45.990  13.000  22.007  0.00  0.00     0.021 A 
ATOM      8  C   UNL d   1     -45.165  13.079  22.024  0.00  0.00     0.093 A 
ATOM      9  C   UNL d   1     -44.818  13.749  22.370  0.00  0.00     0.020 A 
ATOM     10  C   UNL d   1     -45.302  14.337  22.696  0.00  0.00     0.002 A 
ATOM     11  C   UNL d   1     -46.119  14.261  22.679  0.00  0.00     0.002 A 
BRANCH   8  12
ATOM     12  N   UNL d   1     -44.684  12.484  21.695  0.00  0.00    -0.162 NA
BRANCH  12  13
ATOM     13  S   UNL d   1     -43.868  12.570  21.692  0.00  0.00     0.266 S 
ATOM     14  O   UNL d   1     -43.114  12.803  21.427  0.00  0.00    -0.203 OA
ATOM     15  O   UNL d   1     -44.005  12.972  20.981  0.00  0.00    -0.203 OA
ATOM     16  C   UNL d   1     -43.719  12.173  22.396  0.00  0.00     0.165 C 
ENDBRANCH  12  13
ENDBRANCH   8  12
ENDBRANCH   4   6
BRANCH   1  17
ATOM     17  S   UNL d   1     -49.270  14.020  21.697  0.00  0.00     0.266 S 
ATOM     18  O   UNL d   1     -49.835  14.036  21.096  0.00  0.00    -0.203 OA
ATOM     19  O   UNL d   1     -48.865  13.414  21.306  0.00  0.00    -0.203 OA
ATOM     20  C   UNL d   1     -49.621  14.616  22.135  0.00  0.00     0.165 C 
ENDBRANCH   1  17
BRANCH   3  21
ATOM     21  C   UNL d   1     -49.158  12.633  22.842  0.00  0.00     0.018 A 
ATOM     22  C   UNL d   1     -49.294  11.872  22.553  0.00  0.00     0.002 A 
ATOM     23  C   UNL d   1     -49.931  11.432  22.840  0.00  0.00     0.000 A 
ATOM     24  C   UNL d   1     -50.425  11.750  23.410  0.00  0.00     0.000 A 
ATOM     25  C   UNL d   1     -50.279  12.512  23.693  0.00  0.00     0.000 A 
ATOM     26  C   UNL d   1     -51.062  11.309  23.697  0.00  0.00     0.000 C 
ATOM     27  C   UNL d   1     -49.657  12.950  23.416  0.00  0.00     0.002 A 
ENDBRANCH   3  21
TORSDOF 5
ENDMDL
MODEL 6
REMARK VINA RESULT:      -4.6      8.979     10.131
REMARK  5 active torsions:
REMARK  status: ('A' for Active; 'I' for Inactive)
REMARK    1  A    between atoms: S_3  and  N_1 
REMARK    2  A    between atoms: S_4  and  N_8 
REMARK    3  A    between atoms: C_12  and  C_5 
REMARK    4  A    between atoms: C_9  and  C_6 
REMARK    5  A    between atoms: N_8  and  C_16 
ROOT
ATOM      1  N   UNL d   1     -46.717  12.965  22.782  0.00  0.00    -0.155 N 
ATOM      2  N   UNL d   1     -47.469  13.317  22.762  0.00  0.00    -0.156 NA
ATOM      3  C   UNL d   1     -46.799  12.222  23.150  0.00  0.00     0.096 A 
ATOM      4  C   UNL d   1     -48.008  12.799  23.113  0.00  0.00     0.104 A 
ATOM      5  C   UNL d   1     -47.590  12.125  23.350  0.00  0.00     0.041 A 
ENDROOT
BRANCH   4   6
ATOM      6  C   UNL d   1     -48.815  12.929  23.209  0.00  0.00     0.021 A 
ATOM      7  C   UNL d   1     -49.087  13.680  23.402  0.00  0.00     0.021 A 
ATOM      8  C   UNL d   1     -49.900  13.812  23.498  0.00  0.00     0.093 A 
ATOM      9  C   UNL d   1     -50.438  13.186  23.400  0.00  0.00     0.020 A 
ATOM     10  C   UNL d   1     -50.156  12.433  23.206  0.00  0.00     0.002 A 
ATOM     11  C   UNL d   1     -49.352  12.300  23.110  0.00  0.00     0.002 A 
BRANCH   8  12
ATOM     12  N   UNL d   1     -50.177  14.572  23.694  0.00  0.00    -0.162 NA
BRANCH  12  13
ATOM     13  S   UNL d   1     -50.363  15.107  23.100  0.00  0.00     0.266 S 
ATOM     14  O   UNL d   1     -50.288  15.772  22.606  0.00  0.00    -0.203 OA
ATOM     15  O   UNL d   1     -49.665  15.481  23.346  0.00  0.00    -0.203 OA
ATOM     16  C   UNL d   1     -51.056  14.746  22.848  0.00  0.00     0.165 C 
ENDBRANCH  12  13
ENDBRANCH   8  12
ENDBRANCH   4   6
BRANCH   1  17
ATOM     17  S   UNL d   1     -46.020  13.298  22.488  0.00  0.00     0.266 S 
ATOM     18  O   UNL d   1     -45.411  13.852  22.547  0.00  0.00    -0.203 OA
ATOM     19  O   UNL d   1     -46.360  13.593  23.183  0.00  0.00    -0.203 OA
ATOM     20  C   UNL d   1     -45.738  12.961  21.798  0.00  0.00     0.165 C 
ENDBRANCH   1  17
BRANCH   3  21
ATOM     21  C   UNL d   1     -46.190  11.690  23.283  0.00  0.00     0.018 A 
ATOM     22  C   UNL d   1     -46.368  10.934  23.561  0.00  0.00     0.002 A 
ATOM     23  C   UNL d   1     -45.760  10.393  23.698  0.00  0.00     0.000 A 
ATOM     24  C   UNL d   1     -44.982  10.607  23.557  0.00  0.00     0.000 A 
ATOM     25  C   UNL d   1     -44.815  11.366  23.279  0.00  0.00     0.000 A 
ATOM     26  C   UNL d   1     -44.374  10.065  23.694  0.00  0.00     0.000 C 
ATOM     27  C   UNL d   1     -45.407  11.902  23.142  0.00  0.00     0.002 A 
ENDBRANCH   3  21
TORSDOF 5
ENDMDL
