MODEL 1
REMARK VINA RESULT:     -10.3      0.000      0.000
REMARK  3 active torsions:
REMARK  status: ('A' for Active; 'I' for Inactive)
REMARK    1  A    between atoms: N_3  and  S_1 
REMARK    2  A    between atoms: C_11  and  S_1 
REMARK    3  A    between atoms: C_2  and  N_3 
ROOT
ATOM      1  C   UNL d   1      53.172  33.396  53.498  0.00  0.00     0.095 A 
ATOM      2  C   UNL d   1      52.811  34.147  53.527  0.00  0.00     0.032 A 
ATOM      3  C   UNL d   1      52.990  34.651  54.136  0.00  0.00     0.098 A 
ATOM      4  C   UNL d   1      53.526  34.427  54.727  0.00  0.00     0.206 A 
ATOM      5  C   UNL d   1      53.878  33.690  54.698  0.00  0.00     0.041 A 
ATOM      6  C   UNL d   1      53.709  33.172  54.093  0.00  0.00     0.023 A 
ATOM      7 CL   UNL d   1      52.630  35.403  54.165  0.00  0.00    -0.079 Cl
ATOM      8  O   UNL d   1      53.688  34.964  55.337  0.00  0.00    -0.286 OA
ATOM      9  C   UNL d   1      52.280  34.388  52.952  0.00  0.00     0.003 C 
ATOM     10  C   UNL d   1      54.417  33.469  55.297  0.00  0.00     0.003 C 
ENDROOT
BRANCH   1  11
ATOM     11  N   UNL d   1      53.000  32.877  52.890  0.00  0.00    -0.158 NA
BRANCH  11  12
ATOM     12  S   UNL d   1      52.979  32.072  53.028  0.00  0.00     0.285 S 
ATOM     13  O   UNL d   1      52.211  32.120  53.315  0.00  0.00    -0.198 OA
ATOM     14  O   UNL d   1      53.764  31.990  52.740  0.00  0.00    -0.198 OA
BRANCH  12  15
ATOM     15  C   UNL d   1      52.969  31.238  53.166  0.00  0.00     0.105 A 
ATOM     16  C   UNL d   1      53.656  30.812  53.253  0.00  0.00     0.013 A 
ATOM     17  C   UNL d   1      53.646  30.002  53.388  0.00  0.00     0.001 A 
ATOM     18  C   UNL d   1      52.918  29.606  53.436  0.00  0.00     0.000 A 
ATOM     19  C   UNL d   1      52.231  30.032  53.349  0.00  0.00     0.001 A 
ATOM     20  C   UNL d   1      52.245  30.846  53.214  0.00  0.00     0.013 A 
ENDBRANCH  12  15
ENDBRANCH  11  12
ENDBRANCH   1  11
TORSDOF 3
ENDMDL
MODEL 2
REMARK VINA RESULT:      -9.2      1.736      3.347
REMARK  3 active torsions:
REMARK  status: ('A' for Active; 'I' for Inactive)
REMARK    1  A    between atoms: N_3  and  S_1 
REMARK    2  A    between atoms: C_11  and  S_1 
REMARK    3  A    between atoms: C_2  and  N_3 
ROOT
ATOM      1  C   UNL d   1      53.146  33.477  53.652  0.00  0.00     0.095 A 
ATOM      2  C   UNL d   1      53.642  33.396  54.317  0.00  0.00     0.032 A 
ATOM      3  C   UNL d   1      53.936  32.665  54.508  0.00  0.00     0.098 A 
ATOM      4  C   UNL d   1      53.748  32.001  54.050  0.00  0.00     0.206 A 
ATOM      5  C   UNL d   1      53.261  32.081  53.398  0.00  0.00     0.041 A 
ATOM      6  C   UNL d   1      52.958  32.809  53.193  0.00  0.00     0.023 A 
ATOM      7 CL   UNL d   1      54.432  32.585  55.173  0.00  0.00    -0.079 Cl
ATOM      8  O   UNL d   1      54.063  31.268  54.271  0.00  0.00    -0.286 OA
ATOM      9  C   UNL d   1      53.839  34.041  54.783  0.00  0.00     0.003 C 
ATOM     10  C   UNL d   1      53.075  31.408  52.940  0.00  0.00     0.003 C 
ENDROOT
BRANCH   1  11
ATOM     11  N   UNL d   1      52.842  34.208  53.448  0.00  0.00    -0.158 NA
BRANCH  11  12
ATOM     12  S   UNL d   1      52.096  34.268  53.119  0.00  0.00     0.285 S 
ATOM     13  O   UNL d   1      51.741  34.144  53.851  0.00  0.00    -0.198 OA
ATOM     14  O   UNL d   1      52.428  34.398  52.359  0.00  0.00    -0.198 OA
BRANCH  12  15
ATOM     15  C   UNL d   1      51.330  34.332  52.769  0.00  0.00     0.105 A 
ATOM     16  C   UNL d   1      51.228  34.331  51.962  0.00  0.00     0.013 A 
ATOM     17  C   UNL d   1      50.483  34.393  51.623  0.00  0.00     0.001 A 
ATOM     18  C   UNL d   1      49.816  34.459  52.112  0.00  0.00     0.000 A 
ATOM     19  C   UNL d   1      49.918  34.460  52.919  0.00  0.00     0.001 A 
ATOM     20  C   UNL d   1      50.668  34.397  53.257  0.00  0.00     0.013 A 
ENDBRANCH  12  15
ENDBRANCH  11  12
ENDBRANCH   1  11
TORSDOF 3
ENDMDL
MODEL 3
REMARK VINA RESULT:      -8.5      1.752      3.674
REMARK  3 active torsions:
REMARK  status: ('A' for Active; 'I' for Inactive)
REMARK    1  A    between atoms: N_3  and  S_1 
REMARK    2  A    between atoms: C_11  and  S_1 
REMARK    3  A    between atoms: C_2  and  N_3 
ROOT
ATOM      1  C   UNL d   1      53.192  31.580  53.265  0.00  0.00     0.095 A 
ATOM      2  C   UNL d   1      52.400  31.343  53.158  0.00  0.00     0.032 A 
ATOM      3  C   UNL d   1      52.202  30.562  53.250  0.00  0.00     0.098 A 
ATOM      4  C   UNL d   1      52.777  30.000  53.448  0.00  0.00     0.206 A 
ATOM      5  C   UNL d   1      53.554  30.233  53.553  0.00  0.00     0.041 A 
ATOM      6  C   UNL d   1      53.769  31.014  53.464  0.00  0.00     0.023 A 
ATOM      7 CL   UNL d   1      51.410  30.326  53.143  0.00  0.00    -0.079 Cl
ATOM      8  O   UNL d   1      52.544  29.210  53.535  0.00  0.00    -0.286 OA
ATOM      9  C   UNL d   1      51.816  31.883  52.962  0.00  0.00     0.003 C 
ATOM     10  C   UNL d   1      54.130  29.663  53.753  0.00  0.00     0.003 C 
ENDROOT
BRANCH   1  11
ATOM     11  N   UNL d   1      53.406  32.364  53.176  0.00  0.00    -0.158 NA
BRANCH  11  12
ATOM     12  S   UNL d   1      53.870  32.732  53.739  0.00  0.00     0.285 S 
ATOM     13  O   UNL d   1      53.224  32.830  54.238  0.00  0.00    -0.198 OA
ATOM     14  O   UNL d   1      54.549  32.647  53.252  0.00  0.00    -0.198 OA
BRANCH  12  15
ATOM     15  C   UNL d   1      54.359  33.111  54.314  0.00  0.00     0.105 A 
ATOM     16  C   UNL d   1      54.138  33.164  55.095  0.00  0.00     0.013 A 
ATOM     17  C   UNL d   1      54.613  33.532  55.653  0.00  0.00     0.001 A 
ATOM     18  C   UNL d   1      55.339  33.859  55.418  0.00  0.00     0.000 A 
ATOM     19  C   UNL d   1      55.561  33.807  54.638  0.00  0.00     0.001 A 
ATOM     20  C   UNL d   1      55.080  33.436  54.079  0.00  0.00     0.013 A 
ENDBRANCH  12  15
ENDBRANCH  11  12
ENDBRANCH   1  11
TORSDOF 3
ENDMDL
MODEL 4
REMARK VINA RESULT:      -8.0      1.666      3.188
REMARK  3 active torsions:
REMARK  status: ('A' for Active; 'I' for Inactive)
REMARK    1  A    between atoms: N_3  and  S_1 
REMARK    2  A    between atoms: C_11  and  S_1 
REMARK    3  A    between atoms: C_2  and  N_3 
ROOT
ATOM      1  C   UNL d   1      52.607  32.884  53.223  0.00  0.00     0.095 A 
ATOM      2  C   UNL d   1      51.900  32.445  53.166  0.00  0.00     0.032 A 
ATOM      3  C   UNL d   1      51.202  32.832  53.023  0.00  0.00     0.098 A 
ATOM      4  C   UNL d   1      51.185  33.655  52.933  0.00  0.00     0.206 A 
ATOM      5  C   UNL d   1      51.878  34.085  52.989  0.00  0.00     0.041 A 
ATOM      6  C   UNL d   1      52.588  33.712  53.132  0.00  0.00     0.023 A 
ATOM      7 CL   UNL d   1      50.496  32.393  52.966  0.00  0.00    -0.079 Cl
ATOM      8  O   UNL d   1      50.456  34.021  52.788  0.00  0.00    -0.286 OA
ATOM      9  C   UNL d   1      51.896  31.631  53.251  0.00  0.00     0.003 C 
ATOM     10  C   UNL d   1      51.855  34.914  52.898  0.00  0.00     0.003 C 
ENDROOT
BRANCH   1  11
ATOM     11  N   UNL d   1      53.318  32.508  53.366  0.00  0.00    -0.158 NA
BRANCH  11  12
ATOM     12  S   UNL d   1      53.859  32.832  53.887  0.00  0.00     0.285 S 
ATOM     13  O   UNL d   1      53.429  32.563  54.534  0.00  0.00    -0.198 OA
ATOM     14  O   UNL d   1      54.320  33.120  53.246  0.00  0.00    -0.198 OA
BRANCH  12  15
ATOM     15  C   UNL d   1      54.424  33.171  54.415  0.00  0.00     0.105 A 
ATOM     16  C   UNL d   1      54.300  33.190  55.219  0.00  0.00     0.013 A 
ATOM     17  C   UNL d   1      54.850  33.519  55.731  0.00  0.00     0.001 A 
ATOM     18  C   UNL d   1      55.551  33.843  55.425  0.00  0.00     0.000 A 
ATOM     19  C   UNL d   1      55.675  33.825  54.622  0.00  0.00     0.001 A 
ATOM     20  C   UNL d   1      55.120  33.492  54.109  0.00  0.00     0.013 A 
ENDBRANCH  12  15
ENDBRANCH  11  12
ENDBRANCH   1  11
TORSDOF 3
ENDMDL
