MODEL 1
REMARK VINA RESULT:      -3.1      0.000      0.000
REMARK  3 active torsions:
REMARK  status: ('A' for Active; 'I' for Inactive)
REMARK       I    between atoms: C_3  and  N_1 
REMARK    1  A    between atoms: C_6  and  C_3 
REMARK    2  A    between atoms: O_9  and  C_6 
REMARK    3  A    between atoms: C_10  and  O_9 
ROOT
ATOM      1  N   UNL d   1     -41.223-121.629 -51.317  0.00  0.00    -0.272 N 
ATOM      2  C   UNL d   1     -41.319-122.408 -51.054  0.00  0.00     0.067 A 
ATOM      3  C   UNL d   1     -41.227-121.371 -52.108  0.00  0.00     0.290 C 
ATOM      4  C   UNL d   1     -41.123-121.156 -50.679  0.00  0.00     0.083 A 
ATOM      5  C   UNL d   1     -41.277-122.407 -50.240  0.00  0.00     0.018 A 
ATOM      6  O   UNL d   1     -41.123-120.572 -52.272  0.00  0.00    -0.264 OA
ATOM      7  C   UNL d   1     -41.154-121.632 -49.993  0.00  0.00     0.021 A 
ATOM      8  C   UNL d   1     -41.440-123.116 -51.447  0.00  0.00     0.018 A 
ATOM      9  C   UNL d   1     -41.355-123.111 -49.813  0.00  0.00     0.002 A 
ATOM     10  C   UNL d   1     -41.518-123.814 -51.038  0.00  0.00     0.002 A 
ATOM     11  C   UNL d   1     -41.474-123.809 -50.204  0.00  0.00     0.000 A 
ENDROOT
BRANCH   3  12
ATOM     12  C   UNL d   1     -41.337-121.921 -52.713  0.00  0.00     0.184 C 
BRANCH  12  13
ATOM     13  O   UNL d   1     -41.161-121.703 -53.495  0.00  0.00    -0.300 OA
BRANCH  13  14
ATOM     14  C   UNL d   1     -41.514-122.101 -54.120  0.00  0.00     0.100 A 
ATOM     15  C   UNL d   1     -41.189-122.816 -54.392  0.00  0.00     0.025 A 
ATOM     16  C   UNL d   1     -41.539-123.217 -55.016  0.00  0.00     0.002 A 
ATOM     17  C   UNL d   1     -42.215-122.909 -55.375  0.00  0.00     0.000 A 
ATOM     18  C   UNL d   1     -42.551-122.196 -55.116  0.00  0.00     0.002 A 
ATOM     19  C   UNL d   1     -42.187-121.794 -54.479  0.00  0.00     0.025 A 
ENDBRANCH  13  14
ENDBRANCH  12  13
ENDBRANCH   3  12
TORSDOF 3
ENDMDL
MODEL 2
REMARK VINA RESULT:      -2.8      0.993      3.774
REMARK  3 active torsions:
REMARK  status: ('A' for Active; 'I' for Inactive)
REMARK       I    between atoms: C_3  and  N_1 
REMARK    1  A    between atoms: C_6  and  C_3 
REMARK    2  A    between atoms: O_9  and  C_6 
REMARK    3  A    between atoms: C_10  and  O_9 
ROOT
ATOM      1  N   UNL d   1     -41.699-121.737 -53.244  0.00  0.00    -0.272 N 
ATOM      2  C   UNL d   1     -41.508-122.460 -53.597  0.00  0.00     0.067 A 
ATOM      3  C   UNL d   1     -41.713-121.574 -52.428  0.00  0.00     0.290 C 
ATOM      4  C   UNL d   1     -41.871-121.210 -53.821  0.00  0.00     0.083 A 
ATOM      5  C   UNL d   1     -41.565-122.370 -54.405  0.00  0.00     0.018 A 
ATOM      6  O   UNL d   1     -41.916-120.820 -52.170  0.00  0.00    -0.264 OA
ATOM      7  C   UNL d   1     -41.791-121.594 -54.559  0.00  0.00     0.021 A 
ATOM      8  C   UNL d   1     -41.290-123.187 -53.291  0.00  0.00     0.018 A 
ATOM      9  C   UNL d   1     -41.406-123.003 -54.912  0.00  0.00     0.002 A 
ATOM     10  C   UNL d   1     -41.131-123.817 -53.780  0.00  0.00     0.002 A 
ATOM     11  C   UNL d   1     -41.191-123.721 -54.607  0.00  0.00     0.000 A 
ENDROOT
BRANCH   3  12
ATOM     12  C   UNL d   1     -41.523-122.172 -51.893  0.00  0.00     0.184 C 
BRANCH  12  13
ATOM     13  O   UNL d   1     -41.403-121.977 -51.093  0.00  0.00    -0.300 OA
BRANCH  13  14
ATOM     14  C   UNL d   1     -41.629-122.503 -50.506  0.00  0.00     0.100 A 
ATOM     15  C   UNL d   1     -41.124-123.128 -50.292  0.00  0.00     0.025 A 
ATOM     16  C   UNL d   1     -41.347-123.656 -49.705  0.00  0.00     0.002 A 
ATOM     17  C   UNL d   1     -42.075-123.566 -49.326  0.00  0.00     0.000 A 
ATOM     18  C   UNL d   1     -42.590-122.948 -49.528  0.00  0.00     0.002 A 
ATOM     19  C   UNL d   1     -42.355-122.414 -50.128  0.00  0.00     0.025 A 
ENDBRANCH  13  14
ENDBRANCH  12  13
ENDBRANCH   3  12
TORSDOF 3
ENDMDL
