MODEL 1
REMARK VINA RESULT:      -3.1      0.000      0.000
REMARK  4 active torsions:
REMARK  status: ('A' for Active; 'I' for Inactive)
REMARK    1  A    between atoms: C_2  and  S_1 
REMARK    2  A    between atoms: N_3  and  S_1 
REMARK    3  A    between atoms: C_10  and  N_3 
REMARK    4  A    between atoms: C_5  and  C_10 
ROOT
ATOM      1  S   UNL d   1      32.743  18.547 -23.173  0.00  0.00     0.285 S 
ATOM      2  O   UNL d   1      32.517  18.871 -23.892  0.00  0.00    -0.198 OA
ATOM      3  O   UNL d   1      32.975  18.210 -22.433  0.00  0.00    -0.198 OA
ENDROOT
BRANCH   1   4
ATOM      4  C   UNL d   1      32.602  17.763 -23.483  0.00  0.00     0.105 A 
ATOM      5  C   UNL d   1      31.831  17.464 -23.526  0.00  0.00     0.013 A 
ATOM      6  C   UNL d   1      31.703  16.709 -23.825  0.00  0.00     0.001 A 
ATOM      7  C   UNL d   1      30.915  16.415 -23.864  0.00  0.00     0.000 C 
ATOM      8  C   UNL d   1      32.337  16.252 -24.081  0.00  0.00     0.000 A 
ATOM      9  C   UNL d   1      33.099  16.554 -24.035  0.00  0.00     0.001 A 
ATOM     10  C   UNL d   1      32.199  15.471 -24.389  0.00  0.00     0.000 C 
ATOM     11  C   UNL d   1      33.238  17.310 -23.737  0.00  0.00     0.013 A 
ENDBRANCH   1   4
BRANCH   1  12
ATOM     12  N   UNL d   1      32.882  19.322 -22.868  0.00  0.00    -0.155 NA
BRANCH  12  13
ATOM     13  C   UNL d   1      33.007  19.578 -22.107  0.00  0.00     0.137 C 
BRANCH  13  14
ATOM     14  C   UNL d   1      32.967  20.386 -21.931  0.00  0.00     0.120 A 
ATOM     15  O   UNL d   1      33.237  21.038 -22.413  0.00  0.00    -0.304 OA
ATOM     16  C   UNL d   1      33.070  21.727 -21.987  0.00  0.00     0.123 A 
ATOM     17  C   UNL d   1      32.702  21.499 -21.251  0.00  0.00     0.029 A 
ATOM     18  C   UNL d   1      32.658  20.688 -21.255  0.00  0.00     0.028 A 
ENDBRANCH  13  14
ENDBRANCH  12  13
ENDBRANCH   1  12
TORSDOF 4
ENDMDL
MODEL 2
REMARK VINA RESULT:      -2.6      3.680      5.254
REMARK  4 active torsions:
REMARK  status: ('A' for Active; 'I' for Inactive)
REMARK    1  A    between atoms: C_2  and  S_1 
REMARK    2  A    between atoms: N_3  and  S_1 
REMARK    3  A    between atoms: C_10  and  N_3 
REMARK    4  A    between atoms: C_5  and  C_10 
ROOT
ATOM      1  S   UNL d   1      32.736  22.284 -19.893  0.00  0.00     0.285 S 
ATOM      2  O   UNL d   1      33.241  21.685 -19.650  0.00  0.00    -0.198 OA
ATOM      3  O   UNL d   1      32.216  22.901 -20.147  0.00  0.00    -0.198 OA
ENDROOT
BRANCH   1   4
ATOM      4  C   UNL d   1      32.845  22.046 -20.706  0.00  0.00     0.105 A 
ATOM      5  C   UNL d   1      32.811  21.245 -20.914  0.00  0.00     0.013 A 
ATOM      6  C   UNL d   1      32.918  21.024 -21.699  0.00  0.00     0.001 A 
ATOM      7  C   UNL d   1      32.881  20.206 -21.900  0.00  0.00     0.000 C 
ATOM      8  C   UNL d   1      33.057  21.593 -22.275  0.00  0.00     0.000 A 
ATOM      9  C   UNL d   1      33.090  22.385 -22.062  0.00  0.00     0.001 A 
ATOM     10  C   UNL d   1      33.167  21.358 -23.085  0.00  0.00     0.000 C 
ATOM     11  C   UNL d   1      32.984  22.618 -21.278  0.00  0.00     0.013 A 
ENDBRANCH   1   4
BRANCH   1  12
ATOM     12  N   UNL d   1      32.628  22.519 -19.088  0.00  0.00    -0.155 NA
BRANCH  12  13
ATOM     13  C   UNL d   1      32.948  23.137 -18.669  0.00  0.00     0.137 C 
BRANCH  13  14
ATOM     14  C   UNL d   1      32.976  23.104 -17.842  0.00  0.00     0.120 A 
ATOM     15  O   UNL d   1      33.238  22.454 -17.355  0.00  0.00    -0.304 OA
ATOM     16  C   UNL d   1      33.156  22.701 -16.571  0.00  0.00     0.123 A 
ATOM     17  C   UNL d   1      32.846  23.497 -16.577  0.00  0.00     0.029 A 
ATOM     18  C   UNL d   1      32.751  23.702 -17.357  0.00  0.00     0.028 A 
ENDBRANCH  13  14
ENDBRANCH  12  13
ENDBRANCH   1  12
TORSDOF 4
ENDMDL
MODEL 3
REMARK VINA RESULT:      -2.5      1.461      5.020
REMARK  4 active torsions:
REMARK  status: ('A' for Active; 'I' for Inactive)
REMARK    1  A    between atoms: C_2  and  S_1 
REMARK    2  A    between atoms: N_3  and  S_1 
REMARK    3  A    between atoms: C_10  and  N_3 
REMARK    4  A    between atoms: C_5  and  C_10 
ROOT
ATOM      1  S   UNL d   1      33.132  20.844 -21.876  0.00  0.00     0.285 S 
ATOM      2  O   UNL d   1      33.114  20.400 -21.186  0.00  0.00    -0.198 OA
ATOM      3  O   UNL d   1      33.151  21.304 -22.585  0.00  0.00    -0.198 OA
ENDROOT
BRANCH   1   4
ATOM      4  C   UNL d   1      33.024  21.557 -21.419  0.00  0.00     0.105 A 
ATOM      5  C   UNL d   1      33.179  21.559 -20.605  0.00  0.00     0.013 A 
ATOM      6  C   UNL d   1      33.072  22.250 -20.172  0.00  0.00     0.001 A 
ATOM      7  C   UNL d   1      33.233  22.241 -19.346  0.00  0.00     0.000 C 
ATOM      8  C   UNL d   1      32.813  22.936 -20.543  0.00  0.00     0.000 A 
ATOM      9  C   UNL d   1      32.660  22.928 -21.350  0.00  0.00     0.001 A 
ATOM     10  C   UNL d   1      32.704  23.648 -20.090  0.00  0.00     0.000 C 
ATOM     11  C   UNL d   1      32.764  22.240 -21.793  0.00  0.00     0.013 A 
ENDBRANCH   1   4
BRANCH   1  12
ATOM     12  N   UNL d   1      33.240  20.137 -22.327  0.00  0.00    -0.155 NA
BRANCH  12  13
ATOM     13  C   UNL d   1      32.862  19.419 -22.285  0.00  0.00     0.137 C 
BRANCH  13  14
ATOM     14  C   UNL d   1      32.968  18.861 -22.887  0.00  0.00     0.120 A 
ATOM     15  O   UNL d   1      32.874  18.978 -23.728  0.00  0.00    -0.304 OA
ATOM     16  C   UNL d   1      33.044  18.252 -24.085  0.00  0.00     0.123 A 
ATOM     17  C   UNL d   1      33.241  17.695 -23.468  0.00  0.00     0.029 A 
ATOM     18  C   UNL d   1      33.184  18.098 -22.765  0.00  0.00     0.028 A 
ENDBRANCH  13  14
ENDBRANCH  12  13
ENDBRANCH   1  12
TORSDOF 4
ENDMDL
MODEL 4
REMARK VINA RESULT:      -1.5      5.050      6.676
REMARK  4 active torsions:
REMARK  status: ('A' for Active; 'I' for Inactive)
REMARK    1  A    between atoms: C_2  and  S_1 
REMARK    2  A    between atoms: N_3  and  S_1 
REMARK    3  A    between atoms: C_10  and  N_3 
REMARK    4  A    between atoms: C_5  and  C_10 
ROOT
ATOM      1  S   UNL d   1      32.832  22.991 -19.597  0.00  0.00     0.285 S 
ATOM      2  O   UNL d   1      33.241  23.702 -19.597  0.00  0.00    -0.198 OA
ATOM      3  O   UNL d   1      32.410  22.258 -19.593  0.00  0.00    -0.198 OA
ENDROOT
BRANCH   1   4
ATOM      4  C   UNL d   1      32.804  23.008 -18.743  0.00  0.00     0.105 A 
ATOM      5  C   UNL d   1      33.034  22.343 -18.306  0.00  0.00     0.013 A 
ATOM      6  C   UNL d   1      33.005  22.367 -17.484  0.00  0.00     0.001 A 
ATOM      7  C   UNL d   1      33.241  21.685 -17.049  0.00  0.00     0.000 C 
ATOM      8  C   UNL d   1      32.749  23.045 -17.098  0.00  0.00     0.000 A 
ATOM      9  C   UNL d   1      32.523  23.701 -17.537  0.00  0.00     0.001 A 
ATOM     10  C   UNL d   1      32.721  23.063 -16.248  0.00  0.00     0.000 C 
ATOM     11  C   UNL d   1      32.548  23.688 -18.361  0.00  0.00     0.013 A 
ENDBRANCH   1   4
BRANCH   1  12
ATOM     12  N   UNL d   1      32.859  22.976 -20.441  0.00  0.00    -0.155 NA
BRANCH  12  13
ATOM     13  C   UNL d   1      32.262  22.986 -20.992  0.00  0.00     0.137 C 
BRANCH  13  14
ATOM     14  C   UNL d   1      32.439  23.104 -21.791  0.00  0.00     0.120 A 
ATOM     15  O   UNL d   1      33.047  22.720 -22.252  0.00  0.00    -0.304 OA
ATOM     16  C   UNL d   1      32.993  23.032 -23.016  0.00  0.00     0.123 A 
ATOM     17  C   UNL d   1      32.357  23.602 -23.023  0.00  0.00     0.029 A 
ATOM     18  C   UNL d   1      32.050  23.616 -22.271  0.00  0.00     0.028 A 
ENDBRANCH  13  14
ENDBRANCH  12  13
ENDBRANCH   1  12
TORSDOF 4
ENDMDL
