MODEL 1
REMARK VINA RESULT:      98.4      0.000      0.000
REMARK  4 active torsions:
REMARK  status: ('A' for Active; 'I' for Inactive)
REMARK    1  A    between atoms: C_15  and  N_5 
REMARK    2  A    between atoms: N_13  and  C_7 
REMARK    3  A    between atoms: C_18  and  N_13 
REMARK    4  A    between atoms: C_16  and  C_15 
ROOT
ATOM      1  N   UNL d   1      59.694  48.596  50.814  0.00  0.00     0.039 N 
ATOM      2  C   UNL d   1      60.045  49.159  51.302  0.00  0.00     0.755 A 
ATOM      3  C   UNL d   1      60.122  47.972  50.511  0.00  0.00     0.134 A 
ATOM      4  C   UNL d   1      60.927  47.896  50.694  0.00  0.00     0.081 A 
ATOM      5  N   UNL d   1      60.852  49.084  51.487  0.00  0.00    -0.103 N 
ATOM      6  C   UNL d   1      61.292  48.452  51.182  0.00  0.00     0.281 A 
ATOM      7  C   UNL d   1      58.905  48.808  50.729  0.00  0.00     0.768 A 
ATOM      8  N   UNL d   1      59.478  49.707  51.513  0.00  0.00     0.060 NA
ATOM      9  S   UNL d   1      59.918  47.344  50.021  0.00  0.00    -0.068 SA
ATOM     10  N   UNL d   1      58.771  49.492  51.159  0.00  0.00     0.061 NA
ATOM     11  C   UNL d   1      61.217  47.222  50.317  0.00  0.00     0.013 A 
ATOM     12  C   UNL d   1      60.592  46.881  49.901  0.00  0.00     0.031 A 
ATOM     13  O   UNL d   1      62.095  48.376  51.364  0.00  0.00    -0.266 OA
ATOM     14  C   UNL d   1      61.962  46.877  50.297  0.00  0.00     0.001 A 
ATOM     15  C   UNL d   1      60.708  46.191  49.461  0.00  0.00     0.006 A 
ATOM     16  C   UNL d   1      62.084  46.190  49.862  0.00  0.00     0.000 A 
ATOM     17  C   UNL d   1      61.454  45.845  49.442  0.00  0.00     0.001 A 
ENDROOT
BRANCH   7  18
ATOM     18  N   UNL d   1      58.339  48.397  50.283  0.00  0.00    -0.059 NA
BRANCH  18  19
ATOM     19  C   UNL d   1      57.606  48.748  50.111  0.00  0.00     0.100 A 
ATOM     20  C   UNL d   1      57.499  49.130  49.382  0.00  0.00     0.020 A 
ATOM     21  C   UNL d   1      56.772  49.482  49.204  0.00  0.00     0.002 A 
ATOM     22  C   UNL d   1      56.155  49.447  49.758  0.00  0.00     0.000 A 
ATOM     23  C   UNL d   1      56.265  49.063  50.488  0.00  0.00     0.002 A 
ATOM     24  C   UNL d   1      56.998  48.713  50.660  0.00  0.00     0.020 A 
ENDBRANCH  18  19
ENDBRANCH   7  18
BRANCH   5  25
ATOM     25  C   UNL d   1      61.214  49.639  51.973  0.00  0.00     0.101 C 
BRANCH  25  26
ATOM     26  C   UNL d   1      61.475  49.426  52.724  0.00  0.00     0.020 C 
ATOM     27  C   UNL d   1      62.194  49.703  53.013  0.00  0.00     0.002 C 
ENDBRANCH  25  26
ENDBRANCH   5  25
TORSDOF 4
ENDMDL
MODEL 2
REMARK VINA RESULT:      98.6      1.061      2.750
REMARK  4 active torsions:
REMARK  status: ('A' for Active; 'I' for Inactive)
REMARK    1  A    between atoms: C_15  and  N_5 
REMARK    2  A    between atoms: N_13  and  C_7 
REMARK    3  A    between atoms: C_18  and  N_13 
REMARK    4  A    between atoms: C_16  and  C_15 
ROOT
ATOM      1  N   UNL d   1      60.148  48.880  50.359  0.00  0.00     0.039 N 
ATOM      2  C   UNL d   1      60.540  48.380  49.835  0.00  0.00     0.755 A 
ATOM      3  C   UNL d   1      60.430  49.008  51.114  0.00  0.00     0.134 A 
ATOM      4  C   UNL d   1      61.122  48.629  51.365  0.00  0.00     0.081 A 
ATOM      5  N   UNL d   1      61.235  47.999  50.086  0.00  0.00    -0.103 N 
ATOM      6  C   UNL d   1      61.525  48.125  50.851  0.00  0.00     0.281 A 
ATOM      7  C   UNL d   1      59.489  49.174  49.966  0.00  0.00     0.768 A 
ATOM      8  N   UNL d   1      60.126  48.368  49.132  0.00  0.00     0.060 NA
ATOM      9  S   UNL d   1      60.157  49.468  51.738  0.00  0.00    -0.068 SA
ATOM     10  N   UNL d   1      59.475  48.859  49.210  0.00  0.00     0.061 NA
ATOM     11  C   UNL d   1      61.275  48.857  52.143  0.00  0.00     0.013 A 
ATOM     12  C   UNL d   1      60.678  49.376  52.374  0.00  0.00     0.031 A 
ATOM     13  O   UNL d   1      62.217  47.748  51.103  0.00  0.00    -0.266 OA
ATOM     14  C   UNL d   1      61.876  48.661  52.669  0.00  0.00     0.001 A 
ATOM     15  C   UNL d   1      60.675  49.704  53.131  0.00  0.00     0.006 A 
ATOM     16  C   UNL d   1      61.880  48.984  53.425  0.00  0.00     0.000 A 
ATOM     17  C   UNL d   1      61.276  49.508  53.658  0.00  0.00     0.001 A 
ENDROOT
BRANCH   7  18
ATOM     18  N   UNL d   1      58.932  49.702  50.283  0.00  0.00    -0.059 NA
BRANCH  18  19
ATOM     19  C   UNL d   1      58.134  49.651  50.061  0.00  0.00     0.100 A 
ATOM     20  C   UNL d   1      57.554  49.560  50.647  0.00  0.00     0.020 A 
ATOM     21  C   UNL d   1      56.756  49.508  50.433  0.00  0.00     0.002 A 
ATOM     22  C   UNL d   1      56.545  49.548  49.632  0.00  0.00     0.000 A 
ATOM     23  C   UNL d   1      57.129  49.639  49.046  0.00  0.00     0.002 A 
ATOM     24  C   UNL d   1      57.928  49.690  49.268  0.00  0.00     0.020 A 
ENDBRANCH  18  19
ENDBRANCH   7  18
BRANCH   5  25
ATOM     25  C   UNL d   1      61.635  47.498  49.573  0.00  0.00     0.101 C 
BRANCH  25  26
ATOM     26  C   UNL d   1      61.573  46.681  49.658  0.00  0.00     0.020 C 
ATOM     27  C   UNL d   1      62.013  46.175  49.180  0.00  0.00     0.002 C 
ENDBRANCH  25  26
ENDBRANCH   5  25
TORSDOF 4
ENDMDL
