MODEL 1
REMARK VINA RESULT:      36.8      0.000      0.000
REMARK  4 active torsions:
REMARK  status: ('A' for Active; 'I' for Inactive)
REMARK    1  A    between atoms: N_7  and  C_1 
REMARK    2  A    between atoms: C_8  and  C_2 
REMARK    3  A    between atoms: C_11  and  N_7 
REMARK    4  A    between atoms: C_19  and  C_12 
ROOT
ATOM      1  C   UNL d   1     -51.198  25.265  33.734  0.00  0.00     0.189 A 
ATOM      2  C   UNL d   1     -50.639  25.862  33.628  0.00  0.00     0.119 A 
ATOM      3  C   UNL d   1     -49.865  25.668  33.413  0.00  0.00     0.204 A 
ATOM      4  O   UNL d   1     -50.982  24.476  33.625  0.00  0.00    -0.289 OA
ATOM      5  C   UNL d   1     -49.655  24.884  33.306  0.00  0.00     0.067 A 
ATOM      6  C   UNL d   1     -50.214  24.287  33.412  0.00  0.00     0.105 A 
ATOM      7  O   UNL d   1     -49.304  26.268  33.307  0.00  0.00    -0.286 OA
ATOM      8  C   UNL d   1     -50.014  23.482  33.306  0.00  0.00     0.027 C 
ENDROOT
BRANCH   1   9
ATOM      9  N   UNL d   1     -52.000  25.455  33.955  0.00  0.00    -0.222 NA
BRANCH   9  10
ATOM     10  C   UNL d   1     -52.594  24.893  33.895  0.00  0.00     0.084 A 
ATOM     11  C   UNL d   1     -52.573  24.209  34.364  0.00  0.00     0.019 A 
ATOM     12  C   UNL d   1     -53.171  23.644  34.302  0.00  0.00     0.002 A 
ATOM     13  C   UNL d   1     -53.793  23.759  33.772  0.00  0.00     0.000 A 
ATOM     14  C   UNL d   1     -53.816  24.433  33.308  0.00  0.00     0.002 A 
ATOM     15  C   UNL d   1     -53.218  24.999  33.369  0.00  0.00     0.019 A 
BRANCH  13  16
ATOM     16  C   UNL d   1     -54.393  23.191  33.711  0.00  0.00     0.000 C 
ATOM     17  C   UNL d   1     -55.095  23.375  33.332  0.00  0.00     0.000 C 
ENDBRANCH  13  16
ENDBRANCH   9  10
ENDBRANCH   1   9
BRANCH   2  18
ATOM     18  C   UNL d   1     -50.868  26.665  33.741  0.00  0.00     0.202 C 
ATOM     19  O   UNL d   1     -51.554  26.945  33.372  0.00  0.00    -0.286 OA
ATOM     20  C   UNL d   1     -50.420  27.165  34.209  0.00  0.00     0.046 C 
ENDBRANCH   2  18
TORSDOF 4
ENDMDL
