MODEL 1
REMARK VINA RESULT:      -2.7      0.000      0.000
REMARK  6 active torsions:
REMARK  status: ('A' for Active; 'I' for Inactive)
REMARK    1  A    between atoms: C_9  and  N_1 
REMARK    2  A    between atoms: S_11  and  C_6 
REMARK    3  A    between atoms: C_24  and  S_11 
REMARK    4  A    between atoms: C_13  and  C_24 
REMARK       I    between atoms: N_18  and  C_13 
REMARK    5  A    between atoms: C_26  and  N_18 
REMARK    6  A    between atoms: C_25  and  C_26 
ROOT
ATOM      1  N   UNL d   1      32.725  22.175 -21.424  0.00  0.00    -0.212 N 
ATOM      2  C   UNL d   1      32.894  21.371 -21.444  0.00  0.00     0.169 A 
ATOM      3  N   UNL d   1      32.704  22.458 -22.183  0.00  0.00    -0.162 NA
ATOM      4  C   UNL d   1      32.979  21.154 -22.236  0.00  0.00     0.081 A 
ATOM      5  C   UNL d   1      32.862  21.826 -22.695  0.00  0.00     0.126 A 
ATOM      6  C   UNL d   1      33.151  20.375 -22.433  0.00  0.00     0.117 A 
ATOM      7  N   UNL d   1      32.981  20.809 -20.850  0.00  0.00    -0.205 NA
ATOM      8  N   UNL d   1      33.239  19.809 -21.839  0.00  0.00    -0.217 NA
ATOM      9  C   UNL d   1      33.154  20.027 -21.047  0.00  0.00     0.201 A 
ENDROOT
BRANCH   6  10
ATOM     10  S   UNL d   1      33.237  20.158 -23.224  0.00  0.00    -0.062 SA
BRANCH  10  11
ATOM     11  C   UNL d   1      33.077  19.393 -23.457  0.00  0.00     0.099 C 
BRANCH  11  12
ATOM     12  C   UNL d   1      32.936  19.225 -24.252  0.00  0.00     0.286 C 
ATOM     13  N   UNL d   1      32.538  18.533 -24.463  0.00  0.00    -0.206 NA
ATOM     14  O   UNL d   1      33.193  19.747 -24.837  0.00  0.00    -0.265 OA
BRANCH  13  15
ATOM     15  C   UNL d   1      32.281  18.010 -23.878  0.00  0.00     0.102 C 
BRANCH  15  16
ATOM     16  C   UNL d   1      31.793  17.375 -24.079  0.00  0.00     0.021 A 
ATOM     17  C   UNL d   1      30.997  17.505 -24.253  0.00  0.00     0.028 A 
ATOM     18  C   UNL d   1      30.510  16.870 -24.453  0.00  0.00     0.119 A 
ATOM     19  O   UNL d   1      29.706  16.836 -24.652  0.00  0.00    -0.300 OA
ATOM     20  C   UNL d   1      30.817  16.104 -24.478  0.00  0.00     0.119 A 
ATOM     21  C   UNL d   1      29.525  16.054 -24.797  0.00  0.00     0.304 A 
ATOM     22  O   UNL d   1      30.197  15.601 -24.693  0.00  0.00    -0.300 OA
ATOM     23  C   UNL d   1      31.613  15.974 -24.304  0.00  0.00     0.026 A 
ATOM     24  C   UNL d   1      32.101  16.609 -24.103  0.00  0.00     0.004 A 
ENDBRANCH  15  16
ENDBRANCH  13  15
ENDBRANCH  11  12
ENDBRANCH  10  11
ENDBRANCH   6  10
BRANCH   1  25
ATOM     25  C   UNL d   1      32.608  22.557 -20.696  0.00  0.00     0.085 A 
ATOM     26  C   UNL d   1      33.228  22.968 -20.345  0.00  0.00     0.020 A 
ATOM     27  C   UNL d   1      33.115  23.345 -19.628  0.00  0.00     0.013 A 
ATOM     28  C   UNL d   1      32.371  23.313 -19.253  0.00  0.00     0.058 A 
ATOM     29  C   UNL d   1      31.757  22.896 -19.617  0.00  0.00     0.013 A 
ATOM     30 CL   UNL d   1      32.247  23.696 -18.518  0.00  0.00    -0.082 Cl
ATOM     31  C   UNL d   1      31.877  22.523 -20.332  0.00  0.00     0.020 A 
ENDBRANCH   1  25
TORSDOF 6
ENDMDL
MODEL 2
REMARK VINA RESULT:      -2.1      2.743      6.216
REMARK  6 active torsions:
REMARK  status: ('A' for Active; 'I' for Inactive)
REMARK    1  A    between atoms: C_9  and  N_1 
REMARK    2  A    between atoms: S_11  and  C_6 
REMARK    3  A    between atoms: C_24  and  S_11 
REMARK    4  A    between atoms: C_13  and  C_24 
REMARK       I    between atoms: N_18  and  C_13 
REMARK    5  A    between atoms: C_26  and  N_18 
REMARK    6  A    between atoms: C_25  and  C_26 
ROOT
ATOM      1  N   UNL d   1      29.641  17.097 -24.285  0.00  0.00    -0.212 N 
ATOM      2  C   UNL d   1      30.368  16.895 -23.962  0.00  0.00     0.169 A 
ATOM      3  N   UNL d   1      29.744  17.711 -24.802  0.00  0.00    -0.162 NA
ATOM      4  C   UNL d   1      30.934  17.398 -24.289  0.00  0.00     0.081 A 
ATOM      5  C   UNL d   1      30.549  17.905 -24.810  0.00  0.00     0.126 A 
ATOM      6  C   UNL d   1      31.723  17.329 -24.070  0.00  0.00     0.117 A 
ATOM      7  N   UNL d   1      30.592  16.323 -23.415  0.00  0.00    -0.205 NA
ATOM      8  N   UNL d   1      31.950  16.756 -23.521  0.00  0.00    -0.217 NA
ATOM      9  C   UNL d   1      31.384  16.253 -23.194  0.00  0.00     0.201 A 
ENDROOT
BRANCH   6  10
ATOM     10  S   UNL d   1      32.289  17.833 -24.397  0.00  0.00    -0.062 SA
BRANCH  10  11
ATOM     11  C   UNL d   1      32.730  18.320 -23.914  0.00  0.00     0.099 C 
BRANCH  11  12
ATOM     12  C   UNL d   1      33.036  19.027 -24.210  0.00  0.00     0.286 C 
ATOM     13  N   UNL d   1      33.241  19.637 -23.692  0.00  0.00    -0.206 NA
ATOM     14  O   UNL d   1      33.139  19.124 -25.023  0.00  0.00    -0.265 OA
BRANCH  13  15
ATOM     15  C   UNL d   1      33.138  19.539 -22.879  0.00  0.00     0.102 C 
BRANCH  15  16
ATOM     16  C   UNL d   1      33.126  20.199 -22.382  0.00  0.00     0.021 A 
ATOM     17  C   UNL d   1      33.130  20.959 -22.705  0.00  0.00     0.028 A 
ATOM     18  C   UNL d   1      33.118  21.618 -22.209  0.00  0.00     0.119 A 
ATOM     19  O   UNL d   1      33.118  22.429 -22.375  0.00  0.00    -0.300 OA
ATOM     20  C   UNL d   1      33.103  21.518 -21.390  0.00  0.00     0.119 A 
ATOM     21  C   UNL d   1      33.104  22.823 -21.660  0.00  0.00     0.304 A 
ATOM     22  O   UNL d   1      33.094  22.274 -21.054  0.00  0.00    -0.300 OA
ATOM     23  C   UNL d   1      33.100  20.759 -21.067  0.00  0.00     0.026 A 
ATOM     24  C   UNL d   1      33.111  20.099 -21.563  0.00  0.00     0.004 A 
ENDBRANCH  15  16
ENDBRANCH  13  15
ENDBRANCH  11  12
ENDBRANCH  10  11
ENDBRANCH   6  10
BRANCH   1  25
ATOM     25  C   UNL d   1      28.957  16.682 -24.059  0.00  0.00     0.085 A 
ATOM     26  C   UNL d   1      28.792  15.950 -24.394  0.00  0.00     0.020 A 
ATOM     27  C   UNL d   1      28.119  15.540 -24.174  0.00  0.00     0.013 A 
ATOM     28  C   UNL d   1      27.600  15.866 -23.609  0.00  0.00     0.058 A 
ATOM     29  C   UNL d   1      27.778  16.603 -23.279  0.00  0.00     0.013 A 
ATOM     30 CL   UNL d   1      26.909  15.453 -23.377  0.00  0.00    -0.082 Cl
ATOM     31  C   UNL d   1      28.451  17.005 -23.504  0.00  0.00     0.020 A 
ENDBRANCH   1  25
TORSDOF 6
ENDMDL
