MODEL 1
REMARK VINA RESULT:      77.9      0.000      0.000
REMARK  7 active torsions:
REMARK  status: ('A' for Active; 'I' for Inactive)
REMARK    1  A    between atoms: C_8  and  C_1 
REMARK    2  A    between atoms: N_7  and  C_2 
REMARK    3  A    between atoms: C_10  and  C_4 
REMARK       I    between atoms: C_6  and  N_7 
REMARK       I    between atoms: N_9  and  C_6 
REMARK    4  A    between atoms: O_14  and  C_8 
REMARK    5  A    between atoms: C_13  and  N_9 
REMARK    6  A    between atoms: O_20  and  C_15 
REMARK    7  A    between atoms: C_23  and  O_20 
ROOT
ATOM      1  C   UNL d   1      60.768  49.358  51.120  0.00  0.00     0.110 A 
ATOM      2  C   UNL d   1      60.808  48.771  50.480  0.00  0.00     0.098 A 
ATOM      3  S   UNL d   1      60.029  49.642  51.167  0.00  0.00    -0.080 SA
ATOM      4  C   UNL d   1      59.553  49.268  50.577  0.00  0.00     0.031 A 
ATOM      5  C   UNL d   1      60.057  48.721  50.150  0.00  0.00     0.026 A 
ENDROOT
BRANCH   2   6
ATOM      6  N   UNL d   1      61.452  48.330  50.222  0.00  0.00    -0.190 NA
ATOM      7  C   UNL d   1      61.451  47.497  50.313  0.00  0.00     0.369 C 
ATOM      8  N   UNL d   1      60.832  47.117  50.649  0.00  0.00    -0.191 NA
ATOM      9  O   UNL d   1      62.121  47.060  50.043  0.00  0.00    -0.242 OA
BRANCH   8  10
ATOM     10  C   UNL d   1      60.844  46.306  50.732  0.00  0.00     0.086 A 
ATOM     11  C   UNL d   1      60.860  45.834  50.070  0.00  0.00     0.021 A 
ATOM     12  C   UNL d   1      60.872  45.011  50.141  0.00  0.00     0.026 A 
ATOM     13  C   UNL d   1      60.869  44.669  50.885  0.00  0.00     0.100 A 
ATOM     14  C   UNL d   1      60.853  45.141  51.546  0.00  0.00     0.026 A 
ATOM     15  C   UNL d   1      60.841  45.963  51.471  0.00  0.00     0.021 A 
BRANCH  13  16
ATOM     16  O   UNL d   1      60.881  43.855  50.954  0.00  0.00    -0.305 OA
BRANCH  16  17
ATOM     17  C   UNL d   1      61.583  43.472  51.143  0.00  0.00     0.123 C 
ATOM     18  C   UNL d   1      61.688  43.160  51.910  0.00  0.00     0.029 C 
ENDBRANCH  16  17
ENDBRANCH  13  16
ENDBRANCH   8  10
ENDBRANCH   2   6
BRANCH   1  19
ATOM     19  C   UNL d   1      61.398  49.597  51.616  0.00  0.00     0.303 C 
ATOM     20  O   UNL d   1      62.140  49.707  51.301  0.00  0.00    -0.259 OA
BRANCH  19  21
ATOM     21  O   UNL d   1      61.212  49.707  52.412  0.00  0.00    -0.295 OA
ATOM     22  C   UNL d   1      61.671  49.399  53.030  0.00  0.00     0.185 C 
ENDBRANCH  19  21
ENDBRANCH   1  19
BRANCH   4  23
ATOM     23  C   UNL d   1      58.742  49.414  50.444  0.00  0.00     0.006 A 
ATOM     24  C   UNL d   1      58.448  49.564  49.680  0.00  0.00     0.001 A 
ATOM     25  C   UNL d   1      57.648  49.707  49.554  0.00  0.00     0.000 A 
ATOM     26  C   UNL d   1      57.116  49.703  50.203  0.00  0.00     0.000 A 
ATOM     27  C   UNL d   1      57.417  49.549  50.994  0.00  0.00     0.000 A 
ATOM     28  C   UNL d   1      58.211  49.410  51.093  0.00  0.00     0.001 A 
ENDBRANCH   4  23
TORSDOF 7
ENDMDL
