MODEL 1
REMARK VINA RESULT:      28.8      0.000      0.000
REMARK  2 active torsions:
REMARK  status: ('A' for Active; 'I' for Inactive)
REMARK    1  A    between atoms: C_11  and  C_2 
REMARK    2  A    between atoms: C_9  and  C_6 
ROOT
ATOM      1  C   UNL d   1     -51.562  25.592  33.366  0.00  0.00     0.045 A 
ATOM      2  C   UNL d   1     -51.445  24.784  33.375  0.00  0.00     0.127 A 
ATOM      3  C   UNL d   1     -51.032  26.224  33.374  0.00  0.00     0.010 A 
ATOM      4  O   UNL d   1     -52.175  24.415  33.361  0.00  0.00    -0.211 OA
ATOM      5  N   UNL d   1     -52.759  25.001  33.343  0.00  0.00    -0.126 NA
ATOM      6  C   UNL d   1     -51.315  26.998  33.361  0.00  0.00     0.065 A 
ATOM      7  C   UNL d   1     -52.376  25.735  33.346  0.00  0.00     0.110 A 
ATOM      8  C   UNL d   1     -52.130  27.141  33.341  0.00  0.00     0.008 A 
ATOM      9  C   UNL d   1     -52.660  26.509  33.334  0.00  0.00     0.022 A 
ENDROOT
BRANCH   2  10
ATOM     10  C   UNL d   1     -50.713  24.392  33.395  0.00  0.00     0.025 A 
ATOM     11  C   UNL d   1     -50.022  24.833  33.505  0.00  0.00     0.002 A 
ATOM     12  C   UNL d   1     -49.288  24.450  33.527  0.00  0.00     0.000 A 
ATOM     13  C   UNL d   1     -49.250  23.627  33.437  0.00  0.00     0.000 A 
ATOM     14  C   UNL d   1     -49.945  23.190  33.327  0.00  0.00     0.000 A 
ATOM     15  C   UNL d   1     -50.675  23.573  33.306  0.00  0.00     0.002 A 
ENDBRANCH   2  10
BRANCH   6  16
ATOM     16  C   UNL d   1     -50.785  27.630  33.369  0.00  0.00     0.211 C 
ATOM     17  O   UNL d   1     -51.061  28.408  33.306  0.00  0.00    -0.644 OA
ATOM     18  O   UNL d   1     -49.973  27.479  33.440  0.00  0.00    -0.644 OA
ENDBRANCH   6  16
TORSDOF 2
ENDMDL
