MODEL 1
REMARK VINA RESULT:      23.7      0.000      0.000
REMARK  3 active torsions:
REMARK  status: ('A' for Active; 'I' for Inactive)
REMARK    1  A    between atoms: S_9  and  C_6 
REMARK    2  A    between atoms: C_13  and  S_9 
REMARK    3  A    between atoms: C_11  and  C_13 
ROOT
ATOM      1  C   UNL d   1     -59.151 -98.757 -44.060  0.00  0.00     0.114 A 
ATOM      2  C   UNL d   1     -58.483 -98.759 -44.526  0.00  0.00     0.048 A 
ATOM      3  S   UNL d   1     -59.813 -98.757 -44.539  0.00  0.00    -0.068 SA
ATOM      4  C   UNL d   1     -58.731 -98.760 -45.316  0.00  0.00     0.010 A 
ATOM      5  C   UNL d   1     -59.534 -98.759 -45.346  0.00  0.00     0.031 A 
ATOM      6  C   UNL d   1     -57.732 -98.759 -44.171  0.00  0.00     0.111 A 
ATOM      7  N   UNL d   1     -59.078 -98.755 -43.236  0.00  0.00    -0.217 NA
ATOM      8  N   UNL d   1     -57.651 -98.757 -43.354  0.00  0.00    -0.218 NA
ATOM      9  C   UNL d   1     -58.329 -98.755 -42.886  0.00  0.00     0.200 A 
ATOM     10  C   UNL d   1     -58.290 -98.763 -46.014  0.00  0.00     0.001 A 
ATOM     11  C   UNL d   1     -59.940 -98.761 -46.065  0.00  0.00     0.006 A 
ATOM     12  C   UNL d   1     -58.691 -98.764 -46.734  0.00  0.00     0.000 A 
ATOM     13  C   UNL d   1     -59.489 -98.763 -46.766  0.00  0.00     0.001 A 
ENDROOT
BRANCH   6  14
ATOM     14  S   UNL d   1     -57.034 -98.761 -44.646  0.00  0.00    -0.083 SA
BRANCH  14  15
ATOM     15  C   UNL d   1     -56.314 -98.761 -44.286  0.00  0.00     0.161 C 
BRANCH  15  16
ATOM     16  C   UNL d   1     -55.646 -98.888 -44.743  0.00  0.00     0.197 C 
ATOM     17  O   UNL d   1     -54.962 -99.144 -44.380  0.00  0.00    -0.647 OA
ATOM     18  O   UNL d   1     -55.654 -98.765 -45.534  0.00  0.00    -0.647 OA
ENDBRANCH  15  16
ENDBRANCH  14  15
ENDBRANCH   6  14
TORSDOF 3
ENDMDL
MODEL 2
REMARK VINA RESULT:      24.7      1.071      2.298
REMARK  3 active torsions:
REMARK  status: ('A' for Active; 'I' for Inactive)
REMARK    1  A    between atoms: S_9  and  C_6 
REMARK    2  A    between atoms: C_13  and  S_9 
REMARK    3  A    between atoms: C_11  and  C_13 
ROOT
ATOM      1  C   UNL d   1     -59.145 -98.776 -44.781  0.00  0.00     0.114 A 
ATOM      2  C   UNL d   1     -58.481 -98.814 -44.311  0.00  0.00     0.048 A 
ATOM      3  S   UNL d   1     -59.810 -98.755 -44.308  0.00  0.00    -0.068 SA
ATOM      4  C   UNL d   1     -58.736 -98.816 -43.523  0.00  0.00     0.010 A 
ATOM      5  C   UNL d   1     -59.538 -98.781 -43.499  0.00  0.00     0.031 A 
ATOM      6  C   UNL d   1     -57.728 -98.841 -44.660  0.00  0.00     0.111 A 
ATOM      7  N   UNL d   1     -59.065 -98.766 -45.605  0.00  0.00    -0.217 NA
ATOM      8  N   UNL d   1     -57.641 -98.831 -45.475  0.00  0.00    -0.218 NA
ATOM      9  C   UNL d   1     -58.314 -98.793 -45.949  0.00  0.00     0.200 A 
ATOM     10  C   UNL d   1     -58.301 -98.847 -42.821  0.00  0.00     0.001 A 
ATOM     11  C   UNL d   1     -59.950 -98.775 -42.783  0.00  0.00     0.006 A 
ATOM     12  C   UNL d   1     -58.708 -98.841 -42.105  0.00  0.00     0.000 A 
ATOM     13  C   UNL d   1     -59.506 -98.807 -42.079  0.00  0.00     0.001 A 
ENDROOT
BRANCH   6  14
ATOM     14  S   UNL d   1     -57.035 -98.880 -44.179  0.00  0.00    -0.083 SA
BRANCH  14  15
ATOM     15  C   UNL d   1     -56.315 -98.755 -44.518  0.00  0.00     0.161 C 
BRANCH  15  16
ATOM     16  C   UNL d   1     -55.685 -99.224 -44.284  0.00  0.00     0.197 C 
ATOM     17  O   UNL d   1     -55.063 -98.879 -43.884  0.00  0.00    -0.647 OA
ATOM     18  O   UNL d   1     -55.670-100.009 -44.442  0.00  0.00    -0.647 OA
ENDBRANCH  15  16
ENDBRANCH  14  15
ENDBRANCH   6  14
TORSDOF 3
ENDMDL
