MODEL 1
REMARK VINA RESULT:      -5.1      0.000      0.000
REMARK  4 active torsions:
REMARK  status: ('A' for Active; 'I' for Inactive)
REMARK    1  A    between atoms: N_7  and  C_1 
REMARK    2  A    between atoms: C_12  and  N_4 
REMARK    3  A    between atoms: S_6  and  N_7 
REMARK    4  A    between atoms: C_11  and  S_6 
ROOT
ATOM      1  C   UNL d   1     -41.352-122.399 -52.199  0.00  0.00     0.169 A 
ATOM      2  C   UNL d   1     -41.553-121.906 -52.837  0.00  0.00     0.299 A 
ATOM      3  N   UNL d   1     -41.499-123.163 -53.286  0.00  0.00    -0.238 N 
ATOM      4  N   UNL d   1     -41.643-122.368 -53.500  0.00  0.00    -0.209 N 
ATOM      5  C   UNL d   1     -41.316-123.145 -52.451  0.00  0.00     0.105 A 
ATOM      6  O   UNL d   1     -41.646-121.067 -52.794  0.00  0.00    -0.263 OA
ATOM      7  C   UNL d   1     -41.528-123.815 -53.780  0.00  0.00     0.120 C 
ATOM      8  C   UNL d   1     -41.126-123.817 -51.964  0.00  0.00     0.022 C 
ENDROOT
BRANCH   1   9
ATOM      9  N   UNL d   1     -41.202-122.153 -51.387  0.00  0.00    -0.152 NA
BRANCH   9  10
ATOM     10  S   UNL d   1     -41.728-122.343 -50.783  0.00  0.00     0.285 S 
ATOM     11  O   UNL d   1     -42.280-121.821 -51.098  0.00  0.00    -0.198 OA
ATOM     12  O   UNL d   1     -41.152-122.886 -50.457  0.00  0.00    -0.198 OA
BRANCH  10  13
ATOM     13  C   UNL d   1     -42.245-122.541 -50.175  0.00  0.00     0.105 A 
ATOM     14  C   UNL d   1     -42.030-123.109 -49.607  0.00  0.00     0.013 A 
ATOM     15  C   UNL d   1     -42.548-123.316 -48.987  0.00  0.00     0.001 A 
ATOM     16  C   UNL d   1     -43.273-122.948 -48.947  0.00  0.00     0.000 A 
ATOM     17  C   UNL d   1     -43.502-122.365 -49.523  0.00  0.00     0.001 A 
ATOM     18  C   UNL d   1     -43.002-122.168 -50.119  0.00  0.00     0.013 A 
ENDBRANCH  10  13
ENDBRANCH   9  10
ENDBRANCH   1   9
BRANCH   4  19
ATOM     19  C   UNL d   1     -41.844-122.082 -54.248  0.00  0.00     0.085 A 
ATOM     20  C   UNL d   1     -42.633-121.980 -54.465  0.00  0.00     0.019 A 
ATOM     21  C   UNL d   1     -42.833-121.693 -55.219  0.00  0.00     0.002 A 
ATOM     22  C   UNL d   1     -42.249-121.509 -55.749  0.00  0.00     0.000 A 
ATOM     23  C   UNL d   1     -41.465-121.610 -55.533  0.00  0.00     0.002 A 
ATOM     24  C   UNL d   1     -41.259-121.894 -54.789  0.00  0.00     0.019 A 
ENDBRANCH   4  19
TORSDOF 4
ENDMDL
MODEL 2
REMARK VINA RESULT:      -4.7      1.076      1.572
REMARK  4 active torsions:
REMARK  status: ('A' for Active; 'I' for Inactive)
REMARK    1  A    between atoms: N_7  and  C_1 
REMARK    2  A    between atoms: C_12  and  N_4 
REMARK    3  A    between atoms: S_6  and  N_7 
REMARK    4  A    between atoms: C_11  and  S_6 
ROOT
ATOM      1  C   UNL d   1     -41.286-122.739 -51.728  0.00  0.00     0.169 A 
ATOM      2  C   UNL d   1     -41.456-122.961 -52.511  0.00  0.00     0.299 A 
ATOM      3  N   UNL d   1     -41.447-121.627 -52.452  0.00  0.00    -0.238 N 
ATOM      4  N   UNL d   1     -41.554-122.286 -52.953  0.00  0.00    -0.209 N 
ATOM      5  C   UNL d   1     -41.277-121.952 -51.680  0.00  0.00     0.105 A 
ATOM      6  O   UNL d   1     -41.515-123.757 -52.789  0.00  0.00    -0.263 OA
ATOM      7  C   UNL d   1     -41.495-120.837 -52.665  0.00  0.00     0.120 C 
ATOM      8  C   UNL d   1     -41.123-121.507 -50.970  0.00  0.00     0.022 C 
ENDROOT
BRANCH   1   9
ATOM      9  N   UNL d   1     -41.139-123.268 -51.064  0.00  0.00    -0.152 NA
BRANCH   9  10
ATOM     10  S   UNL d   1     -41.702-123.370 -50.472  0.00  0.00     0.285 S 
ATOM     11  O   UNL d   1     -42.164-123.816 -50.987  0.00  0.00    -0.198 OA
ATOM     12  O   UNL d   1     -41.220-122.906 -49.938  0.00  0.00    -0.198 OA
BRANCH  10  13
ATOM     13  C   UNL d   1     -42.257-123.466 -49.873  0.00  0.00     0.105 A 
ATOM     14  C   UNL d   1     -43.065-123.543 -50.056  0.00  0.00     0.013 A 
ATOM     15  C   UNL d   1     -43.635-123.641 -49.455  0.00  0.00     0.001 A 
ATOM     16  C   UNL d   1     -43.385-123.660 -48.680  0.00  0.00     0.000 A 
ATOM     17  C   UNL d   1     -42.561-123.582 -48.484  0.00  0.00     0.001 A 
ATOM     18  C   UNL d   1     -42.013-123.488 -49.064  0.00  0.00     0.013 A 
ENDBRANCH  10  13
ENDBRANCH   9  10
ENDBRANCH   1   9
BRANCH   4  19
ATOM     19  C   UNL d   1     -41.731-122.276 -53.760  0.00  0.00     0.085 A 
ATOM     20  C   UNL d   1     -41.217-122.613 -54.311  0.00  0.00     0.019 A 
ATOM     21  C   UNL d   1     -41.397-122.601 -55.122  0.00  0.00     0.002 A 
ATOM     22  C   UNL d   1     -42.082-122.255 -55.379  0.00  0.00     0.000 A 
ATOM     23  C   UNL d   1     -42.592-121.920 -54.832  0.00  0.00     0.002 A 
ATOM     24  C   UNL d   1     -42.422-121.928 -54.027  0.00  0.00     0.019 A 
ENDBRANCH   4  19
TORSDOF 4
ENDMDL
MODEL 3
REMARK VINA RESULT:      -4.1      1.123      4.394
REMARK  4 active torsions:
REMARK  status: ('A' for Active; 'I' for Inactive)
REMARK    1  A    between atoms: N_7  and  C_1 
REMARK    2  A    between atoms: C_12  and  N_4 
REMARK    3  A    between atoms: S_6  and  N_7 
REMARK    4  A    between atoms: C_11  and  S_6 
ROOT
ATOM      1  C   UNL d   1     -41.436-122.446 -52.043  0.00  0.00     0.169 A 
ATOM      2  C   UNL d   1     -41.781-122.993 -51.522  0.00  0.00     0.299 A 
ATOM      3  N   UNL d   1     -41.792-121.795 -50.931  0.00  0.00    -0.238 N 
ATOM      4  N   UNL d   1     -41.999-122.600 -50.845  0.00  0.00    -0.209 N 
ATOM      5  C   UNL d   1     -41.435-121.734 -51.706  0.00  0.00     0.105 A 
ATOM      6  O   UNL d   1     -41.885-123.817 -51.678  0.00  0.00    -0.263 OA
ATOM      7  C   UNL d   1     -41.909-121.198 -50.383  0.00  0.00     0.120 C 
ATOM      8  C   UNL d   1     -41.128-121.024 -52.063  0.00  0.00     0.022 C 
ENDROOT
BRANCH   1   9
ATOM      9  N   UNL d   1     -41.122-122.612 -52.828  0.00  0.00    -0.152 NA
BRANCH   9  10
ATOM     10  S   UNL d   1     -41.571-122.466 -53.503  0.00  0.00     0.285 S 
ATOM     11  O   UNL d   1     -41.130-121.786 -53.649  0.00  0.00    -0.198 OA
ATOM     12  O   UNL d   1     -42.027-123.173 -53.349  0.00  0.00    -0.198 OA
BRANCH  10  13
ATOM     13  C   UNL d   1     -42.025-122.329 -54.175  0.00  0.00     0.105 A 
ATOM     14  C   UNL d   1     -41.975-122.842 -54.828  0.00  0.00     0.013 A 
ATOM     15  C   UNL d   1     -42.432-122.712 -55.514  0.00  0.00     0.001 A 
ATOM     16  C   UNL d   1     -42.931-122.069 -55.532  0.00  0.00     0.000 A 
ATOM     17  C   UNL d   1     -42.988-121.539 -54.869  0.00  0.00     0.001 A 
ATOM     18  C   UNL d   1     -42.548-121.666 -54.210  0.00  0.00     0.013 A 
ENDBRANCH  10  13
ENDBRANCH   9  10
ENDBRANCH   1   9
BRANCH   4  19
ATOM     19  C   UNL d   1     -42.362-122.953 -50.192  0.00  0.00     0.085 A 
ATOM     20  C   UNL d   1     -43.174-122.875 -50.065  0.00  0.00     0.019 A 
ATOM     21  C   UNL d   1     -43.537-123.231 -49.408  0.00  0.00     0.002 A 
ATOM     22  C   UNL d   1     -43.093-123.660 -48.884  0.00  0.00     0.000 A 
ATOM     23  C   UNL d   1     -42.287-123.738 -49.011  0.00  0.00     0.002 A 
ATOM     24  C   UNL d   1     -41.920-123.389 -49.659  0.00  0.00     0.019 A 
ENDBRANCH   4  19
TORSDOF 4
ENDMDL
