MODEL 1
REMARK VINA RESULT:      34.5      0.000      0.000
REMARK  8 active torsions:
REMARK  status: ('A' for Active; 'I' for Inactive)
REMARK    1  A    between atoms: C_14  and  N_1 
REMARK    2  A    between atoms: N_9  and  C_2 
REMARK    3  A    between atoms: C_6  and  C_5 
REMARK    4  A    between atoms: C_7  and  C_6 
REMARK       I    between atoms: N_8  and  C_7 
REMARK    5  A    between atoms: C_10  and  N_8 
REMARK    6  A    between atoms: C_16  and  N_9 
REMARK    7  A    between atoms: O_15  and  C_13 
REMARK    8  A    between atoms: C_19  and  O_15 
ROOT
ATOM      1  C   UNL d   1     -56.028 -98.857 -44.773  0.00  0.00     0.074 C 
ENDROOT
BRANCH   1   2
ATOM      2  C   UNL d   1     -55.696 -99.573 -44.523  0.00  0.00     0.093 A 
ATOM      3  C   UNL d   1     -55.347 -99.718 -43.790  0.00  0.00     0.272 A 
ATOM      4  N   UNL d   1     -55.089-100.503 -43.773  0.00  0.00    -0.252 N 
ATOM      5  O   UNL d   1     -55.268 -99.170 -43.175  0.00  0.00    -0.266 OA
ATOM      6  C   UNL d   1     -55.280-100.846 -44.502  0.00  0.00     0.182 A 
ATOM      7  S   UNL d   1     -55.653-100.278 -44.965  0.00  0.00    -0.045 SA
BRANCH   4   8
ATOM      8  C   UNL d   1     -54.711-100.869 -43.142  0.00  0.00     0.085 C 
ATOM      9  C   UNL d   1     -54.978-101.594 -42.862  0.00  0.00     0.021 C 
ENDBRANCH   4   8
BRANCH   6  10
ATOM     10  N   UNL d   1     -55.121-101.622 -44.718  0.00  0.00    -0.221 NA
BRANCH  10  11
ATOM     11  C   UNL d   1     -55.348-101.907 -45.455  0.00  0.00     0.101 C 
ATOM     12  C   UNL d   1     -55.593-102.690 -45.549  0.00  0.00     0.022 C 
ENDBRANCH  10  11
ENDBRANCH   6  10
ENDBRANCH   1   2
BRANCH   1  13
ATOM     13  C   UNL d   1     -56.819 -98.832 -45.006  0.00  0.00     0.280 C 
ATOM     14  N   UNL d   1     -57.416 -98.873 -44.448  0.00  0.00    -0.206 NA
ATOM     15  O   UNL d   1     -57.000 -98.766 -45.805  0.00  0.00    -0.265 OA
BRANCH  14  16
ATOM     16  C   UNL d   1     -58.207 -98.847 -44.684  0.00  0.00     0.107 A 
ATOM     17  C   UNL d   1     -58.807 -98.789 -44.122  0.00  0.00     0.118 A 
ATOM     18  C   UNL d   1     -59.597 -98.764 -44.358  0.00  0.00     0.026 A 
ATOM     19  C   UNL d   1     -59.783 -98.798 -45.169  0.00  0.00     0.002 A 
ATOM     20  C   UNL d   1     -59.188 -98.856 -45.728  0.00  0.00     0.002 A 
ATOM     21  C   UNL d   1     -58.397 -98.881 -45.496  0.00  0.00     0.021 A 
BRANCH  17  22
ATOM     22  O   UNL d   1     -58.609 -98.756 -43.320  0.00  0.00    -0.304 OA
BRANCH  22  23
ATOM     23  C   UNL d   1     -59.116 -99.086 -42.763  0.00  0.00     0.123 C 
ATOM     24  C   UNL d   1     -59.893 -98.815 -42.694  0.00  0.00     0.029 C 
ENDBRANCH  22  23
ENDBRANCH  17  22
ENDBRANCH  14  16
ENDBRANCH   1  13
TORSDOF 8
ENDMDL
