MODEL 1
REMARK VINA RESULT:      -3.1      0.000      0.000
REMARK  3 active torsions:
REMARK  status: ('A' for Active; 'I' for Inactive)
REMARK    1  A    between atoms: C_6  and  C_1 
REMARK    2  A    between atoms: C_7  and  C_3 
REMARK    3  A    between atoms: C_11  and  C_7 
ROOT
ATOM      1  C   UNL d   1      29.459  16.461 -24.126  0.00  0.00     0.085 A 
ATOM      2  C   UNL d   1      29.602  17.109 -24.610  0.00  0.00     0.137 A 
ATOM      3  C   UNL d   1      30.753  16.750 -24.059  0.00  0.00     0.031 A 
ATOM      4  S   UNL d   1      30.407  17.284 -24.563  0.00  0.00    -0.066 SA
ATOM      5  C   UNL d   1      30.172  16.232 -23.780  0.00  0.00     0.013 A 
ATOM      6  N   UNL d   1      29.015  17.500 -25.056  0.00  0.00    -0.141 N 
ATOM      7  C   UNL d   1      30.285  15.628 -23.273  0.00  0.00     0.001 C 
ENDROOT
BRANCH   3   8
ATOM      8  C   UNL d   1      31.538  16.658 -23.805  0.00  0.00     0.006 C 
BRANCH   8   9
ATOM      9  C   UNL d   1      32.103  17.234 -23.961  0.00  0.00     0.001 A 
ATOM     10  C   UNL d   1      32.529  17.208 -24.657  0.00  0.00     0.000 A 
ATOM     11  C   UNL d   1      33.103  17.798 -24.810  0.00  0.00     0.000 A 
ATOM     12  C   UNL d   1      33.223  18.386 -24.258  0.00  0.00     0.000 A 
ATOM     13  C   UNL d   1      32.791  18.415 -23.550  0.00  0.00     0.000 A 
ATOM     14  C   UNL d   1      32.242  17.843 -23.413  0.00  0.00     0.000 A 
ENDBRANCH   8   9
ENDBRANCH   3   8
BRANCH   1  15
ATOM     15  C   UNL d   1      28.708  16.108 -24.018  0.00  0.00     0.299 C 
ATOM     16  O   UNL d   1      28.468  15.461 -24.457  0.00  0.00    -0.264 OA
ATOM     17  N   UNL d   1      28.195  16.445 -23.431  0.00  0.00    -0.102 N 
ENDBRANCH   1  15
TORSDOF 3
ENDMDL
MODEL 2
REMARK VINA RESULT:      -2.9      0.858      1.281
REMARK  3 active torsions:
REMARK  status: ('A' for Active; 'I' for Inactive)
REMARK    1  A    between atoms: C_6  and  C_1 
REMARK    2  A    between atoms: C_7  and  C_3 
REMARK    3  A    between atoms: C_11  and  C_7 
ROOT
ATOM      1  C   UNL d   1      29.237  16.244 -23.798  0.00  0.00     0.085 A 
ATOM      2  C   UNL d   1      29.789  15.942 -23.270  0.00  0.00     0.137 A 
ATOM      3  C   UNL d   1      30.438  16.671 -24.167  0.00  0.00     0.031 A 
ATOM      4  S   UNL d   1      30.533  16.211 -23.505  0.00  0.00    -0.066 SA
ATOM      5  C   UNL d   1      29.635  16.699 -24.359  0.00  0.00     0.013 A 
ATOM      6  N   UNL d   1      29.599  15.453 -22.621  0.00  0.00    -0.141 N 
ATOM      7  C   UNL d   1      29.311  17.092 -24.972  0.00  0.00     0.001 C 
ENDROOT
BRANCH   3   8
ATOM      8  C   UNL d   1      30.985  17.082 -24.638  0.00  0.00     0.006 C 
BRANCH   8   9
ATOM      9  C   UNL d   1      31.740  17.251 -24.359  0.00  0.00     0.001 A 
ATOM     10  C   UNL d   1      32.352  16.729 -24.500  0.00  0.00     0.000 A 
ATOM     11  C   UNL d   1      33.118  16.907 -24.214  0.00  0.00     0.000 A 
ATOM     12  C   UNL d   1      33.235  17.600 -23.800  0.00  0.00     0.000 A 
ATOM     13  C   UNL d   1      32.614  18.132 -23.656  0.00  0.00     0.000 A 
ATOM     14  C   UNL d   1      31.882  17.951 -23.935  0.00  0.00     0.000 A 
ENDBRANCH   8   9
ENDBRANCH   3   8
BRANCH   1  15
ATOM     15  C   UNL d   1      28.414  16.101 -23.754  0.00  0.00     0.299 C 
ATOM     16  O   UNL d   1      28.069  15.453 -24.114  0.00  0.00    -0.264 OA
ATOM     17  N   UNL d   1      27.940  16.656 -23.319  0.00  0.00    -0.102 N 
ENDBRANCH   1  15
TORSDOF 3
ENDMDL
MODEL 3
REMARK VINA RESULT:      -2.7      2.036      3.782
REMARK  3 active torsions:
REMARK  status: ('A' for Active; 'I' for Inactive)
REMARK    1  A    between atoms: C_6  and  C_1 
REMARK    2  A    between atoms: C_7  and  C_3 
REMARK    3  A    between atoms: C_11  and  C_7 
ROOT
ATOM      1  C   UNL d   1      31.876  17.260 -24.161  0.00  0.00     0.085 A 
ATOM      2  C   UNL d   1      31.711  16.609 -23.688  0.00  0.00     0.137 A 
ATOM      3  C   UNL d   1      30.604  16.925 -24.347  0.00  0.00     0.031 A 
ATOM      4  S   UNL d   1      30.920  16.406 -23.809  0.00  0.00    -0.066 SA
ATOM      5  C   UNL d   1      31.191  17.462 -24.575  0.00  0.00     0.013 A 
ATOM      6  N   UNL d   1      32.267  16.242 -23.187  0.00  0.00    -0.141 N 
ATOM      7  C   UNL d   1      31.105  18.060 -25.094  0.00  0.00     0.001 C 
ENDROOT
BRANCH   3   8
ATOM      8  C   UNL d   1      29.844  16.989 -24.673  0.00  0.00     0.006 C 
BRANCH   8   9
ATOM      9  C   UNL d   1      29.204  16.601 -24.332  0.00  0.00     0.001 A 
ATOM     10  C   UNL d   1      29.017  15.841 -24.566  0.00  0.00     0.000 A 
ATOM     11  C   UNL d   1      28.364  15.453 -24.215  0.00  0.00     0.000 A 
ATOM     12  C   UNL d   1      27.929  15.844 -23.646  0.00  0.00     0.000 A 
ATOM     13  C   UNL d   1      28.117  16.616 -23.407  0.00  0.00     0.000 A 
ATOM     14  C   UNL d   1      28.747  16.980 -23.751  0.00  0.00     0.000 A 
ENDBRANCH   8   9
ENDBRANCH   3   8
BRANCH   1  15
ATOM     15  C   UNL d   1      32.620  17.639 -24.202  0.00  0.00     0.299 C 
ATOM     16  O   UNL d   1      32.813  18.266 -23.715  0.00  0.00    -0.264 OA
ATOM     17  N   UNL d   1      33.180  17.348 -24.772  0.00  0.00    -0.102 N 
ENDBRANCH   1  15
TORSDOF 3
ENDMDL
MODEL 4
REMARK VINA RESULT:      -1.6      4.104      5.254
REMARK  3 active torsions:
REMARK  status: ('A' for Active; 'I' for Inactive)
REMARK    1  A    between atoms: C_6  and  C_1 
REMARK    2  A    between atoms: C_7  and  C_3 
REMARK    3  A    between atoms: C_11  and  C_7 
ROOT
ATOM      1  C   UNL d   1      32.816  21.373 -21.324  0.00  0.00     0.085 A 
ATOM      2  C   UNL d   1      32.959  21.628 -22.091  0.00  0.00     0.137 A 
ATOM      3  C   UNL d   1      33.110  20.311 -22.064  0.00  0.00     0.031 A 
ATOM      4  S   UNL d   1      33.141  20.964 -22.546  0.00  0.00    -0.066 SA
ATOM      5  C   UNL d   1      32.909  20.554 -21.300  0.00  0.00     0.013 A 
ATOM      6  N   UNL d   1      32.918  22.425 -22.335  0.00  0.00    -0.141 N 
ATOM      7  C   UNL d   1      32.823  20.081 -20.664  0.00  0.00     0.001 C 
ENDROOT
BRANCH   3   8
ATOM      8  C   UNL d   1      33.241  19.506 -22.216  0.00  0.00     0.006 C 
BRANCH   8   9
ATOM      9  C   UNL d   1      32.979  19.159 -22.914  0.00  0.00     0.001 A 
ATOM     10  C   UNL d   1      33.239  19.446 -23.633  0.00  0.00     0.000 A 
ATOM     11  C   UNL d   1      32.969  19.089 -24.340  0.00  0.00     0.000 A 
ATOM     12  C   UNL d   1      32.451  18.461 -24.293  0.00  0.00     0.000 A 
ATOM     13  C   UNL d   1      32.185  18.167 -23.563  0.00  0.00     0.000 A 
ATOM     14  C   UNL d   1      32.451  18.519 -22.891  0.00  0.00     0.000 A 
ENDBRANCH   8   9
ENDBRANCH   3   8
BRANCH   1  15
ATOM     15  C   UNL d   1      32.613  21.877 -20.688  0.00  0.00     0.299 C 
ATOM     16  O   UNL d   1      31.842  22.113 -20.554  0.00  0.00    -0.264 OA
ATOM     17  N   UNL d   1      33.239  22.141 -20.177  0.00  0.00    -0.102 N 
ENDBRANCH   1  15
TORSDOF 3
ENDMDL
MODEL 5
REMARK VINA RESULT:      -0.9      6.415      7.688
REMARK  3 active torsions:
REMARK  status: ('A' for Active; 'I' for Inactive)
REMARK    1  A    between atoms: C_6  and  C_1 
REMARK    2  A    between atoms: C_7  and  C_3 
REMARK    3  A    between atoms: C_11  and  C_7 
ROOT
ATOM      1  C   UNL d   1      32.699  21.796 -20.978  0.00  0.00     0.085 A 
ATOM      2  C   UNL d   1      32.925  21.282 -20.379  0.00  0.00     0.137 A 
ATOM      3  C   UNL d   1      32.929  22.512 -19.884  0.00  0.00     0.031 A 
ATOM      4  S   UNL d   1      33.066  21.733 -19.703  0.00  0.00    -0.066 SA
ATOM      5  C   UNL d   1      32.700  22.564 -20.677  0.00  0.00     0.013 A 
ATOM      6  N   UNL d   1      32.990  20.456 -20.471  0.00  0.00    -0.141 N 
ATOM      7  C   UNL d   1      32.515  23.232 -21.070  0.00  0.00     0.001 C 
ENDROOT
BRANCH   3   8
ATOM      8  C   UNL d   1      32.982  23.204 -19.428  0.00  0.00     0.006 C 
BRANCH   8   9
ATOM      9  C   UNL d   1      32.833  23.189 -18.620  0.00  0.00     0.001 A 
ATOM     10  C   UNL d   1      33.241  22.669 -18.140  0.00  0.00     0.000 A 
ATOM     11  C   UNL d   1      33.085  22.659 -17.318  0.00  0.00     0.000 A 
ATOM     12  C   UNL d   1      32.528  23.172 -17.015  0.00  0.00     0.000 A 
ATOM     13  C   UNL d   1      32.112  23.702 -17.500  0.00  0.00     0.000 A 
ATOM     14  C   UNL d   1      32.270  23.702 -18.289  0.00  0.00     0.000 A 
ENDBRANCH   8   9
ENDBRANCH   3   8
BRANCH   1  15
ATOM     15  C   UNL d   1      32.505  21.559 -21.757  0.00  0.00     0.299 C 
ATOM     16  O   UNL d   1      31.958  20.971 -21.905  0.00  0.00    -0.264 OA
ATOM     17  N   UNL d   1      32.899  21.953 -22.399  0.00  0.00    -0.102 N 
ENDBRANCH   1  15
TORSDOF 3
ENDMDL
MODEL 6
REMARK VINA RESULT:      -0.7      5.580      6.467
REMARK  3 active torsions:
REMARK  status: ('A' for Active; 'I' for Inactive)
REMARK    1  A    between atoms: C_6  and  C_1 
REMARK    2  A    between atoms: C_7  and  C_3 
REMARK    3  A    between atoms: C_11  and  C_7 
ROOT
ATOM      1  C   UNL d   1      32.766  21.612 -21.185  0.00  0.00     0.085 A 
ATOM      2  C   UNL d   1      33.032  21.137 -21.800  0.00  0.00     0.137 A 
ATOM      3  C   UNL d   1      33.028  22.392 -22.227  0.00  0.00     0.031 A 
ATOM      4  S   UNL d   1      33.192  21.628 -22.444  0.00  0.00    -0.066 SA
ATOM      5  C   UNL d   1      32.761  22.395 -21.444  0.00  0.00     0.013 A 
ATOM      6  N   UNL d   1      33.114  20.308 -21.751  0.00  0.00    -0.141 N 
ATOM      7  C   UNL d   1      32.542  23.036 -21.025  0.00  0.00     0.001 C 
ENDROOT
BRANCH   3   8
ATOM      8  C   UNL d   1      33.083  23.109 -22.642  0.00  0.00     0.006 C 
BRANCH   8   9
ATOM      9  C   UNL d   1      32.851  23.161 -23.429  0.00  0.00     0.001 A 
ATOM     10  C   UNL d   1      32.235  23.653 -23.639  0.00  0.00     0.000 A 
ATOM     11  C   UNL d   1      32.003  23.702 -24.442  0.00  0.00     0.000 A 
ATOM     12  C   UNL d   1      32.400  23.254 -24.996  0.00  0.00     0.000 A 
ATOM     13  C   UNL d   1      33.027  22.753 -24.785  0.00  0.00     0.000 A 
ATOM     14  C   UNL d   1      33.241  22.714 -24.011  0.00  0.00     0.000 A 
ENDBRANCH   8   9
ENDBRANCH   3   8
BRANCH   1  15
ATOM     15  C   UNL d   1      32.544  21.328 -20.431  0.00  0.00     0.299 C 
ATOM     16  O   UNL d   1      31.769  21.138 -20.253  0.00  0.00    -0.264 OA
ATOM     17  N   UNL d   1      33.154  21.241 -19.846  0.00  0.00    -0.102 N 
ENDBRANCH   1  15
TORSDOF 3
ENDMDL
MODEL 7
REMARK VINA RESULT:      -0.7      3.321      4.716
REMARK  3 active torsions:
REMARK  status: ('A' for Active; 'I' for Inactive)
REMARK    1  A    between atoms: C_6  and  C_1 
REMARK    2  A    between atoms: C_7  and  C_3 
REMARK    3  A    between atoms: C_11  and  C_7 
ROOT
ATOM      1  C   UNL d   1      32.821  19.157 -23.796  0.00  0.00     0.085 A 
ATOM      2  C   UNL d   1      32.685  18.841 -23.050  0.00  0.00     0.137 A 
ATOM      3  C   UNL d   1      33.039  20.110 -22.898  0.00  0.00     0.031 A 
ATOM      4  S   UNL d   1      32.822  19.438 -22.497  0.00  0.00    -0.066 SA
ATOM      5  C   UNL d   1      33.042  19.947 -23.709  0.00  0.00     0.013 A 
ATOM      6  N   UNL d   1      32.450  18.053 -22.910  0.00  0.00    -0.141 N 
ATOM      7  C   UNL d   1      33.224  20.459 -24.290  0.00  0.00     0.001 C 
ENDROOT
BRANCH   3   8
ATOM      8  C   UNL d   1      33.241  20.870 -22.634  0.00  0.00     0.006 C 
BRANCH   8   9
ATOM      9  C   UNL d   1      32.940  21.166 -21.928  0.00  0.00     0.001 A 
ATOM     10  C   UNL d   1      33.027  20.739 -21.237  0.00  0.00     0.000 A 
ATOM     11  C   UNL d   1      32.719  21.046 -20.522  0.00  0.00     0.000 A 
ATOM     12  C   UNL d   1      32.337  21.767 -20.534  0.00  0.00     0.000 A 
ATOM     13  C   UNL d   1      32.247  22.203 -21.234  0.00  0.00     0.000 A 
ATOM     14  C   UNL d   1      32.548  21.898 -21.915  0.00  0.00     0.000 A 
ENDBRANCH   8   9
ENDBRANCH   3   8
BRANCH   1  15
ATOM     15  C   UNL d   1      32.742  18.730 -24.511  0.00  0.00     0.299 C 
ATOM     16  O   UNL d   1      32.208  18.951 -25.089  0.00  0.00    -0.264 OA
ATOM     17  N   UNL d   1      33.241  18.051 -24.622  0.00  0.00    -0.102 N 
ENDBRANCH   1  15
TORSDOF 3
ENDMDL
