MODEL 1
REMARK VINA RESULT:      43.7      0.000      0.000
REMARK  4 active torsions:
REMARK  status: ('A' for Active; 'I' for Inactive)
REMARK    1  A    between atoms: N_5  and  C_1 
REMARK    2  A    between atoms: C_9  and  C_2 
REMARK       I    between atoms: C_6  and  N_5 
REMARK    3  A    between atoms: C_8  and  C_6 
REMARK    4  A    between atoms: N_10  and  C_9 
ROOT
ATOM      1  C   UNL d   1      13.946  14.270  -2.902  0.00  0.00     0.115 A 
ATOM      2  C   UNL d   1      13.428  14.283  -3.540  0.00  0.00     0.042 A 
ATOM      3  S   UNL d   1      14.445  14.933  -2.964  0.00  0.00    -0.068 SA
ATOM      4  C   UNL d   1      13.603  14.948  -3.995  0.00  0.00     0.009 A 
ATOM      5  C   UNL d   1      14.232  15.342  -3.632  0.00  0.00     0.031 A 
ATOM      6  C   UNL d   1      13.227  15.187  -4.690  0.00  0.00     0.001 C 
ATOM      7  C   UNL d   1      14.593  16.040  -3.895  0.00  0.00     0.007 C 
ENDROOT
BRANCH   1   8
ATOM      8  N   UNL d   1      13.902  13.661  -2.345  0.00  0.00    -0.201 NA
ATOM      9  C   UNL d   1      14.460  13.611  -1.744  0.00  0.00     0.282 C 
ATOM     10  O   UNL d   1      15.062  14.168  -1.698  0.00  0.00    -0.265 OA
BRANCH   9  11
ATOM     11  C   UNL d   1      14.416  13.004  -1.189  0.00  0.00     0.085 A 
ATOM     12  C   UNL d   1      14.955  12.386  -1.213  0.00  0.00     0.145 A 
ATOM     13  F   UNL d   1      15.546  12.379  -1.803  0.00  0.00    -0.204 F 
ATOM     14  C   UNL d   1      14.911  11.779  -0.658  0.00  0.00     0.030 A 
ATOM     15  C   UNL d   1      14.328  11.792  -0.080  0.00  0.00     0.002 A 
ATOM     16  C   UNL d   1      13.785  12.413  -0.055  0.00  0.00     0.000 A 
ATOM     17  C   UNL d   1      13.829  13.019  -0.610  0.00  0.00     0.007 A 
ENDBRANCH   9  11
ENDBRANCH   1   8
BRANCH   2  18
ATOM     18  C   UNL d   1      12.832  13.724  -3.699  0.00  0.00     0.082 C 
BRANCH  18  19
ATOM     19  N   UNL d   1      12.974  13.107  -4.222  0.00  0.00    -0.302 N 
ATOM     20  C   UNL d   1      13.317  12.405  -3.949  0.00  0.00     0.080 A 
ATOM     21  C   UNL d   1      13.460  11.782  -4.475  0.00  0.00     0.019 A 
ATOM     22  C   UNL d   1      13.261  11.864  -5.271  0.00  0.00     0.003 A 
ATOM     23  C   UNL d   1      12.918  12.566  -5.545  0.00  0.00     0.019 A 
ATOM     24  C   UNL d   1      12.775  13.186  -5.022  0.00  0.00     0.080 A 
ENDBRANCH  18  19
ENDBRANCH   2  18
TORSDOF 4
ENDMDL
MODEL 2
REMARK VINA RESULT:      45.6      1.678      3.163
REMARK  4 active torsions:
REMARK  status: ('A' for Active; 'I' for Inactive)
REMARK    1  A    between atoms: N_5  and  C_1 
REMARK    2  A    between atoms: C_9  and  C_2 
REMARK       I    between atoms: C_6  and  N_5 
REMARK    3  A    between atoms: C_8  and  C_6 
REMARK    4  A    between atoms: N_10  and  C_9 
ROOT
ATOM      1  C   UNL d   1      14.457  13.665  -1.782  0.00  0.00     0.115 A 
ATOM      2  C   UNL d   1      13.904  13.192  -2.165  0.00  0.00     0.042 A 
ATOM      3  S   UNL d   1      14.843  13.196  -1.213  0.00  0.00    -0.068 SA
ATOM      4  C   UNL d   1      13.946  12.437  -1.838  0.00  0.00     0.009 A 
ATOM      5  C   UNL d   1      14.528  12.449  -1.251  0.00  0.00     0.031 A 
ATOM      6  C   UNL d   1      13.494  11.779  -2.049  0.00  0.00     0.001 C 
ATOM      7  C   UNL d   1      14.760  11.812  -0.776  0.00  0.00     0.007 C 
ENDROOT
BRANCH   1   8
ATOM      8  N   UNL d   1      14.542  14.459  -1.995  0.00  0.00    -0.201 NA
ATOM      9  C   UNL d   1      14.865  14.996  -1.463  0.00  0.00     0.282 C 
ATOM     10  O   UNL d   1      15.102  14.741  -0.719  0.00  0.00    -0.265 OA
BRANCH   9  11
ATOM     11  C   UNL d   1      14.949  15.787  -1.676  0.00  0.00     0.085 A 
ATOM     12  C   UNL d   1      15.128  16.349  -1.104  0.00  0.00     0.145 A 
ATOM     13  F   UNL d   1      15.223  16.110  -0.310  0.00  0.00    -0.204 F 
ATOM     14  C   UNL d   1      15.213  17.139  -1.316  0.00  0.00     0.030 A 
ATOM     15  C   UNL d   1      15.119  17.368  -2.100  0.00  0.00     0.002 A 
ATOM     16  C   UNL d   1      14.940  16.804  -2.675  0.00  0.00     0.000 A 
ATOM     17  C   UNL d   1      14.855  16.013  -2.463  0.00  0.00     0.007 A 
ENDBRANCH   9  11
ENDBRANCH   1   8
BRANCH   2  18
ATOM     18  C   UNL d   1      13.393  13.434  -2.776  0.00  0.00     0.082 C 
BRANCH  18  19
ATOM     19  N   UNL d   1      13.342  12.997  -3.470  0.00  0.00    -0.302 N 
ATOM     20  C   UNL d   1      12.820  12.357  -3.517  0.00  0.00     0.080 A 
ATOM     21  C   UNL d   1      12.769  11.916  -4.215  0.00  0.00     0.019 A 
ATOM     22  C   UNL d   1      13.238  12.117  -4.862  0.00  0.00     0.003 A 
ATOM     23  C   UNL d   1      13.760  12.757  -4.816  0.00  0.00     0.019 A 
ATOM     24  C   UNL d   1      13.813  13.197  -4.121  0.00  0.00     0.080 A 
ENDBRANCH  18  19
ENDBRANCH   2  18
TORSDOF 4
ENDMDL
