MODEL 1
REMARK VINA RESULT:      -0.2      0.000      0.000
REMARK  4 active torsions:
REMARK  status: ('A' for Active; 'I' for Inactive)
REMARK    1  A    between atoms: C_13  and  N_3 
REMARK    2  A    between atoms: C_11  and  C_6 
REMARK    3  A    between atoms: O_22  and  C_11 
REMARK    4  A    between atoms: C_21  and  C_13 
ROOT
ATOM      1  C   UNL d   1      57.654  -0.360  31.544  0.00  0.00     0.155 A 
ATOM      2  C   UNL d   1      57.297  -1.055  31.283  0.00  0.00     0.091 A 
ATOM      3  N   UNL d   1      58.252  -0.013  31.100  0.00  0.00    -0.274 N 
ATOM      4  N   UNL d   1      57.410  -0.013  32.251  0.00  0.00    -0.210 NA
ATOM      5  N   UNL d   1      56.454  -1.058  32.433  0.00  0.00    -0.258 N 
ATOM      6  C   UNL d   1      58.145  -1.048  30.131  0.00  0.00     0.100 A 
ATOM      7  C   UNL d   1      56.807  -0.360  32.701  0.00  0.00     0.152 A 
ATOM      8  C   UNL d   1      58.496  -0.354  30.398  0.00  0.00     0.175 A 
ATOM      9  C   UNL d   1      56.694  -1.413  31.723  0.00  0.00     0.269 A 
ATOM     10  C   UNL d   1      57.541  -1.406  30.571  0.00  0.00     0.016 A 
ATOM     11  C   UNL d   1      56.564  -0.016  33.404  0.00  0.00     0.035 A 
ATOM     12  C   UNL d   1      55.848  -1.413  32.881  0.00  0.00     0.084 A 
ATOM     13  N   UNL d   1      59.101  -0.003  29.949  0.00  0.00    -0.128 N 
ATOM     14  O   UNL d   1      56.337  -2.107  31.462  0.00  0.00    -0.266 OA
ATOM     15  C   UNL d   1      55.610  -1.058  33.587  0.00  0.00     0.019 A 
ATOM     16  C   UNL d   1      55.968  -0.360  33.849  0.00  0.00     0.005 A 
ATOM     17  C   UNL d   1      56.927   0.682  33.660  0.00  0.00     0.003 C 
ENDROOT
BRANCH   3  18
ATOM     18  C   UNL d   1      58.606   0.682  31.364  0.00  0.00     0.084 C 
BRANCH  18  19
ATOM     19  C   UNL d   1      59.403   0.682  31.587  0.00  0.00     0.037 A 
ATOM     20  C   UNL d   1      59.602   0.682  32.379  0.00  0.00     0.100 A 
ATOM     21  N   UNL d   1      60.393   0.682  32.608  0.00  0.00    -0.242 NA
ATOM     22  C   UNL d   1      60.979   0.681  32.030  0.00  0.00     0.099 A 
ATOM     23  C   UNL d   1      60.779   0.681  31.229  0.00  0.00     0.021 A 
ATOM     24  C   UNL d   1      59.986   0.681  31.012  0.00  0.00     0.005 A 
ENDBRANCH  18  19
ENDBRANCH   3  18
BRANCH   6  25
ATOM     25  C   UNL d   1      58.388  -1.395  29.424  0.00  0.00     0.299 C 
ATOM     26  O   UNL d   1      58.156  -1.072  28.693  0.00  0.00    -0.259 OA
BRANCH  25  27
ATOM     27  O   UNL d   1      58.864  -2.065  29.436  0.00  0.00    -0.296 OA
ATOM     28  C   UNL d   1      59.038  -2.468  28.737  0.00  0.00     0.185 C 
ENDBRANCH  25  27
ENDBRANCH   6  25
TORSDOF 4
ENDMDL
MODEL 2
REMARK VINA RESULT:      -0.2      8.676      9.359
REMARK  4 active torsions:
REMARK  status: ('A' for Active; 'I' for Inactive)
REMARK    1  A    between atoms: C_13  and  N_3 
REMARK    2  A    between atoms: C_11  and  C_6 
REMARK    3  A    between atoms: O_22  and  C_11 
REMARK    4  A    between atoms: C_21  and  C_13 
ROOT
ATOM      1  C   UNL d   1      59.144  -9.754  31.133  0.00  0.00     0.155 A 
ATOM      2  C   UNL d   1      58.353  -9.720  31.358  0.00  0.00     0.091 A 
ATOM      3  N   UNL d   1      59.345  -9.783  30.336  0.00  0.00    -0.274 N 
ATOM      4  N   UNL d   1      59.736  -9.759  31.707  0.00  0.00    -0.210 NA
ATOM      5  N   UNL d   1      58.741  -9.696  32.730  0.00  0.00    -0.258 N 
ATOM      6  C   UNL d   1      57.968  -9.745  29.981  0.00  0.00     0.100 A 
ATOM      7  C   UNL d   1      59.538  -9.730  32.511  0.00  0.00     0.152 A 
ATOM      8  C   UNL d   1      58.761  -9.779  29.763  0.00  0.00     0.175 A 
ATOM      9  C   UNL d   1      58.141  -9.690  32.158  0.00  0.00     0.269 A 
ATOM     10  C   UNL d   1      57.756  -9.715  30.781  0.00  0.00     0.016 A 
ATOM     11  C   UNL d   1      60.125  -9.735  33.083  0.00  0.00     0.035 A 
ATOM     12  C   UNL d   1      58.535  -9.666  33.536  0.00  0.00     0.084 A 
ATOM     13  N   UNL d   1      58.963  -9.808  28.958  0.00  0.00    -0.128 N 
ATOM     14  O   UNL d   1      57.350  -9.656  32.383  0.00  0.00    -0.266 OA
ATOM     15  C   UNL d   1      59.133  -9.672  34.105  0.00  0.00     0.019 A 
ATOM     16  C   UNL d   1      59.928  -9.706  33.878  0.00  0.00     0.005 A 
ATOM     17  C   UNL d   1      60.917  -9.769  32.849  0.00  0.00     0.003 C 
ENDROOT
BRANCH   3  18
ATOM     18  C   UNL d   1      60.136  -9.817  30.115  0.00  0.00     0.084 C 
BRANCH  18  19
ATOM     19  C   UNL d   1      60.463  -9.215  29.650  0.00  0.00     0.037 A 
ATOM     20  C   UNL d   1      60.440  -8.443  29.915  0.00  0.00     0.100 A 
ATOM     21  N   UNL d   1      60.763  -7.838  29.457  0.00  0.00    -0.242 NA
ATOM     22  C   UNL d   1      61.109  -8.022  28.733  0.00  0.00     0.099 A 
ATOM     23  C   UNL d   1      61.132  -8.803  28.466  0.00  0.00     0.021 A 
ATOM     24  C   UNL d   1      60.807  -9.398  28.930  0.00  0.00     0.005 A 
ENDBRANCH  18  19
ENDBRANCH   3  18
BRANCH   6  25
ATOM     25  C   UNL d   1      57.377  -9.740  29.406  0.00  0.00     0.299 C 
ATOM     26  O   UNL d   1      57.575  -9.723  28.598  0.00  0.00    -0.259 OA
BRANCH  25  27
ATOM     27  O   UNL d   1      56.586  -9.752  29.628  0.00  0.00    -0.296 OA
ATOM     28  C   UNL d   1      55.990  -9.738  29.057  0.00  0.00     0.185 C 
ENDBRANCH  25  27
ENDBRANCH   6  25
TORSDOF 4
ENDMDL
MODEL 3
REMARK VINA RESULT:       2.1      1.508      2.928
REMARK  4 active torsions:
REMARK  status: ('A' for Active; 'I' for Inactive)
REMARK    1  A    between atoms: C_13  and  N_3 
REMARK    2  A    between atoms: C_11  and  C_6 
REMARK    3  A    between atoms: O_22  and  C_11 
REMARK    4  A    between atoms: C_21  and  C_13 
ROOT
ATOM      1  C   UNL d   1      57.840  -0.812  30.689  0.00  0.00     0.155 A 
ATOM      2  C   UNL d   1      58.174  -0.176  31.090  0.00  0.00     0.091 A 
ATOM      3  N   UNL d   1      58.120  -1.024  29.946  0.00  0.00    -0.274 N 
ATOM      4  N   UNL d   1      57.223  -1.239  31.034  0.00  0.00    -0.210 NA
ATOM      5  N   UNL d   1      57.278  -0.387  32.180  0.00  0.00    -0.258 N 
ATOM      6  C   UNL d   1      59.070   0.034  29.996  0.00  0.00     0.100 A 
ATOM      7  C   UNL d   1      56.938  -1.028  31.783  0.00  0.00     0.152 A 
ATOM      8  C   UNL d   1      58.731  -0.604  29.601  0.00  0.00     0.175 A 
ATOM      9  C   UNL d   1      57.898   0.045  31.839  0.00  0.00     0.269 A 
ATOM     10  C   UNL d   1      58.795   0.254  30.745  0.00  0.00     0.016 A 
ATOM     11  C   UNL d   1      56.325  -1.451  32.126  0.00  0.00     0.035 A 
ATOM     12  C   UNL d   1      56.996  -0.171  32.933  0.00  0.00     0.084 A 
ATOM     13  N   UNL d   1      59.015  -0.818  28.850  0.00  0.00    -0.128 N 
ATOM     14  O   UNL d   1      58.232   0.682  32.240  0.00  0.00    -0.266 OA
ATOM     15  C   UNL d   1      56.379  -0.603  33.270  0.00  0.00     0.019 A 
ATOM     16  C   UNL d   1      56.043  -1.242  32.867  0.00  0.00     0.005 A 
ATOM     17  C   UNL d   1      55.995  -2.089  31.717  0.00  0.00     0.003 C 
ENDROOT
BRANCH   3  18
ATOM     18  C   UNL d   1      57.784  -1.661  29.549  0.00  0.00     0.084 C 
BRANCH  18  19
ATOM     19  C   UNL d   1      58.242  -2.328  29.373  0.00  0.00     0.037 A 
ATOM     20  C   UNL d   1      58.872  -2.524  29.853  0.00  0.00     0.100 A 
ATOM     21  N   UNL d   1      59.332  -3.187  29.684  0.00  0.00    -0.242 NA
ATOM     22  C   UNL d   1      59.148  -3.647  29.026  0.00  0.00     0.099 A 
ATOM     23  C   UNL d   1      58.511  -3.449  28.540  0.00  0.00     0.021 A 
ATOM     24  C   UNL d   1      58.059  -2.786  28.719  0.00  0.00     0.005 A 
ENDBRANCH  18  19
ENDBRANCH   3  18
BRANCH   6  25
ATOM     25  C   UNL d   1      59.687   0.459  29.651  0.00  0.00     0.299 C 
ATOM     26  O   UNL d   1      59.649   0.682  28.850  0.00  0.00    -0.259 OA
BRANCH  25  27
ATOM     27  O   UNL d   1      60.344   0.666  30.097  0.00  0.00    -0.296 OA
ATOM     28  C   UNL d   1      61.105   0.577  29.789  0.00  0.00     0.185 C 
ENDBRANCH  25  27
ENDBRANCH   6  25
TORSDOF 4
ENDMDL
