MODEL 1
REMARK VINA RESULT:      -9.2      0.000      0.000
REMARK  4 active torsions:
REMARK  status: ('A' for Active; 'I' for Inactive)
REMARK    1  A    between atoms: C_2  and  S_1 
REMARK    2  A    between atoms: N_5  and  S_1 
REMARK    3  A    between atoms: C_12  and  N_5 
REMARK    4  A    between atoms: C_13  and  C_12 
ROOT
ATOM      1  S   UNL d   1      52.939  32.938  53.559  0.00  0.00     0.285 S 
ATOM      2  O   UNL d   1      52.238  32.853  53.985  0.00  0.00    -0.198 OA
ATOM      3  O   UNL d   1      53.641  33.022  53.134  0.00  0.00    -0.198 OA
ENDROOT
BRANCH   1   4
ATOM      4  C   UNL d   1      52.997  33.722  53.810  0.00  0.00     0.105 A 
ATOM      5  C   UNL d   1      53.443  33.920  54.468  0.00  0.00     0.012 A 
ATOM      6  C   UNL d   1      53.501  34.703  54.718  0.00  0.00     0.001 A 
ATOM      7  C   UNL d   1      53.840  33.316  54.882  0.00  0.00     0.001 C 
ATOM      8  C   UNL d   1      53.113  35.296  54.314  0.00  0.00     0.000 A 
ATOM      9  C   UNL d   1      52.661  35.107  53.650  0.00  0.00     0.001 A 
ATOM     10  C   UNL d   1      53.171  36.080  54.565  0.00  0.00     0.000 C 
ATOM     11  C   UNL d   1      52.604  34.324  53.400  0.00  0.00     0.012 A 
ATOM     12  C   UNL d   1      52.151  34.129  52.733  0.00  0.00     0.001 C 
ENDBRANCH   1   4
BRANCH   1  13
ATOM     13  N   UNL d   1      52.882  32.161  53.310  0.00  0.00    -0.157 NA
BRANCH  13  14
ATOM     14  C   UNL d   1      53.413  31.602  53.578  0.00  0.00     0.112 C 
BRANCH  14  15
ATOM     15  C   UNL d   1      53.242  30.807  53.502  0.00  0.00     0.023 A 
ATOM     16  C   UNL d   1      52.859  30.522  52.834  0.00  0.00     0.022 A 
ATOM     17  C   UNL d   1      52.685  29.723  52.754  0.00  0.00     0.099 A 
ATOM     18  N   UNL d   1      52.900  29.199  53.355  0.00  0.00    -0.242 NA
ATOM     19  C   UNL d   1      53.283  29.468  54.028  0.00  0.00     0.099 A 
ATOM     20  C   UNL d   1      53.458  30.278  54.107  0.00  0.00     0.022 A 
ENDBRANCH  14  15
ENDBRANCH  13  14
ENDBRANCH   1  13
TORSDOF 4
ENDMDL
MODEL 2
REMARK VINA RESULT:      -9.1      2.028      3.706
REMARK  4 active torsions:
REMARK  status: ('A' for Active; 'I' for Inactive)
REMARK    1  A    between atoms: C_2  and  S_1 
REMARK    2  A    between atoms: N_5  and  S_1 
REMARK    3  A    between atoms: C_12  and  N_5 
REMARK    4  A    between atoms: C_13  and  C_12 
ROOT
ATOM      1  S   UNL d   1      52.324  34.140  53.321  0.00  0.00     0.285 S 
ATOM      2  O   UNL d   1      52.817  34.583  52.830  0.00  0.00    -0.198 OA
ATOM      3  O   UNL d   1      51.831  33.698  53.812  0.00  0.00    -0.198 OA
ENDROOT
BRANCH   1   4
ATOM      4  C   UNL d   1      52.969  33.955  53.801  0.00  0.00     0.105 A 
ATOM      5  C   UNL d   1      53.235  34.482  54.369  0.00  0.00     0.012 A 
ATOM      6  C   UNL d   1      53.879  34.297  54.848  0.00  0.00     0.001 A 
ATOM      7  C   UNL d   1      52.843  35.212  54.455  0.00  0.00     0.001 C 
ATOM      8  C   UNL d   1      54.264  33.584  54.765  0.00  0.00     0.000 A 
ATOM      9  C   UNL d   1      54.005  33.045  54.197  0.00  0.00     0.001 A 
ATOM     10  C   UNL d   1      54.909  33.399  55.246  0.00  0.00     0.000 C 
ATOM     11  C   UNL d   1      53.361  33.230  53.717  0.00  0.00     0.012 A 
ATOM     12  C   UNL d   1      53.096  32.693  53.144  0.00  0.00     0.001 C 
ENDBRANCH   1   4
BRANCH   1  13
ATOM     13  N   UNL d   1      51.685  34.324  52.845  0.00  0.00    -0.157 NA
BRANCH  13  14
ATOM     14  C   UNL d   1      50.932  34.096  53.060  0.00  0.00     0.112 C 
BRANCH  14  15
ATOM     15  C   UNL d   1      50.290  34.338  52.616  0.00  0.00     0.023 A 
ATOM     16  C   UNL d   1      50.217  34.117  51.829  0.00  0.00     0.022 A 
ATOM     17  C   UNL d   1      49.572  34.358  51.381  0.00  0.00     0.099 A 
ATOM     18  N   UNL d   1      48.990  34.830  51.727  0.00  0.00    -0.242 NA
ATOM     19  C   UNL d   1      49.049  35.059  52.512  0.00  0.00     0.099 A 
ATOM     20  C   UNL d   1      49.703  34.813  52.965  0.00  0.00     0.022 A 
ENDBRANCH  14  15
ENDBRANCH  13  14
ENDBRANCH   1  13
TORSDOF 4
ENDMDL
MODEL 3
REMARK VINA RESULT:      -7.5      1.227      4.270
REMARK  4 active torsions:
REMARK  status: ('A' for Active; 'I' for Inactive)
REMARK    1  A    between atoms: C_2  and  S_1 
REMARK    2  A    between atoms: N_5  and  S_1 
REMARK    3  A    between atoms: C_12  and  N_5 
REMARK    4  A    between atoms: C_13  and  C_12 
ROOT
ATOM      1  S   UNL d   1      53.135  32.530  53.451  0.00  0.00     0.285 S 
ATOM      2  O   UNL d   1      53.169  32.622  52.632  0.00  0.00    -0.198 OA
ATOM      3  O   UNL d   1      53.102  32.438  54.270  0.00  0.00    -0.198 OA
ENDROOT
BRANCH   1   4
ATOM      4  C   UNL d   1      53.093  31.711  53.357  0.00  0.00     0.105 A 
ATOM      5  C   UNL d   1      52.390  31.348  53.148  0.00  0.00     0.012 A 
ATOM      6  C   UNL d   1      52.348  30.531  53.054  0.00  0.00     0.001 A 
ATOM      7  C   UNL d   1      51.714  31.820  53.030  0.00  0.00     0.001 C 
ATOM      8  C   UNL d   1      53.009  30.067  53.169  0.00  0.00     0.000 A 
ATOM      9  C   UNL d   1      53.722  30.423  53.381  0.00  0.00     0.001 A 
ATOM     10  C   UNL d   1      52.966  29.249  53.076  0.00  0.00     0.000 C 
ATOM     11  C   UNL d   1      53.764  31.240  53.474  0.00  0.00     0.012 A 
ATOM     12  C   UNL d   1      54.480  31.602  53.687  0.00  0.00     0.001 C 
ENDBRANCH   1   4
BRANCH   1  13
ATOM     13  N   UNL d   1      53.177  33.342  53.544  0.00  0.00    -0.157 NA
BRANCH  13  14
ATOM     14  C   UNL d   1      52.843  33.699  54.196  0.00  0.00     0.112 C 
BRANCH  14  15
ATOM     15  C   UNL d   1      52.963  34.497  54.331  0.00  0.00     0.023 A 
ATOM     16  C   UNL d   1      52.801  35.050  53.747  0.00  0.00     0.022 A 
ATOM     17  C   UNL d   1      52.921  35.852  53.880  0.00  0.00     0.099 A 
ATOM     18  N   UNL d   1      53.209  36.104  54.611  0.00  0.00    -0.242 NA
ATOM     19  C   UNL d   1      53.376  35.563  55.205  0.00  0.00     0.099 A 
ATOM     20  C   UNL d   1      53.253  34.751  55.068  0.00  0.00     0.022 A 
ENDBRANCH  14  15
ENDBRANCH  13  14
ENDBRANCH   1  13
TORSDOF 4
ENDMDL
MODEL 4
REMARK VINA RESULT:      -7.3      2.361      3.312
REMARK  4 active torsions:
REMARK  status: ('A' for Active; 'I' for Inactive)
REMARK    1  A    between atoms: C_2  and  S_1 
REMARK    2  A    between atoms: N_5  and  S_1 
REMARK    3  A    between atoms: C_12  and  N_5 
REMARK    4  A    between atoms: C_13  and  C_12 
ROOT
ATOM      1  S   UNL d   1      51.920  34.095  53.301  0.00  0.00     0.285 S 
ATOM      2  O   UNL d   1      51.971  34.916  53.357  0.00  0.00    -0.198 OA
ATOM      3  O   UNL d   1      51.868  33.273  53.246  0.00  0.00    -0.198 OA
ENDROOT
BRANCH   1   4
ATOM      4  C   UNL d   1      51.276  34.169  52.790  0.00  0.00     0.105 A 
ATOM      5  C   UNL d   1      50.509  34.131  53.073  0.00  0.00     0.012 A 
ATOM      6  C   UNL d   1      49.866  34.206  52.563  0.00  0.00     0.001 A 
ATOM      7  C   UNL d   1      50.386  34.014  53.888  0.00  0.00     0.001 C 
ATOM      8  C   UNL d   1      49.984  34.320  51.764  0.00  0.00     0.000 A 
ATOM      9  C   UNL d   1      50.753  34.360  51.468  0.00  0.00     0.001 A 
ATOM     10  C   UNL d   1      49.341  34.395  51.253  0.00  0.00     0.000 C 
ATOM     11  C   UNL d   1      51.396  34.285  51.979  0.00  0.00     0.012 A 
ATOM     12  C   UNL d   1      52.171  34.325  51.687  0.00  0.00     0.001 C 
ENDBRANCH   1   4
BRANCH   1  13
ATOM     13  N   UNL d   1      52.558  34.020  53.808  0.00  0.00    -0.157 NA
BRANCH  13  14
ATOM     14  C   UNL d   1      53.029  33.355  53.782  0.00  0.00     0.112 C 
BRANCH  14  15
ATOM     15  C   UNL d   1      53.720  33.328  54.217  0.00  0.00     0.023 A 
ATOM     16  C   UNL d   1      53.701  33.352  55.038  0.00  0.00     0.022 A 
ATOM     17  C   UNL d   1      54.395  33.324  55.477  0.00  0.00     0.099 A 
ATOM     18  N   UNL d   1      55.120  33.271  55.089  0.00  0.00    -0.242 NA
ATOM     19  C   UNL d   1      55.156  33.246  54.270  0.00  0.00     0.099 A 
ATOM     20  C   UNL d   1      54.452  33.274  53.825  0.00  0.00     0.022 A 
ENDBRANCH  14  15
ENDBRANCH  13  14
ENDBRANCH   1  13
TORSDOF 4
ENDMDL
