MODEL 1
REMARK VINA RESULT:      -2.8      0.000      0.000
REMARK  3 active torsions:
REMARK  status: ('A' for Active; 'I' for Inactive)
REMARK       I    between atoms: C_2  and  N_1 
REMARK    1  A    between atoms: C_4  and  N_1 
REMARK    2  A    between atoms: C_5  and  N_1 
REMARK    3  A    between atoms: C_6  and  C_2 
ROOT
ATOM      1  N   UNL d   1     -42.351-123.041 -49.524  0.00  0.00    -0.274 N 
ATOM      2  C   UNL d   1     -41.934-123.045 -48.794  0.00  0.00     0.276 C 
ATOM      3  O   UNL d   1     -41.123-122.991 -48.794  0.00  0.00    -0.266 OA
ENDROOT
BRANCH   1   4
ATOM      4  C   UNL d   1     -41.941-122.983 -50.236  0.00  0.00     0.067 A 
ATOM      5  C   UNL d   1     -41.718-123.660 -50.652  0.00  0.00     0.018 A 
ATOM      6  C   UNL d   1     -41.306-123.566 -51.366  0.00  0.00     0.002 A 
ATOM      7  C   UNL d   1     -41.123-122.815 -51.654  0.00  0.00     0.000 A 
ATOM      8  C   UNL d   1     -41.348-122.155 -51.236  0.00  0.00     0.002 A 
ATOM      9  C   UNL d   1     -41.759-122.231 -50.522  0.00  0.00     0.018 A 
ENDBRANCH   1   4
BRANCH   1  10
ATOM     10  C   UNL d   1     -43.168-123.096 -49.507  0.00  0.00     0.067 C 
ATOM     11  C   UNL d   1     -43.622-122.386 -49.568  0.00  0.00     0.019 C 
ATOM     12  C   UNL d   1     -43.564-123.812 -49.434  0.00  0.00     0.019 C 
ENDBRANCH   1  10
BRANCH   2  13
ATOM     13  C   UNL d   1     -42.355-123.104 -48.093  0.00  0.00     0.129 C 
ATOM     14 CL   UNL d   1     -41.936-123.200 -47.386  0.00  0.00    -0.076 Cl
ENDBRANCH   2  13
TORSDOF 3
ENDMDL
MODEL 2
REMARK VINA RESULT:      -2.6      1.119      1.537
REMARK  3 active torsions:
REMARK  status: ('A' for Active; 'I' for Inactive)
REMARK       I    between atoms: C_2  and  N_1 
REMARK    1  A    between atoms: C_4  and  N_1 
REMARK    2  A    between atoms: C_5  and  N_1 
REMARK    3  A    between atoms: C_6  and  C_2 
ROOT
ATOM      1  N   UNL d   1     -41.919-122.915 -49.793  0.00  0.00    -0.274 N 
ATOM      2  C   UNL d   1     -42.743-122.962 -49.634  0.00  0.00     0.276 C 
ATOM      3  O   UNL d   1     -43.277-122.818 -50.231  0.00  0.00    -0.266 OA
ENDROOT
BRANCH   1   4
ATOM      4  C   UNL d   1     -41.652-122.725 -50.548  0.00  0.00     0.067 A 
ATOM      5  C   UNL d   1     -41.385-123.312 -51.063  0.00  0.00     0.018 A 
ATOM      6  C   UNL d   1     -41.123-123.086 -51.817  0.00  0.00     0.002 A 
ATOM      7  C   UNL d   1     -41.127-122.295 -52.048  0.00  0.00     0.000 A 
ATOM      8  C   UNL d   1     -41.392-121.724 -51.533  0.00  0.00     0.002 A 
ATOM      9  C   UNL d   1     -41.657-121.933 -50.777  0.00  0.00     0.018 A 
ENDBRANCH   1   4
BRANCH   1  10
ATOM     10  C   UNL d   1     -41.395-123.063 -49.181  0.00  0.00     0.067 C 
ATOM     11  C   UNL d   1     -41.123-122.412 -48.717  0.00  0.00     0.019 C 
ATOM     12  C   UNL d   1     -41.123-123.817 -49.001  0.00  0.00     0.019 C 
ENDBRANCH   1  10
BRANCH   2  13
ATOM     13  C   UNL d   1     -42.994-123.152 -48.878  0.00  0.00     0.129 C 
ATOM     14 CL   UNL d   1     -43.753-123.469 -48.781  0.00  0.00    -0.076 Cl
ENDBRANCH   2  13
TORSDOF 3
ENDMDL
MODEL 3
REMARK VINA RESULT:      -2.4      1.837      2.991
REMARK  3 active torsions:
REMARK  status: ('A' for Active; 'I' for Inactive)
REMARK       I    between atoms: C_2  and  N_1 
REMARK    1  A    between atoms: C_4  and  N_1 
REMARK    2  A    between atoms: C_5  and  N_1 
REMARK    3  A    between atoms: C_6  and  C_2 
ROOT
ATOM      1  N   UNL d   1     -41.720-122.446 -50.985  0.00  0.00    -0.274 N 
ATOM      2  C   UNL d   1     -41.461-123.001 -51.560  0.00  0.00     0.276 C 
ATOM      3  O   UNL d   1     -41.439-123.793 -51.375  0.00  0.00    -0.266 OA
ENDROOT
BRANCH   1   4
ATOM      4  C   UNL d   1     -41.952-122.702 -50.237  0.00  0.00     0.067 A 
ATOM      5  C   UNL d   1     -42.750-122.757 -50.036  0.00  0.00     0.018 A 
ATOM      6  C   UNL d   1     -42.949-123.018 -49.274  0.00  0.00     0.002 A 
ATOM      7  C   UNL d   1     -42.364-123.218 -48.728  0.00  0.00     0.000 A 
ATOM      8  C   UNL d   1     -41.580-123.160 -48.936  0.00  0.00     0.002 A 
ATOM      9  C   UNL d   1     -41.364-122.901 -49.693  0.00  0.00     0.018 A 
ENDBRANCH   1   4
BRANCH   1  10
ATOM     10  C   UNL d   1     -41.736-121.653 -51.186  0.00  0.00     0.067 C 
ATOM     11  C   UNL d   1     -42.409-121.356 -51.603  0.00  0.00     0.019 C 
ATOM     12  C   UNL d   1     -41.127-121.134 -51.001  0.00  0.00     0.019 C 
ENDBRANCH   1  10
BRANCH   2  13
ATOM     13  C   UNL d   1     -41.234-122.732 -52.301  0.00  0.00     0.129 C 
ATOM     14 CL   UNL d   1     -41.127-123.286 -52.907  0.00  0.00    -0.076 Cl
ENDBRANCH   2  13
TORSDOF 3
ENDMDL
MODEL 4
REMARK VINA RESULT:      -2.2      2.876      3.815
REMARK  3 active torsions:
REMARK  status: ('A' for Active; 'I' for Inactive)
REMARK       I    between atoms: C_2  and  N_1 
REMARK    1  A    between atoms: C_4  and  N_1 
REMARK    2  A    between atoms: C_5  and  N_1 
REMARK    3  A    between atoms: C_6  and  C_2 
ROOT
ATOM      1  N   UNL d   1     -41.555-122.467 -52.935  0.00  0.00    -0.274 N 
ATOM      2  C   UNL d   1     -41.265-121.845 -52.450  0.00  0.00     0.276 C 
ATOM      3  O   UNL d   1     -41.132-121.111 -52.774  0.00  0.00    -0.266 OA
ENDROOT
BRANCH   1   4
ATOM      4  C   UNL d   1     -41.702-122.336 -53.734  0.00  0.00     0.067 A 
ATOM      5  C   UNL d   1     -41.123-122.488 -54.302  0.00  0.00     0.018 A 
ATOM      6  C   UNL d   1     -41.305-122.345 -55.099  0.00  0.00     0.002 A 
ATOM      7  C   UNL d   1     -42.045-122.058 -55.320  0.00  0.00     0.000 A 
ATOM      8  C   UNL d   1     -42.609-121.913 -54.753  0.00  0.00     0.002 A 
ATOM      9  C   UNL d   1     -42.444-122.050 -53.953  0.00  0.00     0.018 A 
ENDBRANCH   1   4
BRANCH   1  10
ATOM     10  C   UNL d   1     -41.684-123.200 -52.593  0.00  0.00     0.067 C 
ATOM     11  C   UNL d   1     -41.125-123.817 -52.737  0.00  0.00     0.019 C 
ATOM     12  C   UNL d   1     -42.334-123.361 -52.117  0.00  0.00     0.019 C 
ENDBRANCH   1  10
BRANCH   2  13
ATOM     13  C   UNL d   1     -41.123-121.990 -51.656  0.00  0.00     0.129 C 
ATOM     14 CL   UNL d   1     -41.230-121.372 -51.115  0.00  0.00    -0.076 Cl
ENDBRANCH   2  13
TORSDOF 3
ENDMDL
MODEL 5
REMARK VINA RESULT:      -1.4      2.914      3.881
REMARK  3 active torsions:
REMARK  status: ('A' for Active; 'I' for Inactive)
REMARK       I    between atoms: C_2  and  N_1 
REMARK    1  A    between atoms: C_4  and  N_1 
REMARK    2  A    between atoms: C_5  and  N_1 
REMARK    3  A    between atoms: C_6  and  C_2 
ROOT
ATOM      1  N   UNL d   1     -41.619-122.365 -52.983  0.00  0.00    -0.274 N 
ATOM      2  C   UNL d   1     -41.350-123.080 -52.631  0.00  0.00     0.276 C 
ATOM      3  O   UNL d   1     -41.276-123.750 -53.087  0.00  0.00    -0.266 OA
ENDROOT
BRANCH   1   4
ATOM      4  C   UNL d   1     -41.807-122.342 -53.784  0.00  0.00     0.067 A 
ATOM      5  C   UNL d   1     -42.591-122.392 -54.037  0.00  0.00     0.018 A 
ATOM      6  C   UNL d   1     -42.745-122.366 -54.851  0.00  0.00     0.002 A 
ATOM      7  C   UNL d   1     -42.132-122.291 -55.397  0.00  0.00     0.000 A 
ATOM      8  C   UNL d   1     -41.363-122.243 -55.137  0.00  0.00     0.002 A 
ATOM      9  C   UNL d   1     -41.191-122.267 -54.328  0.00  0.00     0.018 A 
ENDBRANCH   1   4
BRANCH   1  10
ATOM     10  C   UNL d   1     -41.688-121.700 -52.510  0.00  0.00     0.067 C 
ATOM     11  C   UNL d   1     -41.123-121.078 -52.604  0.00  0.00     0.019 C 
ATOM     12  C   UNL d   1     -42.282-121.611 -51.950  0.00  0.00     0.019 C 
ENDBRANCH   1  10
BRANCH   2  13
ATOM     13  C   UNL d   1     -41.167-123.089 -51.832  0.00  0.00     0.129 C 
ATOM     14 CL   UNL d   1     -41.138-123.817 -51.440  0.00  0.00    -0.076 Cl
ENDBRANCH   2  13
TORSDOF 3
ENDMDL
MODEL 6
REMARK VINA RESULT:      -1.0      1.298      2.806
REMARK  3 active torsions:
REMARK  status: ('A' for Active; 'I' for Inactive)
REMARK       I    between atoms: C_2  and  N_1 
REMARK    1  A    between atoms: C_4  and  N_1 
REMARK    2  A    between atoms: C_5  and  N_1 
REMARK    3  A    between atoms: C_6  and  C_2 
ROOT
ATOM      1  N   UNL d   1     -42.319-123.042 -49.383  0.00  0.00    -0.274 N 
ATOM      2  C   UNL d   1     -41.701-123.369 -49.849  0.00  0.00     0.276 C 
ATOM      3  O   UNL d   1     -41.123-123.817 -49.495  0.00  0.00    -0.266 OA
ENDROOT
BRANCH   1   4
ATOM      4  C   UNL d   1     -42.341-123.175 -48.571  0.00  0.00     0.067 A 
ATOM      5  C   UNL d   1     -41.790-122.819 -48.069  0.00  0.00     0.018 A 
ATOM      6  C   UNL d   1     -41.840-122.974 -47.256  0.00  0.00     0.002 A 
ATOM      7  C   UNL d   1     -42.424-123.471 -46.953  0.00  0.00     0.000 A 
ATOM      8  C   UNL d   1     -42.961-123.817 -47.457  0.00  0.00     0.002 A 
ATOM      9  C   UNL d   1     -42.926-123.673 -48.271  0.00  0.00     0.018 A 
ENDBRANCH   1   4
BRANCH   1  10
ATOM     10  C   UNL d   1     -42.894-122.593 -49.756  0.00  0.00     0.067 C 
ATOM     11  C   UNL d   1     -43.690-122.879 -49.759  0.00  0.00     0.019 C 
ATOM     12  C   UNL d   1     -42.730-121.878 -50.126  0.00  0.00     0.019 C 
ENDBRANCH   1  10
BRANCH   2  13
ATOM     13  C   UNL d   1     -41.693-123.228 -50.657  0.00  0.00     0.129 C 
ATOM     14 CL   UNL d   1     -41.397-123.817 -51.158  0.00  0.00    -0.076 Cl
ENDBRANCH   2  13
TORSDOF 3
ENDMDL
