MODEL 1
REMARK VINA RESULT:      -2.6      0.000      0.000
REMARK  9 active torsions:
REMARK  status: ('A' for Active; 'I' for Inactive)
REMARK    1  A    between atoms: N_4  and  C_1 
REMARK       I    between atoms: C_8  and  N_4 
REMARK    2  A    between atoms: C_19  and  N_4 
REMARK    3  A    between atoms: S_6  and  C_11 
REMARK    4  A    between atoms: C_14  and  S_6 
REMARK    5  A    between atoms: C_10  and  C_8 
REMARK    6  A    between atoms: C_11  and  C_10 
REMARK    7  A    between atoms: C_20  and  C_19 
REMARK    8  A    between atoms: C_23  and  C_20 
REMARK    9  A    between atoms: N_21  and  C_23 
ROOT
ATOM      1  N   UNL d   1      57.764  -0.428  30.949  0.00  0.00    -0.253 N 
ATOM      2  C   UNL d   1      57.856  -1.206  30.680  0.00  0.00     0.267 C 
ATOM      3  O   UNL d   1      57.458  -1.820  31.044  0.00  0.00    -0.267 OA
ENDROOT
BRANCH   1   4
ATOM      4  C   UNL d   1      57.260  -0.278  31.596  0.00  0.00     0.182 A 
ATOM      5  N   UNL d   1      57.490   0.046  32.315  0.00  0.00    -0.222 NA
ATOM      6  C   UNL d   1      56.820   0.101  32.805  0.00  0.00     0.089 A 
ATOM      7  C   UNL d   1      56.721   0.375  33.563  0.00  0.00     0.018 A 
ATOM      8  C   UNL d   1      56.179  -0.192  32.377  0.00  0.00     0.050 A 
ATOM      9  C   UNL d   1      55.975   0.363  33.918  0.00  0.00     0.002 A 
ATOM     10  C   UNL d   1      57.365   0.669  33.990  0.00  0.00     0.002 C 
ATOM     11  C   UNL d   1      55.868   0.636  34.680  0.00  0.00     0.000 C 
ATOM     12  C   UNL d   1      55.339   0.070  33.492  0.00  0.00     0.001 A 
ATOM     13  C   UNL d   1      55.447  -0.206  32.722  0.00  0.00     0.008 A 
ATOM     14  S   UNL d   1      56.444  -0.429  31.629  0.00  0.00    -0.048 SA
ENDBRANCH   1   4
BRANCH   1  15
ATOM     15  C   UNL d   1      58.165   0.192  30.582  0.00  0.00     0.086 C 
BRANCH  15  16
ATOM     16  C   UNL d   1      58.838   0.519  30.942  0.00  0.00     0.038 C 
BRANCH  16  17
ATOM     17  C   UNL d   1      59.551   0.549  30.529  0.00  0.00     0.082 C 
BRANCH  17  18
ATOM     18  N   UNL d   1      60.266   0.552  30.939  0.00  0.00    -0.300 N 
ATOM     19  C   UNL d   1      60.976   0.658  30.531  0.00  0.00     0.100 C 
ATOM     20  C   UNL d   1      60.270   0.450  31.755  0.00  0.00     0.100 C 
ENDBRANCH  17  18
ENDBRANCH  16  17
ENDBRANCH  15  16
ENDBRANCH   1  15
BRANCH   2  21
ATOM     21  C   UNL d   1      58.358  -1.350  30.038  0.00  0.00     0.073 C 
BRANCH  21  22
ATOM     22  C   UNL d   1      58.199  -1.997  29.541  0.00  0.00     0.104 C 
BRANCH  22  23
ATOM     23  S   UNL d   1      58.816  -2.478  29.268  0.00  0.00     0.211 S 
ATOM     24  O   UNL d   1      58.370  -3.151  29.458  0.00  0.00    -0.217 OA
ATOM     25  O   UNL d   1      59.264  -1.796  29.077  0.00  0.00    -0.217 OA
BRANCH  23  26
ATOM     26  C   UNL d   1      59.431  -2.958  28.996  0.00  0.00     0.088 A 
ATOM     27  C   UNL d   1      59.267  -3.720  28.743  0.00  0.00     0.011 A 
ATOM     28  C   UNL d   1      59.887  -4.204  28.468  0.00  0.00     0.001 A 
ATOM     29  C   UNL d   1      60.652  -3.911  28.455  0.00  0.00     0.000 A 
ATOM     30  C   UNL d   1      60.819  -3.152  28.707  0.00  0.00     0.001 A 
ATOM     31  C   UNL d   1      60.205  -2.673  28.979  0.00  0.00     0.011 A 
ENDBRANCH  23  26
ENDBRANCH  22  23
ENDBRANCH  21  22
ENDBRANCH   2  21
TORSDOF 9
ENDMDL
MODEL 2
REMARK VINA RESULT:      -1.9      1.015      1.450
REMARK  9 active torsions:
REMARK  status: ('A' for Active; 'I' for Inactive)
REMARK    1  A    between atoms: N_4  and  C_1 
REMARK       I    between atoms: C_8  and  N_4 
REMARK    2  A    between atoms: C_19  and  N_4 
REMARK    3  A    between atoms: S_6  and  C_11 
REMARK    4  A    between atoms: C_14  and  S_6 
REMARK    5  A    between atoms: C_10  and  C_8 
REMARK    6  A    between atoms: C_11  and  C_10 
REMARK    7  A    between atoms: C_20  and  C_19 
REMARK    8  A    between atoms: C_23  and  C_20 
REMARK    9  A    between atoms: N_21  and  C_23 
ROOT
ATOM      1  N   UNL d   1      56.985  -0.054  31.980  0.00  0.00    -0.253 N 
ATOM      2  C   UNL d   1      56.921  -0.774  31.576  0.00  0.00     0.267 C 
ATOM      3  O   UNL d   1      56.364  -1.328  31.800  0.00  0.00    -0.267 OA
ENDROOT
BRANCH   1   4
ATOM      4  C   UNL d   1      56.473   0.100  32.619  0.00  0.00     0.182 A 
ATOM      5  N   UNL d   1      56.696   0.147  33.409  0.00  0.00    -0.222 NA
ATOM      6  C   UNL d   1      56.019   0.308  33.865  0.00  0.00     0.089 A 
ATOM      7  C   UNL d   1      55.912   0.411  34.663  0.00  0.00     0.018 A 
ATOM      8  C   UNL d   1      55.381   0.358  33.346  0.00  0.00     0.050 A 
ATOM      9  C   UNL d   1      55.161   0.568  34.967  0.00  0.00     0.002 A 
ATOM     10  C   UNL d   1      56.554   0.360  35.183  0.00  0.00     0.002 C 
ATOM     11  C   UNL d   1      55.046   0.673  35.769  0.00  0.00     0.000 C 
ATOM     12  C   UNL d   1      54.527   0.618  34.450  0.00  0.00     0.001 A 
ATOM     13  C   UNL d   1      54.643   0.512  33.640  0.00  0.00     0.008 A 
ATOM     14  S   UNL d   1      55.655   0.231  32.574  0.00  0.00    -0.048 SA
ENDBRANCH   1   4
BRANCH   1  15
ATOM     15  C   UNL d   1      57.547   0.505  31.754  0.00  0.00     0.086 C 
BRANCH  15  16
ATOM     16  C   UNL d   1      58.241   0.597  32.200  0.00  0.00     0.038 C 
BRANCH  16  17
ATOM     17  C   UNL d   1      58.976   0.575  31.826  0.00  0.00     0.082 C 
BRANCH  17  18
ATOM     18  N   UNL d   1      59.667   0.623  32.271  0.00  0.00    -0.300 N 
ATOM     19  C   UNL d   1      59.627   0.682  33.093  0.00  0.00     0.100 C 
ATOM     20  C   UNL d   1      60.399   0.612  31.894  0.00  0.00     0.100 C 
ENDBRANCH  17  18
ENDBRANCH  16  17
ENDBRANCH  15  16
ENDBRANCH   1  15
BRANCH   2  21
ATOM     21  C   UNL d   1      57.432  -0.923  30.941  0.00  0.00     0.073 C 
BRANCH  21  22
ATOM     22  C   UNL d   1      57.476  -1.693  30.633  0.00  0.00     0.104 C 
BRANCH  22  23
ATOM     23  S   UNL d   1      58.088  -1.903  30.114  0.00  0.00     0.211 S 
ATOM     24  O   UNL d   1      58.308  -2.515  30.629  0.00  0.00    -0.217 OA
ATOM     25  O   UNL d   1      57.863  -1.284  29.597  0.00  0.00    -0.217 OA
BRANCH  23  26
ATOM     26  C   UNL d   1      58.698  -2.113  29.598  0.00  0.00     0.088 A 
ATOM     27  C   UNL d   1      58.863  -2.905  29.469  0.00  0.00     0.011 A 
ATOM     28  C   UNL d   1      59.478  -3.117  28.948  0.00  0.00     0.001 A 
ATOM     29  C   UNL d   1      59.909  -2.530  28.572  0.00  0.00     0.000 A 
ATOM     30  C   UNL d   1      59.746  -1.740  28.699  0.00  0.00     0.001 A 
ATOM     31  C   UNL d   1      59.137  -1.530  29.215  0.00  0.00     0.011 A 
ENDBRANCH  23  26
ENDBRANCH  22  23
ENDBRANCH  21  22
ENDBRANCH   2  21
TORSDOF 9
ENDMDL
