MODEL 1
REMARK VINA RESULT:      31.9      0.000      0.000
REMARK  4 active torsions:
REMARK  status: ('A' for Active; 'I' for Inactive)
REMARK    1  A    between atoms: C_2  and  N_1 
REMARK    2  A    between atoms: C_12  and  C_5 
REMARK    3  A    between atoms: O_20  and  C_12 
REMARK    4  A    between atoms: C_22  and  O_20 
ROOT
ATOM      1  N   UNL d   1     -57.517 -98.820 -43.968  0.00  0.00    -0.237 N 
ATOM      2  C   UNL d   1     -57.286 -98.799 -44.766  0.00  0.00     0.263 A 
ATOM      3  C   UNL d   1     -56.841 -98.865 -43.499  0.00  0.00     0.263 A 
ATOM      4  C   UNL d   1     -56.179 -98.872 -44.001  0.00  0.00     0.039 A 
ATOM      5  C   UNL d   1     -56.461 -98.831 -44.787  0.00  0.00     0.039 A 
ATOM      6  C   UNL d   1     -55.364 -98.911 -43.852  0.00  0.00     0.049 A 
ATOM      7  C   UNL d   1     -55.924 -98.829 -45.423  0.00  0.00     0.049 A 
ATOM      8  C   UNL d   1     -54.827 -98.908 -44.488  0.00  0.00    -0.026 A 
ATOM      9  C   UNL d   1     -55.104 -98.868 -45.273  0.00  0.00    -0.026 A 
ATOM     10  C   UNL d   1     -55.933 -98.868 -44.390  0.00  0.00     0.018 A 
ATOM     11  O   UNL d   1     -56.822 -98.895 -42.706  0.00  0.00    -0.267 OA
ATOM     12  O   UNL d   1     -57.763 -98.756 -45.392  0.00  0.00    -0.267 OA
ENDROOT
BRANCH   1  13
ATOM     13  C   UNL d   1     -58.275 -98.799 -43.704  0.00  0.00     0.105 A 
ATOM     14  C   UNL d   1     -58.924 -98.781 -44.166  0.00  0.00     0.086 A 
ATOM     15  C   UNL d   1     -59.558 -98.764 -43.689  0.00  0.00     0.014 A 
ATOM     16  C   UNL d   1     -59.293 -98.771 -42.937  0.00  0.00     0.031 A 
ATOM     17  S   UNL d   1     -58.504 -98.793 -42.947  0.00  0.00    -0.069 SA
ATOM     18  C   UNL d   1     -59.812 -98.757 -42.333  0.00  0.00     0.007 C 
BRANCH  14  19
ATOM     19  C   UNL d   1     -58.934 -98.781 -44.956  0.00  0.00     0.302 C 
ATOM     20  O   UNL d   1     -58.255 -98.807 -45.364  0.00  0.00    -0.259 OA
BRANCH  19  21
ATOM     21  O   UNL d   1     -59.629 -98.756 -45.348  0.00  0.00    -0.271 OA
BRANCH  21  22
ATOM     22  C   UNL d   1     -59.657 -99.249 -45.973  0.00  0.00     0.126 C 
ATOM     23  C   UNL d   1     -59.721 -98.953 -46.705  0.00  0.00     0.029 C 
ENDBRANCH  21  22
ENDBRANCH  19  21
ENDBRANCH  14  19
ENDBRANCH   1  13
TORSDOF 4
ENDMDL
