MODEL 1
REMARK VINA RESULT:      -1.7      0.000      0.000
REMARK  3 active torsions:
REMARK  status: ('A' for Active; 'I' for Inactive)
REMARK       I    between atoms: N_5  and  C_1 
REMARK       I    between atoms: N_6  and  C_1 
REMARK    1  A    between atoms: C_2  and  N_7 
REMARK    2  A    between atoms: C_9  and  N_5 
REMARK    3  A    between atoms: N_7  and  N_6 
ROOT
ATOM      1  C   UNL d   1     -42.582-123.437 -49.900  0.00  0.00     0.070 A 
ATOM      2  C   UNL d   1     -42.436-123.684 -50.676  0.00  0.00     0.032 A 
ATOM      3  C   UNL d   1     -41.725-123.544 -51.033  0.00  0.00     0.087 A 
ATOM      4  C   UNL d   1     -41.973-123.042 -49.504  0.00  0.00     0.068 A 
ATOM      5  C   UNL d   1     -41.247-122.900 -49.868  0.00  0.00     0.014 A 
ATOM      6 CL   UNL d   1     -43.306-123.573 -49.519  0.00  0.00    -0.081 Cl
ATOM      7  C   UNL d   1     -41.123-123.151 -50.633  0.00  0.00     0.020 A 
ATOM      8 CL   UNL d   1     -42.107-122.779 -48.696  0.00  0.00    -0.082 Cl
ENDROOT
BRANCH   3   9
ATOM      9  N   UNL d   1     -41.601-123.813 -51.843  0.00  0.00    -0.190 NA
ATOM     10  C   UNL d   1     -41.513-123.241 -52.459  0.00  0.00     0.387 C 
ATOM     11  N   UNL d   1     -41.547-122.447 -52.281  0.00  0.00    -0.086 NA
ATOM     12  O   UNL d   1     -41.394-123.500 -53.238  0.00  0.00    -0.241 OA
BRANCH  11  13
ATOM     13  N   UNL d   1     -41.664-122.200 -51.514  0.00  0.00    -0.111 NA
BRANCH  13  14
ATOM     14  C   UNL d   1     -41.766-121.394 -51.330  0.00  0.00     0.260 C 
ATOM     15  S   UNL d   1     -41.127-120.944 -51.073  0.00  0.00    -0.034 SA
ATOM     16  N   UNL d   1     -42.519-121.056 -51.410  0.00  0.00    -0.113 N 
ENDBRANCH  13  14
ENDBRANCH  11  13
ENDBRANCH   3   9
TORSDOF 3
ENDMDL
MODEL 2
REMARK VINA RESULT:      -1.5      2.555      3.090
REMARK  3 active torsions:
REMARK  status: ('A' for Active; 'I' for Inactive)
REMARK       I    between atoms: N_5  and  C_1 
REMARK       I    between atoms: N_6  and  C_1 
REMARK    1  A    between atoms: C_2  and  N_7 
REMARK    2  A    between atoms: C_9  and  N_5 
REMARK    3  A    between atoms: N_7  and  N_6 
ROOT
ATOM      1  C   UNL d   1     -41.234-122.249 -50.841  0.00  0.00     0.070 A 
ATOM      2  C   UNL d   1     -41.138-122.284 -50.020  0.00  0.00     0.032 A 
ATOM      3  C   UNL d   1     -41.230-122.978 -49.617  0.00  0.00     0.087 A 
ATOM      4  C   UNL d   1     -41.428-122.950 -51.233  0.00  0.00     0.068 A 
ATOM      5  C   UNL d   1     -41.523-123.659 -50.821  0.00  0.00     0.014 A 
ATOM      6 CL   UNL d   1     -41.143-121.545 -51.269  0.00  0.00    -0.081 Cl
ATOM      7  C   UNL d   1     -41.423-123.673 -50.013  0.00  0.00     0.020 A 
ATOM      8 CL   UNL d   1     -41.533-122.933 -52.086  0.00  0.00    -0.082 Cl
ENDROOT
BRANCH   3   9
ATOM      9  N   UNL d   1     -41.123-122.985 -48.761  0.00  0.00    -0.190 NA
ATOM     10  C   UNL d   1     -41.804-123.009 -48.260  0.00  0.00     0.387 C 
ATOM     11  N   UNL d   1     -42.548-123.026 -48.591  0.00  0.00    -0.086 NA
ATOM     12  O   UNL d   1     -41.701-123.016 -47.437  0.00  0.00    -0.241 OA
BRANCH  11  13
ATOM     13  N   UNL d   1     -42.642-123.019 -49.399  0.00  0.00    -0.111 NA
BRANCH  13  14
ATOM     14  C   UNL d   1     -43.398-123.035 -49.747  0.00  0.00     0.260 C 
ATOM     15  S   UNL d   1     -43.814-123.744 -49.800  0.00  0.00    -0.034 SA
ATOM     16  N   UNL d   1     -43.723-122.330 -50.036  0.00  0.00    -0.113 N 
ENDBRANCH  13  14
ENDBRANCH  11  13
ENDBRANCH   3   9
TORSDOF 3
ENDMDL
MODEL 3
REMARK VINA RESULT:      -1.0      1.737      2.142
REMARK  3 active torsions:
REMARK  status: ('A' for Active; 'I' for Inactive)
REMARK       I    between atoms: N_5  and  C_1 
REMARK       I    between atoms: N_6  and  C_1 
REMARK    1  A    between atoms: C_2  and  N_7 
REMARK    2  A    between atoms: C_9  and  N_5 
REMARK    3  A    between atoms: N_7  and  N_6 
ROOT
ATOM      1  C   UNL d   1     -42.472-123.014 -48.284  0.00  0.00     0.070 A 
ATOM      2  C   UNL d   1     -43.100-122.722 -48.735  0.00  0.00     0.032 A 
ATOM      3  C   UNL d   1     -43.177-122.909 -49.518  0.00  0.00     0.087 A 
ATOM      4  C   UNL d   1     -41.925-123.504 -48.663  0.00  0.00     0.068 A 
ATOM      5  C   UNL d   1     -42.003-123.695 -49.462  0.00  0.00     0.014 A 
ATOM      6 CL   UNL d   1     -42.379-122.832 -47.480  0.00  0.00    -0.081 Cl
ATOM      7  C   UNL d   1     -42.629-123.397 -49.889  0.00  0.00     0.020 A 
ATOM      8 CL   UNL d   1     -41.265-123.817 -48.210  0.00  0.00    -0.082 Cl
ENDROOT
BRANCH   3   9
ATOM      9  N   UNL d   1     -43.843-122.590 -49.964  0.00  0.00    -0.190 NA
ATOM     10  C   UNL d   1     -43.693-122.142 -50.665  0.00  0.00     0.387 C 
ATOM     11  N   UNL d   1     -42.926-122.018 -50.910  0.00  0.00    -0.086 NA
ATOM     12  O   UNL d   1     -44.333-121.835 -51.094  0.00  0.00    -0.241 OA
BRANCH  11  13
ATOM     13  N   UNL d   1     -42.302-122.323 -50.484  0.00  0.00    -0.111 NA
BRANCH  13  14
ATOM     14  C   UNL d   1     -41.514-122.167 -50.702  0.00  0.00     0.260 C 
ATOM     15  S   UNL d   1     -41.123-122.668 -51.225  0.00  0.00    -0.034 SA
ATOM     16  N   UNL d   1     -41.132-121.503 -50.385  0.00  0.00    -0.113 N 
ENDBRANCH  13  14
ENDBRANCH  11  13
ENDBRANCH   3   9
TORSDOF 3
ENDMDL
MODEL 4
REMARK VINA RESULT:       0.4      2.162      2.554
REMARK  3 active torsions:
REMARK  status: ('A' for Active; 'I' for Inactive)
REMARK       I    between atoms: N_5  and  C_1 
REMARK       I    between atoms: N_6  and  C_1 
REMARK    1  A    between atoms: C_2  and  N_7 
REMARK    2  A    between atoms: C_9  and  N_5 
REMARK    3  A    between atoms: N_7  and  N_6 
ROOT
ATOM      1  C   UNL d   1     -41.189-123.376 -51.927  0.00  0.00     0.070 A 
ATOM      2  C   UNL d   1     -41.170-123.744 -52.668  0.00  0.00     0.032 A 
ATOM      3  C   UNL d   1     -41.141-123.312 -53.350  0.00  0.00     0.087 A 
ATOM      4  C   UNL d   1     -41.177-122.550 -51.911  0.00  0.00     0.068 A 
ATOM      5  C   UNL d   1     -41.148-122.108 -52.607  0.00  0.00     0.014 A 
ATOM      6 CL   UNL d   1     -41.218-123.805 -51.219  0.00  0.00    -0.081 Cl
ATOM      7  C   UNL d   1     -41.130-122.489 -53.327  0.00  0.00     0.020 A 
ATOM      8 CL   UNL d   1     -41.196-122.150 -51.150  0.00  0.00    -0.082 Cl
ENDROOT
BRANCH   3   9
ATOM      9  N   UNL d   1     -41.123-123.722 -54.108  0.00  0.00    -0.190 NA
ATOM     10  C   UNL d   1     -41.573-123.415 -54.755  0.00  0.00     0.387 C 
ATOM     11  N   UNL d   1     -42.016-122.740 -54.655  0.00  0.00    -0.086 NA
ATOM     12  O   UNL d   1     -41.555-123.811 -55.484  0.00  0.00    -0.241 OA
BRANCH  11  13
ATOM     13  N   UNL d   1     -42.029-122.357 -53.936  0.00  0.00    -0.111 NA
BRANCH  13  14
ATOM     14  C   UNL d   1     -42.516-121.694 -53.808  0.00  0.00     0.260 C 
ATOM     15  S   UNL d   1     -42.252-120.941 -54.010  0.00  0.00    -0.034 SA
ATOM     16  N   UNL d   1     -43.268-121.805 -53.477  0.00  0.00    -0.113 N 
ENDBRANCH  13  14
ENDBRANCH  11  13
ENDBRANCH   3   9
TORSDOF 3
ENDMDL
MODEL 5
REMARK VINA RESULT:       0.5      2.166      2.828
REMARK  3 active torsions:
REMARK  status: ('A' for Active; 'I' for Inactive)
REMARK       I    between atoms: N_5  and  C_1 
REMARK       I    between atoms: N_6  and  C_1 
REMARK    1  A    between atoms: C_2  and  N_7 
REMARK    2  A    between atoms: C_9  and  N_5 
REMARK    3  A    between atoms: N_7  and  N_6 
ROOT
ATOM      1  C   UNL d   1     -41.805-123.406 -53.646  0.00  0.00     0.070 A 
ATOM      2  C   UNL d   1     -41.809-123.771 -52.904  0.00  0.00     0.032 A 
ATOM      3  C   UNL d   1     -41.484-123.412 -52.258  0.00  0.00     0.087 A 
ATOM      4  C   UNL d   1     -41.455-122.659 -53.702  0.00  0.00     0.068 A 
ATOM      5  C   UNL d   1     -41.123-122.292 -53.042  0.00  0.00     0.014 A 
ATOM      6 CL   UNL d   1     -42.134-123.762 -54.319  0.00  0.00    -0.081 Cl
ATOM      7  C   UNL d   1     -41.137-122.668 -52.320  0.00  0.00     0.020 A 
ATOM      8 CL   UNL d   1     -41.441-122.264 -54.466  0.00  0.00    -0.082 Cl
ENDROOT
BRANCH   3   9
ATOM      9  N   UNL d   1     -41.503-123.816 -51.496  0.00  0.00    -0.190 NA
ATOM     10  C   UNL d   1     -41.736-123.387 -50.806  0.00  0.00     0.387 C 
ATOM     11  N   UNL d   1     -41.938-122.600 -50.869  0.00  0.00    -0.086 NA
ATOM     12  O   UNL d   1     -41.755-123.776 -50.075  0.00  0.00    -0.241 OA
BRANCH  11  13
ATOM     13  N   UNL d   1     -41.918-122.225 -51.591  0.00  0.00    -0.111 NA
BRANCH  13  14
ATOM     14  C   UNL d   1     -42.105-121.417 -51.663  0.00  0.00     0.260 C 
ATOM     15  S   UNL d   1     -41.538-120.844 -51.498  0.00  0.00    -0.034 SA
ATOM     16  N   UNL d   1     -42.869-121.200 -51.902  0.00  0.00    -0.113 N 
ENDBRANCH  13  14
ENDBRANCH  11  13
ENDBRANCH   3   9
TORSDOF 3
ENDMDL
MODEL 6
REMARK VINA RESULT:       0.5      1.631      2.123
REMARK  3 active torsions:
REMARK  status: ('A' for Active; 'I' for Inactive)
REMARK       I    between atoms: N_5  and  C_1 
REMARK       I    between atoms: N_6  and  C_1 
REMARK    1  A    between atoms: C_2  and  N_7 
REMARK    2  A    between atoms: C_9  and  N_5 
REMARK    3  A    between atoms: N_7  and  N_6 
ROOT
ATOM      1  C   UNL d   1     -41.792-122.922 -48.067  0.00  0.00     0.070 A 
ATOM      2  C   UNL d   1     -41.382-122.936 -48.785  0.00  0.00     0.032 A 
ATOM      3  C   UNL d   1     -41.647-123.372 -49.411  0.00  0.00     0.087 A 
ATOM      4  C   UNL d   1     -42.484-123.372 -48.014  0.00  0.00     0.068 A 
ATOM      5  C   UNL d   1     -42.755-123.817 -48.653  0.00  0.00     0.014 A 
ATOM      6 CL   UNL d   1     -41.533-122.480 -47.415  0.00  0.00    -0.081 Cl
ATOM      7  C   UNL d   1     -42.336-123.817 -49.352  0.00  0.00     0.020 A 
ATOM      8 CL   UNL d   1     -42.924-123.370 -47.275  0.00  0.00    -0.082 Cl
ENDROOT
BRANCH   3   9
ATOM      9  N   UNL d   1     -41.198-123.367 -50.148  0.00  0.00    -0.190 NA
ATOM     10  C   UNL d   1     -41.557-123.056 -50.848  0.00  0.00     0.387 C 
ATOM     11  N   UNL d   1     -42.318-122.767 -50.818  0.00  0.00    -0.086 NA
ATOM     12  O   UNL d   1     -41.126-123.052 -51.556  0.00  0.00    -0.241 OA
BRANCH  11  13
ATOM     13  N   UNL d   1     -42.736-122.775 -50.119  0.00  0.00    -0.111 NA
BRANCH  13  14
ATOM     14  C   UNL d   1     -43.516-122.486 -50.079  0.00  0.00     0.260 C 
ATOM     15  S   UNL d   1     -43.661-121.678 -50.133  0.00  0.00    -0.034 SA
ATOM     16  N   UNL d   1     -44.139-123.024 -49.983  0.00  0.00    -0.113 N 
ENDBRANCH  13  14
ENDBRANCH  11  13
ENDBRANCH   3   9
TORSDOF 3
ENDMDL
