MODEL 1
REMARK VINA RESULT:      -8.8      0.000      0.000
REMARK  4 active torsions:
REMARK  status: ('A' for Active; 'I' for Inactive)
REMARK       I    between atoms: N_2  and  C_1 
REMARK    1  A    between atoms: C_5  and  C_1 
REMARK    2  A    between atoms: C_8  and  N_2 
REMARK    3  A    between atoms: O_9  and  C_5 
REMARK    4  A    between atoms: C_11  and  O_9 
ROOT
ATOM      1  C   UNL d   1      53.347  33.606  53.982  0.00  0.00     0.290 C 
ATOM      2  N   UNL d   1      52.851  34.256  53.872  0.00  0.00    -0.270 N 
ATOM      3  O   UNL d   1      54.040  33.687  54.430  0.00  0.00    -0.264 OA
ATOM      4  C   UNL d   1      53.052  34.992  54.215  0.00  0.00     0.102 C 
ENDROOT
BRANCH   1   5
ATOM      5  C   UNL d   1      53.156  32.882  53.648  0.00  0.00     0.184 C 
BRANCH   5   6
ATOM      6  O   UNL d   1      53.704  32.261  53.661  0.00  0.00    -0.300 OA
BRANCH   6   7
ATOM      7  C   UNL d   1      53.458  31.474  53.534  0.00  0.00     0.100 A 
ATOM      8  C   UNL d   1      53.478  30.922  54.149  0.00  0.00     0.025 A 
ATOM      9  C   UNL d   1      53.234  30.150  54.019  0.00  0.00     0.013 A 
ATOM     10  C   UNL d   1      53.254  29.603  54.627  0.00  0.00     0.001 C 
ATOM     11  C   UNL d   1      52.969  29.926  53.271  0.00  0.00     0.058 A 
ATOM     12  C   UNL d   1      52.949  30.476  52.658  0.00  0.00     0.013 A 
ATOM     13 CL   UNL d   1      52.725  29.153  53.141  0.00  0.00    -0.082 Cl
ATOM     14  C   UNL d   1      53.194  31.253  52.789  0.00  0.00     0.026 A 
ENDBRANCH   6   7
ENDBRANCH   5   6
ENDBRANCH   1   5
BRANCH   2  15
ATOM     15  C   UNL d   1      52.170  34.176  53.432  0.00  0.00     0.067 A 
ATOM     16  C   UNL d   1      52.183  34.382  52.624  0.00  0.00     0.018 A 
ATOM     17  C   UNL d   1      51.499  34.303  52.181  0.00  0.00     0.002 A 
ATOM     18  C   UNL d   1      50.797  34.019  52.533  0.00  0.00     0.000 A 
ATOM     19  C   UNL d   1      50.776  33.813  53.332  0.00  0.00     0.002 A 
ATOM     20  C   UNL d   1      51.477  33.895  53.785  0.00  0.00     0.018 A 
ENDBRANCH   2  15
TORSDOF 4
ENDMDL
MODEL 2
REMARK VINA RESULT:      -8.8      1.791      3.757
REMARK  4 active torsions:
REMARK  status: ('A' for Active; 'I' for Inactive)
REMARK       I    between atoms: N_2  and  C_1 
REMARK    1  A    between atoms: C_5  and  C_1 
REMARK    2  A    between atoms: C_8  and  N_2 
REMARK    3  A    between atoms: O_9  and  C_5 
REMARK    4  A    between atoms: C_11  and  O_9 
ROOT
ATOM      1  C   UNL d   1      53.703  34.149  54.536  0.00  0.00     0.290 C 
ATOM      2  N   UNL d   1      54.207  33.531  54.745  0.00  0.00    -0.270 N 
ATOM      3  O   UNL d   1      53.788  34.891  54.895  0.00  0.00    -0.264 OA
ATOM      4  C   UNL d   1      54.801  33.659  55.320  0.00  0.00     0.102 C 
ENDROOT
BRANCH   1   5
ATOM      5  C   UNL d   1      53.118  34.029  53.973  0.00  0.00     0.184 C 
BRANCH   5   6
ATOM      6  O   UNL d   1      52.649  34.664  53.720  0.00  0.00    -0.300 OA
BRANCH   6   7
ATOM      7  C   UNL d   1      52.040  34.546  53.163  0.00  0.00     0.100 A 
ATOM      8  C   UNL d   1      51.249  34.521  53.404  0.00  0.00     0.025 A 
ATOM      9  C   UNL d   1      50.653  34.404  52.852  0.00  0.00     0.013 A 
ATOM     10  C   UNL d   1      49.870  34.380  53.090  0.00  0.00     0.001 C 
ATOM     11  C   UNL d   1      50.845  34.312  52.056  0.00  0.00     0.058 A 
ATOM     12  C   UNL d   1      51.633  34.337  51.816  0.00  0.00     0.013 A 
ATOM     13 CL   UNL d   1      50.249  34.195  51.505  0.00  0.00    -0.082 Cl
ATOM     14  C   UNL d   1      52.233  34.454  52.371  0.00  0.00     0.026 A 
ENDBRANCH   6   7
ENDBRANCH   5   6
ENDBRANCH   1   5
BRANCH   2  15
ATOM     15  C   UNL d   1      54.123  32.801  54.392  0.00  0.00     0.067 A 
ATOM     16  C   UNL d   1      53.646  32.225  54.761  0.00  0.00     0.018 A 
ATOM     17  C   UNL d   1      53.562  31.492  54.406  0.00  0.00     0.002 A 
ATOM     18  C   UNL d   1      53.947  31.322  53.686  0.00  0.00     0.000 A 
ATOM     19  C   UNL d   1      54.421  31.888  53.314  0.00  0.00     0.002 A 
ATOM     20  C   UNL d   1      54.507  32.638  53.677  0.00  0.00     0.018 A 
ENDBRANCH   2  15
TORSDOF 4
ENDMDL
MODEL 3
REMARK VINA RESULT:      -8.5      2.078      3.906
REMARK  4 active torsions:
REMARK  status: ('A' for Active; 'I' for Inactive)
REMARK       I    between atoms: N_2  and  C_1 
REMARK    1  A    between atoms: C_5  and  C_1 
REMARK    2  A    between atoms: C_8  and  N_2 
REMARK    3  A    between atoms: O_9  and  C_5 
REMARK    4  A    between atoms: C_11  and  O_9 
ROOT
ATOM      1  C   UNL d   1      53.039  31.438  53.248  0.00  0.00     0.290 C 
ATOM      2  N   UNL d   1      53.764  31.406  53.639  0.00  0.00    -0.270 N 
ATOM      3  O   UNL d   1      52.744  30.762  52.870  0.00  0.00    -0.264 OA
ATOM      4  C   UNL d   1      54.197  30.690  53.651  0.00  0.00     0.102 C 
ENDROOT
BRANCH   1   5
ATOM      5  C   UNL d   1      52.611  32.138  53.232  0.00  0.00     0.184 C 
BRANCH   5   6
ATOM      6  O   UNL d   1      51.872  32.164  52.858  0.00  0.00    -0.300 OA
BRANCH   6   7
ATOM      7  C   UNL d   1      51.423  32.867  52.853  0.00  0.00     0.100 A 
ATOM      8  C   UNL d   1      51.496  33.408  52.232  0.00  0.00     0.025 A 
ATOM      9  C   UNL d   1      51.053  34.099  52.232  0.00  0.00     0.013 A 
ATOM     10  C   UNL d   1      51.125  34.634  51.618  0.00  0.00     0.001 C 
ATOM     11  C   UNL d   1      50.534  34.251  52.854  0.00  0.00     0.058 A 
ATOM     12  C   UNL d   1      50.462  33.712  53.473  0.00  0.00     0.013 A 
ATOM     13 CL   UNL d   1      50.091  34.942  52.854  0.00  0.00    -0.082 Cl
ATOM     14  C   UNL d   1      50.907  33.017  53.473  0.00  0.00     0.026 A 
ENDBRANCH   6   7
ENDBRANCH   5   6
ENDBRANCH   1   5
BRANCH   2  15
ATOM     15  C   UNL d   1      54.055  32.071  54.010  0.00  0.00     0.067 A 
ATOM     16  C   UNL d   1      54.543  32.594  53.581  0.00  0.00     0.018 A 
ATOM     17  C   UNL d   1      54.835  33.262  53.954  0.00  0.00     0.002 A 
ATOM     18  C   UNL d   1      54.648  33.419  54.751  0.00  0.00     0.000 A 
ATOM     19  C   UNL d   1      54.165  32.906  55.183  0.00  0.00     0.002 A 
ATOM     20  C   UNL d   1      53.866  32.222  54.801  0.00  0.00     0.018 A 
ENDBRANCH   2  15
TORSDOF 4
ENDMDL
MODEL 4
REMARK VINA RESULT:      -8.0      1.262      2.227
REMARK  4 active torsions:
REMARK  status: ('A' for Active; 'I' for Inactive)
REMARK       I    between atoms: N_2  and  C_1 
REMARK    1  A    between atoms: C_5  and  C_1 
REMARK    2  A    between atoms: C_8  and  N_2 
REMARK    3  A    between atoms: O_9  and  C_5 
REMARK    4  A    between atoms: C_11  and  O_9 
ROOT
ATOM      1  C   UNL d   1      52.762  33.390  53.102  0.00  0.00     0.290 C 
ATOM      2  N   UNL d   1      53.097  34.021  53.514  0.00  0.00    -0.270 N 
ATOM      3  O   UNL d   1      52.183  33.533  52.527  0.00  0.00    -0.264 OA
ATOM      4  C   UNL d   1      52.848  34.803  53.346  0.00  0.00     0.102 C 
ENDROOT
BRANCH   1   5
ATOM      5  C   UNL d   1      53.001  32.622  53.262  0.00  0.00     0.184 C 
BRANCH   5   6
ATOM      6  O   UNL d   1      52.739  31.997  52.784  0.00  0.00    -0.300 OA
BRANCH   6   7
ATOM      7  C   UNL d   1      52.779  31.210  53.056  0.00  0.00     0.100 A 
ATOM      8  C   UNL d   1      53.508  30.824  53.120  0.00  0.00     0.025 A 
ATOM      9  C   UNL d   1      53.542  30.049  53.388  0.00  0.00     0.013 A 
ATOM     10  C   UNL d   1      54.262  29.667  53.452  0.00  0.00     0.001 C 
ATOM     11  C   UNL d   1      52.847  29.657  53.593  0.00  0.00     0.058 A 
ATOM     12  C   UNL d   1      52.121  30.041  53.528  0.00  0.00     0.013 A 
ATOM     13 CL   UNL d   1      52.881  28.882  53.861  0.00  0.00    -0.082 Cl
ATOM     14  C   UNL d   1      52.086  30.821  53.259  0.00  0.00     0.026 A 
ENDBRANCH   6   7
ENDBRANCH   5   6
ENDBRANCH   1   5
BRANCH   2  15
ATOM     15  C   UNL d   1      53.666  33.880  54.080  0.00  0.00     0.067 A 
ATOM     16  C   UNL d   1      53.434  33.798  54.876  0.00  0.00     0.018 A 
ATOM     17  C   UNL d   1      54.006  33.657  55.445  0.00  0.00     0.002 A 
ATOM     18  C   UNL d   1      54.810  33.596  55.232  0.00  0.00     0.000 A 
ATOM     19  C   UNL d   1      55.048  33.676  54.445  0.00  0.00     0.002 A 
ATOM     20  C   UNL d   1      54.462  33.821  53.863  0.00  0.00     0.018 A 
ENDBRANCH   2  15
TORSDOF 4
ENDMDL
MODEL 5
REMARK VINA RESULT:      -7.0      2.396      4.233
REMARK  4 active torsions:
REMARK  status: ('A' for Active; 'I' for Inactive)
REMARK       I    between atoms: N_2  and  C_1 
REMARK    1  A    between atoms: C_5  and  C_1 
REMARK    2  A    between atoms: C_8  and  N_2 
REMARK    3  A    between atoms: O_9  and  C_5 
REMARK    4  A    between atoms: C_11  and  O_9 
ROOT
ATOM      1  C   UNL d   1      52.918  30.876  52.886  0.00  0.00     0.290 C 
ATOM      2  N   UNL d   1      52.785  30.076  53.035  0.00  0.00    -0.270 N 
ATOM      3  O   UNL d   1      52.648  31.215  52.179  0.00  0.00    -0.264 OA
ATOM      4  C   UNL d   1      52.377  29.613  52.470  0.00  0.00     0.102 C 
ENDROOT
BRANCH   1   5
ATOM      5  C   UNL d   1      53.317  31.335  53.436  0.00  0.00     0.184 C 
BRANCH   5   6
ATOM      6  O   UNL d   1      53.399  32.151  53.315  0.00  0.00    -0.300 OA
BRANCH   6   7
ATOM      7  C   UNL d   1      53.888  32.607  53.813  0.00  0.00     0.100 A 
ATOM      8  C   UNL d   1      53.571  33.000  54.468  0.00  0.00     0.025 A 
ATOM      9  C   UNL d   1      54.056  33.448  54.956  0.00  0.00     0.013 A 
ATOM     10  C   UNL d   1      53.743  33.837  55.603  0.00  0.00     0.001 C 
ATOM     11  C   UNL d   1      54.862  33.503  54.791  0.00  0.00     0.058 A 
ATOM     12  C   UNL d   1      55.178  33.111  54.138  0.00  0.00     0.013 A 
ATOM     13 CL   UNL d   1      55.347  33.950  55.278  0.00  0.00    -0.082 Cl
ATOM     14  C   UNL d   1      54.690  32.661  53.647  0.00  0.00     0.026 A 
ENDBRANCH   6   7
ENDBRANCH   5   6
ENDBRANCH   1   5
BRANCH   2  15
ATOM     15  C   UNL d   1      53.050  29.742  53.729  0.00  0.00     0.067 A 
ATOM     16  C   UNL d   1      53.796  29.369  53.740  0.00  0.00     0.018 A 
ATOM     17  C   UNL d   1      54.063  29.034  54.438  0.00  0.00     0.002 A 
ATOM     18  C   UNL d   1      53.597  29.064  55.129  0.00  0.00     0.000 A 
ATOM     19  C   UNL d   1      52.857  29.432  55.126  0.00  0.00     0.002 A 
ATOM     20  C   UNL d   1      52.584  29.775  54.412  0.00  0.00     0.018 A 
ENDBRANCH   2  15
TORSDOF 4
ENDMDL
MODEL 6
REMARK VINA RESULT:      -6.8      2.059      2.934
REMARK  4 active torsions:
REMARK  status: ('A' for Active; 'I' for Inactive)
REMARK       I    between atoms: N_2  and  C_1 
REMARK    1  A    between atoms: C_5  and  C_1 
REMARK    2  A    between atoms: C_8  and  N_2 
REMARK    3  A    between atoms: O_9  and  C_5 
REMARK    4  A    between atoms: C_11  and  O_9 
ROOT
ATOM      1  C   UNL d   1      52.262  31.937  53.221  0.00  0.00     0.290 C 
ATOM      2  N   UNL d   1      51.535  32.255  52.999  0.00  0.00    -0.270 N 
ATOM      3  O   UNL d   1      52.356  31.114  53.268  0.00  0.00    -0.264 OA
ATOM      4  C   UNL d   1      50.896  31.744  52.824  0.00  0.00     0.102 C 
ENDROOT
BRANCH   1   5
ATOM      5  C   UNL d   1      52.892  32.433  53.394  0.00  0.00     0.184 C 
BRANCH   5   6
ATOM      6  O   UNL d   1      53.591  32.121  53.714  0.00  0.00    -0.300 OA
BRANCH   6   7
ATOM      7  C   UNL d   1      54.168  32.625  54.043  0.00  0.00     0.100 A 
ATOM      8  C   UNL d   1      54.136  32.836  54.841  0.00  0.00     0.025 A 
ATOM      9  C   UNL d   1      54.706  33.332  55.161  0.00  0.00     0.013 A 
ATOM     10  C   UNL d   1      54.674  33.541  55.951  0.00  0.00     0.001 C 
ATOM     11  C   UNL d   1      55.312  33.619  54.682  0.00  0.00     0.058 A 
ATOM     12  C   UNL d   1      55.345  33.408  53.886  0.00  0.00     0.013 A 
ATOM     13 CL   UNL d   1      55.883  34.115  55.002  0.00  0.00    -0.082 Cl
ATOM     14  C   UNL d   1      54.771  32.909  53.564  0.00  0.00     0.026 A 
ENDBRANCH   6   7
ENDBRANCH   5   6
ENDBRANCH   1   5
BRANCH   2  15
ATOM     15  C   UNL d   1      51.443  33.064  52.952  0.00  0.00     0.067 A 
ATOM     16  C   UNL d   1      51.089  33.469  53.590  0.00  0.00     0.018 A 
ATOM     17  C   UNL d   1      50.996  34.281  53.542  0.00  0.00     0.002 A 
ATOM     18  C   UNL d   1      51.252  34.699  52.867  0.00  0.00     0.000 A 
ATOM     19  C   UNL d   1      51.603  34.304  52.232  0.00  0.00     0.002 A 
ATOM     20  C   UNL d   1      51.698  33.473  52.280  0.00  0.00     0.018 A 
ENDBRANCH   2  15
TORSDOF 4
ENDMDL
