MODEL 1
REMARK VINA RESULT:      60.7      0.000      0.000
REMARK  4 active torsions:
REMARK  status: ('A' for Active; 'I' for Inactive)
REMARK    1  A    between atoms: C_14  and  N_1 
REMARK    2  A    between atoms: S_12  and  C_2 
REMARK       I    between atoms: N_7  and  C_10 
REMARK    3  A    between atoms: C_10  and  C_16 
REMARK    4  A    between atoms: C_16  and  S_12 
ROOT
ATOM      1  N   UNL d   1      14.914  14.383  -1.099  0.00  0.00    -0.254 N 
ATOM      2  C   UNL d   1      14.378  13.991  -1.589  0.00  0.00     0.183 A 
ATOM      3  N   UNL d   1      14.292  13.174  -1.531  0.00  0.00    -0.201 NA
ATOM      4  C   UNL d   1      15.369  13.955  -0.549  0.00  0.00     0.271 A 
ATOM      5  C   UNL d   1      15.278  13.134  -0.496  0.00  0.00     0.115 A 
ATOM      6  C   UNL d   1      14.738  12.744  -0.990  0.00  0.00     0.192 A 
ATOM      7  N   UNL d   1      15.323  11.831  -0.217  0.00  0.00    -0.145 NA
ATOM      8  N   UNL d   1      14.770  11.934  -0.812  0.00  0.00    -0.128 NA
ATOM      9  C   UNL d   1      15.642  12.560  -0.014  0.00  0.00     0.130 A 
ATOM     10  O   UNL d   1      15.910  14.354  -0.055  0.00  0.00    -0.266 OA
ENDROOT
BRANCH   2  11
ATOM     11  S   UNL d   1      13.933  14.416  -2.128  0.00  0.00    -0.044 SA
BRANCH  11  12
ATOM     12  C   UNL d   1      13.373  14.026  -2.610  0.00  0.00     0.099 C 
BRANCH  12  13
ATOM     13  C   UNL d   1      13.523  13.919  -3.414  0.00  0.00     0.271 C 
ATOM     14  N   UNL d   1      13.328  13.208  -3.780  0.00  0.00    -0.273 N 
ATOM     15  C   UNL d   1      13.476  13.100  -4.578  0.00  0.00     0.067 A 
ATOM     16  C   UNL d   1      12.982  12.605  -3.335  0.00  0.00     0.083 A 
ATOM     17  C   UNL d   1      13.280  12.386  -4.944  0.00  0.00     0.016 A 
ATOM     18  C   UNL d   1      13.823  13.705  -5.020  0.00  0.00     0.018 A 
ATOM     19  C   UNL d   1      13.431  12.284  -5.746  0.00  0.00     0.001 A 
ATOM     20  C   UNL d   1      12.937  11.783  -4.513  0.00  0.00     0.003 A 
ATOM     21  C   UNL d   1      13.778  12.886  -6.191  0.00  0.00     0.000 A 
ATOM     22  C   UNL d   1      13.973  13.598  -5.823  0.00  0.00     0.002 A 
ATOM     23  C   UNL d   1      12.784  11.889  -3.699  0.00  0.00     0.019 A 
ATOM     24  O   UNL d   1      13.869  14.528  -3.848  0.00  0.00    -0.266 OA
ENDBRANCH  12  13
ENDBRANCH  11  12
ENDBRANCH   2  11
BRANCH   1  25
ATOM     25  C   UNL d   1      15.004  15.208  -1.153  0.00  0.00     0.069 A 
ATOM     26  C   UNL d   1      15.077  15.655  -0.463  0.00  0.00     0.018 A 
ATOM     27  C   UNL d   1      15.167  16.477  -0.514  0.00  0.00     0.002 A 
ATOM     28  C   UNL d   1      15.183  16.844  -1.256  0.00  0.00     0.000 A 
ATOM     29  C   UNL d   1      15.109  16.390  -1.940  0.00  0.00     0.002 A 
ATOM     30  C   UNL d   1      15.020  15.570  -1.886  0.00  0.00     0.018 A 
ENDBRANCH   1  25
TORSDOF 4
ENDMDL
MODEL 2
REMARK VINA RESULT:      60.7      0.944      2.597
REMARK  4 active torsions:
REMARK  status: ('A' for Active; 'I' for Inactive)
REMARK    1  A    between atoms: C_14  and  N_1 
REMARK    2  A    between atoms: S_12  and  C_2 
REMARK       I    between atoms: N_7  and  C_10 
REMARK    3  A    between atoms: C_10  and  C_16 
REMARK    4  A    between atoms: C_16  and  S_12 
ROOT
ATOM      1  N   UNL d   1      14.921  14.201  -1.002  0.00  0.00    -0.254 N 
ATOM      2  C   UNL d   1      14.384  14.466  -1.570  0.00  0.00     0.183 A 
ATOM      3  N   UNL d   1      14.331  15.270  -1.740  0.00  0.00    -0.201 NA
ATOM      4  C   UNL d   1      15.408  14.744  -0.602  0.00  0.00     0.271 A 
ATOM      5  C   UNL d   1      15.350  15.550  -0.777  0.00  0.00     0.115 A 
ATOM      6  C   UNL d   1      14.809  15.812  -1.348  0.00  0.00     0.192 A 
ATOM      7  N   UNL d   1      15.451  16.877  -0.871  0.00  0.00    -0.145 NA
ATOM      8  N   UNL d   1      14.876  16.638  -1.402  0.00  0.00    -0.128 NA
ATOM      9  C   UNL d   1      15.749  16.219  -0.480  0.00  0.00     0.130 A 
ATOM     10  O   UNL d   1      15.951  14.474  -0.028  0.00  0.00    -0.266 OA
ENDROOT
BRANCH   2  11
ATOM     11  S   UNL d   1      13.907  13.928  -1.961  0.00  0.00    -0.044 SA
BRANCH  11  12
ATOM     12  C   UNL d   1      13.571  14.126  -2.701  0.00  0.00     0.099 C 
BRANCH  12  13
ATOM     13  C   UNL d   1      13.450  13.541  -3.269  0.00  0.00     0.271 C 
ATOM     14  N   UNL d   1      13.493  13.726  -4.070  0.00  0.00    -0.273 N 
ATOM     15  C   UNL d   1      13.372  13.146  -4.635  0.00  0.00     0.067 A 
ATOM     16  C   UNL d   1      13.660  14.501  -4.297  0.00  0.00     0.083 A 
ATOM     17  C   UNL d   1      13.416  13.334  -5.438  0.00  0.00     0.016 A 
ATOM     18  C   UNL d   1      13.206  12.371  -4.404  0.00  0.00     0.018 A 
ATOM     19  C   UNL d   1      13.294  12.746  -6.001  0.00  0.00     0.001 A 
ATOM     20  C   UNL d   1      13.580  14.098  -5.675  0.00  0.00     0.003 A 
ATOM     21  C   UNL d   1      13.127  11.971  -5.774  0.00  0.00     0.000 A 
ATOM     22  C   UNL d   1      13.084  11.786  -4.972  0.00  0.00     0.002 A 
ATOM     23  C   UNL d   1      13.704  14.693  -5.101  0.00  0.00     0.019 A 
ATOM     24  O   UNL d   1      13.284  12.770  -3.030  0.00  0.00    -0.266 OA
ENDBRANCH  12  13
ENDBRANCH  11  12
ENDBRANCH   2  11
BRANCH   1  25
ATOM     25  C   UNL d   1      14.979  13.390  -0.827  0.00  0.00     0.069 A 
ATOM     26  C   UNL d   1      15.446  13.143  -0.193  0.00  0.00     0.018 A 
ATOM     27  C   UNL d   1      15.505  12.336  -0.017  0.00  0.00     0.002 A 
ATOM     28  C   UNL d   1      15.096  11.783  -0.477  0.00  0.00     0.000 A 
ATOM     29  C   UNL d   1      14.632  12.038  -1.110  0.00  0.00     0.002 A 
ATOM     30  C   UNL d   1      14.575  12.844  -1.283  0.00  0.00     0.018 A 
ENDBRANCH   1  25
TORSDOF 4
ENDMDL
