MODEL 1
REMARK VINA RESULT:      85.7      0.000      0.000
REMARK  5 active torsions:
REMARK  status: ('A' for Active; 'I' for Inactive)
REMARK    1  A    between atoms: S_2  and  C_1 
REMARK    2  A    between atoms: C_8  and  S_2 
REMARK    3  A    between atoms: C_23  and  N_7 
REMARK    4  A    between atoms: N_13  and  C_10 
REMARK    5  A    between atoms: C_31  and  C_23 
ROOT
ATOM      1  C   UNL d   1     -54.912-101.070 -39.741  0.00  0.00     0.144 A 
ATOM      2  C   UNL d   1     -54.927-101.430 -41.132  0.00  0.00     0.058 A 
ATOM      3  C   UNL d   1     -54.958-101.649 -40.338  0.00  0.00     0.209 A 
ATOM      4  C   UNL d   1     -54.835-100.273 -39.948  0.00  0.00     0.095 A 
ATOM      5  C   UNL d   1     -54.850-100.633 -41.339  0.00  0.00     0.069 A 
ATOM      6  N   UNL d   1     -54.804-100.055 -40.752  0.00  0.00    -0.303 N 
ATOM      7  C   UNL d   1     -54.818-100.413 -42.134  0.00  0.00     0.037 A 
ATOM      8  C   UNL d   1     -54.864-100.991 -42.722  0.00  0.00     0.093 A 
ATOM      9  C   UNL d   1     -54.973-102.007 -41.720  0.00  0.00     0.036 A 
ATOM     10  C   UNL d   1     -54.942-101.788 -42.515  0.00  0.00     0.156 A 
ATOM     11  O   UNL d   1     -55.036-102.445 -40.131  0.00  0.00    -0.286 OA
ATOM     12  F   UNL d   1     -54.988-102.368 -43.114  0.00  0.00    -0.203 F 
ENDROOT
BRANCH   1  13
ATOM     13  S   UNL d   1     -54.944-101.288 -38.943  0.00  0.00     0.214 S 
ATOM     14  O   UNL d   1     -54.756-102.074 -39.155  0.00  0.00    -0.217 OA
ATOM     15  O   UNL d   1     -55.131-100.501 -38.732  0.00  0.00    -0.217 OA
BRANCH  13  16
ATOM     16  C   UNL d   1     -54.974-101.511 -38.138  0.00  0.00     0.088 A 
ATOM     17  C   UNL d   1     -55.146-102.290 -37.929  0.00  0.00     0.011 A 
ATOM     18  C   UNL d   1     -55.175-102.505 -37.133  0.00  0.00     0.001 A 
ATOM     19  C   UNL d   1     -55.290-102.855 -38.516  0.00  0.00     0.001 C 
ATOM     20  C   UNL d   1     -55.031-101.938 -36.543  0.00  0.00     0.000 A 
ATOM     21  C   UNL d   1     -54.860-101.162 -36.756  0.00  0.00     0.001 A 
ATOM     22  C   UNL d   1     -54.830-100.944 -37.549  0.00  0.00     0.011 A 
ATOM     23  C   UNL d   1     -54.716-100.594 -36.171  0.00  0.00     0.000 C 
ENDBRANCH  13  16
ENDBRANCH   1  13
BRANCH   6  24
ATOM     24  C   UNL d   1     -54.726 -99.259 -40.959  0.00  0.00     0.080 C 
BRANCH  24  25
ATOM     25  C   UNL d   1     -54.775 -99.031 -41.751  0.00  0.00     0.019 C 
ATOM     26  C   UNL d   1     -55.513 -98.909 -42.102  0.00  0.00     0.002 C 
ENDBRANCH  24  25
ENDBRANCH   6  24
BRANCH   8  27
ATOM     27  N   UNL d   1     -54.833-100.772 -43.521  0.00  0.00    -0.298 N 
ATOM     28  C   UNL d   1     -54.761-101.355 -44.102  0.00  0.00     0.107 A 
ATOM     29  C   UNL d   1     -54.729-101.139 -44.898  0.00  0.00     0.142 A 
ATOM     30  O   UNL d   1     -54.772-100.330 -45.103  0.00  0.00    -0.300 OA
ATOM     31  C   UNL d   1     -54.844 -99.753 -44.515  0.00  0.00     0.142 A 
ATOM     32  C   UNL d   1     -54.874 -99.978 -43.728  0.00  0.00     0.107 A 
ENDBRANCH   8  27
TORSDOF 5
ENDMDL
