MODEL 1
REMARK VINA RESULT:      49.4      0.000      0.000
REMARK  7 active torsions:
REMARK  status: ('A' for Active; 'I' for Inactive)
REMARK    1  A    between atoms: C_7  and  C_1 
REMARK    2  A    between atoms: S_8  and  C_3 
REMARK       I    between atoms: C_6  and  N_13 
REMARK    3  A    between atoms: C_10  and  C_6 
REMARK    4  A    between atoms: C_20  and  S_8 
REMARK    5  A    between atoms: N_13  and  C_21 
REMARK    6  A    between atoms: O_19  and  C_14 
REMARK    7  A    between atoms: C_21  and  C_20 
ROOT
ATOM      1  C   UNL d   1      45.953 -17.532  44.264  0.00  0.00     0.087 A 
ATOM      2  N   UNL d   1      45.915 -18.066  44.887  0.00  0.00    -0.245 NA
ATOM      3  C   UNL d   1      46.165 -17.946  43.583  0.00  0.00     0.049 A 
ATOM      4  C   UNL d   1      46.260 -18.736  43.780  0.00  0.00     0.025 A 
ATOM      5  C   UNL d   1      46.105 -18.814  44.591  0.00  0.00     0.082 A 
ATOM      6  C   UNL d   1      46.465 -19.395  43.338  0.00  0.00     0.002 A 
ATOM      7  C   UNL d   1      46.157 -19.553  44.955  0.00  0.00     0.019 A 
ATOM      8  C   UNL d   1      46.517 -20.135  43.701  0.00  0.00     0.000 A 
ATOM      9  C   UNL d   1      46.363 -20.210  44.504  0.00  0.00     0.002 A 
ENDROOT
BRANCH   3  10
ATOM     10  S   UNL d   1      46.266 -17.623  42.829  0.00  0.00    -0.083 SA
BRANCH  10  11
ATOM     11  C   UNL d   1      46.645 -18.072  42.238  0.00  0.00     0.056 C 
BRANCH  11  12
ATOM     12  C   UNL d   1      46.227 -18.286  41.558  0.00  0.00     0.109 C 
BRANCH  12  13
ATOM     13  N   UNL d   1      46.456 -18.949  41.143  0.00  0.00    -0.206 NA
ATOM     14  C   UNL d   1      46.258 -19.019  40.348  0.00  0.00     0.279 C 
ATOM     15  O   UNL d   1      46.492 -19.699  39.923  0.00  0.00    -0.265 OA
BRANCH  14  16
ATOM     16  C   UNL d   1      45.829 -18.422  39.970  0.00  0.00     0.058 A 
ATOM     17  C   UNL d   1      46.222 -17.886  39.467  0.00  0.00     0.005 A 
ATOM     18  C   UNL d   1      45.793 -17.288  39.090  0.00  0.00     0.000 A 
ATOM     19  C   UNL d   1      44.976 -17.225  39.214  0.00  0.00     0.000 A 
ATOM     20  C   UNL d   1      44.589 -17.754  39.712  0.00  0.00     0.000 A 
ATOM     21  C   UNL d   1      45.017 -18.351  40.089  0.00  0.00     0.005 A 
ENDBRANCH  14  16
ENDBRANCH  12  13
ENDBRANCH  11  12
ENDBRANCH  10  11
ENDBRANCH   3  10
BRANCH   1  22
ATOM     22  C   UNL d   1      45.798 -16.732  44.349  0.00  0.00     0.018 A 
ATOM     23  C   UNL d   1      45.200 -16.477  44.862  0.00  0.00     0.004 A 
ATOM     24  C   UNL d   1      45.042 -15.676  44.950  0.00  0.00     0.024 A 
ATOM     25  C   UNL d   1      45.481 -15.125  44.526  0.00  0.00     0.094 A 
ATOM     26  C   UNL d   1      46.082 -15.377  44.009  0.00  0.00     0.024 A 
ATOM     27  C   UNL d   1      46.240 -16.177  43.921  0.00  0.00     0.004 A 
BRANCH  25  28
ATOM     28  O   UNL d   1      45.320 -14.311  44.615  0.00  0.00    -0.328 OA
ATOM     29  C   UNL d   1      44.672 -13.970  44.225  0.00  0.00     0.181 C 
ENDBRANCH  25  28
ENDBRANCH   1  22
TORSDOF 7
ENDMDL
