MODEL 1
REMARK VINA RESULT:      63.5      0.000      0.000
REMARK  9 active torsions:
REMARK  status: ('A' for Active; 'I' for Inactive)
REMARK    1  A    between atoms: C_7  and  N_1 
REMARK    2  A    between atoms: C_8  and  C_3 
REMARK    3  A    between atoms: O_9  and  C_6 
REMARK    4  A    between atoms: O_19  and  C_8 
REMARK    5  A    between atoms: C_18  and  O_9 
REMARK    6  A    between atoms: C_10  and  C_18 
REMARK       I    between atoms: N_11  and  C_10 
REMARK    7  A    between atoms: C_14  and  N_11 
REMARK    8  A    between atoms: C_28  and  O_19 
REMARK    9  A    between atoms: O_23  and  C_20 
ROOT
ATOM      1  N   UNL d   1     -52.275  25.152  33.391  0.00  0.00    -0.194 N 
ATOM      2  N   UNL d   1     -51.528  24.799  33.350  0.00  0.00    -0.155 NA
ATOM      3  C   UNL d   1     -50.856  25.269  33.377  0.00  0.00     0.187 A 
ATOM      4  C   UNL d   1     -52.341  25.971  33.459  0.00  0.00     0.282 A 
ATOM      5  C   UNL d   1     -51.662  26.438  33.485  0.00  0.00     0.089 A 
ATOM      6  C   UNL d   1     -50.922  26.089  33.445  0.00  0.00     0.130 A 
ATOM      7  O   UNL d   1     -53.084  26.322  33.500  0.00  0.00    -0.265 OA
ENDROOT
BRANCH   6   8
ATOM      8  O   UNL d   1     -50.243  26.555  33.471  0.00  0.00    -0.298 OA
BRANCH   8   9
ATOM      9  C   UNL d   1     -49.805  26.612  34.163  0.00  0.00     0.185 C 
BRANCH   9  10
ATOM     10  C   UNL d   1     -49.483  27.341  34.384  0.00  0.00     0.304 C 
ATOM     11  N   UNL d   1     -48.931  27.377  34.993  0.00  0.00    -0.206 NA
ATOM     12  O   UNL d   1     -49.714  28.025  33.996  0.00  0.00    -0.263 OA
BRANCH  11  13
ATOM     13  C   UNL d   1     -48.609  28.106  35.214  0.00  0.00     0.087 A 
ATOM     14  C   UNL d   1     -47.871  28.327  34.952  0.00  0.00     0.043 A 
ATOM     15  C   UNL d   1     -47.542  29.046  35.163  0.00  0.00     0.096 A 
ATOM     16  C   UNL d   1     -47.968  29.556  35.653  0.00  0.00     0.024 A 
ATOM     17  C   UNL d   1     -48.717  29.336  35.921  0.00  0.00     0.004 A 
ATOM     18  C   UNL d   1     -49.035  28.615  35.703  0.00  0.00     0.019 A 
BRANCH  15  19
ATOM     19  O   UNL d   1     -46.798  29.254  34.892  0.00  0.00    -0.328 OA
ATOM     20  C   UNL d   1     -46.556  30.044  34.938  0.00  0.00     0.181 C 
ENDBRANCH  15  19
ENDBRANCH  11  13
ENDBRANCH   9  10
ENDBRANCH   8   9
ENDBRANCH   6   8
BRANCH   3  21
ATOM     21  C   UNL d   1     -50.117  24.920  33.336  0.00  0.00     0.322 C 
ATOM     22  O   UNL d   1     -49.438  25.389  33.311  0.00  0.00    -0.257 OA
BRANCH  21  23
ATOM     23  O   UNL d   1     -50.041  24.094  33.320  0.00  0.00    -0.270 OA
BRANCH  23  24
ATOM     24  C   UNL d   1     -49.329  23.738  33.511  0.00  0.00     0.126 C 
ATOM     25  C   UNL d   1     -49.290  23.199  34.134  0.00  0.00     0.029 C 
ENDBRANCH  23  24
ENDBRANCH  21  23
ENDBRANCH   3  21
BRANCH   1  26
ATOM     26  C   UNL d   1     -52.951  24.683  33.364  0.00  0.00     0.097 A 
ATOM     27  C   UNL d   1     -53.706  25.042  33.334  0.00  0.00     0.075 A 
ATOM     28 CL   UNL d   1     -53.768  25.858  33.332  0.00  0.00    -0.081 Cl
ATOM     29  C   UNL d   1     -54.373  24.569  33.307  0.00  0.00     0.013 A 
ATOM     30  C   UNL d   1     -54.310  23.745  33.310  0.00  0.00     0.001 A 
ATOM     31  C   UNL d   1     -53.556  23.395  33.339  0.00  0.00     0.002 A 
ATOM     32  C   UNL d   1     -52.881  23.868  33.366  0.00  0.00     0.020 A 
ENDBRANCH   1  26
TORSDOF 9
ENDMDL
