MODEL 1
REMARK VINA RESULT:      -6.3      0.000      0.000
REMARK  5 active torsions:
REMARK  status: ('A' for Active; 'I' for Inactive)
REMARK    1  A    between atoms: N_2  and  S_1 
REMARK    2  A    between atoms: C_5  and  S_1 
REMARK    3  A    between atoms: C_3  and  N_2 
REMARK    4  A    between atoms: C_4  and  C_3 
REMARK       I    between atoms: N_8  and  C_4 
REMARK    5  A    between atoms: C_12  and  N_8 
ROOT
ATOM      1  N   UNL d   1     -41.576-122.595 -51.951  0.00  0.00    -0.223 N 
ATOM      2  C   UNL d   1     -41.124-123.286 -51.998  0.00  0.00     0.112 C 
ENDROOT
BRANCH   1   3
ATOM      3  S   UNL d   1     -41.448-121.990 -52.496  0.00  0.00     0.272 S 
ATOM      4  O   UNL d   1     -41.123-121.272 -52.246  0.00  0.00    -0.200 OA
ATOM      5  O   UNL d   1     -41.751-122.754 -52.540  0.00  0.00    -0.200 OA
BRANCH   3   6
ATOM      6  C   UNL d   1     -41.643-122.097 -53.292  0.00  0.00     0.104 A 
ATOM      7  C   UNL d   1     -41.150-122.539 -53.788  0.00  0.00     0.013 A 
ATOM      8  C   UNL d   1     -41.353-122.643 -54.587  0.00  0.00     0.001 A 
ATOM      9  C   UNL d   1     -42.044-122.306 -54.887  0.00  0.00     0.000 A 
ATOM     10  C   UNL d   1     -42.538-121.865 -54.391  0.00  0.00     0.001 A 
ATOM     11  C   UNL d   1     -42.242-122.411 -55.680  0.00  0.00     0.000 C 
ATOM     12  C   UNL d   1     -42.339-121.760 -53.598  0.00  0.00     0.013 A 
ENDBRANCH   3   6
ENDBRANCH   1   3
BRANCH   1  13
ATOM     13  C   UNL d   1     -42.150-122.516 -51.364  0.00  0.00     0.154 C 
BRANCH  13  14
ATOM     14  C   UNL d   1     -42.079-122.940 -50.660  0.00  0.00     0.298 C 
ATOM     15  N   UNL d   1     -42.167-122.549 -49.937  0.00  0.00    -0.207 NA
ATOM     16  O   UNL d   1     -41.920-123.751 -50.679  0.00  0.00    -0.264 OA
BRANCH  15  17
ATOM     17  C   UNL d   1     -42.096-122.972 -49.232  0.00  0.00     0.085 A 
ATOM     18  C   UNL d   1     -42.758-123.313 -48.890  0.00  0.00     0.019 A 
ATOM     19  C   UNL d   1     -42.686-123.736 -48.186  0.00  0.00     0.002 A 
ATOM     20  C   UNL d   1     -41.948-123.815 -47.827  0.00  0.00     0.000 A 
ATOM     21  C   UNL d   1     -41.283-123.470 -48.175  0.00  0.00     0.002 A 
ATOM     22  C   UNL d   1     -41.360-123.050 -48.876  0.00  0.00     0.019 A 
ENDBRANCH  15  17
ENDBRANCH  13  14
ENDBRANCH   1  13
TORSDOF 5
ENDMDL
