MODEL 1
REMARK VINA RESULT:       3.8      0.000      0.000
REMARK  2 active torsions:
REMARK  status: ('A' for Active; 'I' for Inactive)
REMARK    1  A    between atoms: C_6  and  C_3 
REMARK    2  A    between atoms: C_9  and  C_6 
ROOT
ATOM      1  N   UNL d   1     -56.113-102.880 -38.059  0.00  0.00    -0.225 NA
ATOM      2  N   UNL d   1     -54.776-102.880 -38.138  0.00  0.00    -0.225 NA
ATOM      3  C   UNL d   1     -55.416-102.880 -37.622  0.00  0.00     0.163 A 
ATOM      4  C   UNL d   1     -55.910-102.880 -38.837  0.00  0.00     0.101 A 
ATOM      5  C   UNL d   1     -55.071-102.880 -38.887  0.00  0.00     0.101 A 
ATOM      6  C   UNL d   1     -56.354-102.880 -39.518  0.00  0.00     0.021 A 
ATOM      7  C   UNL d   1     -54.711-102.880 -39.616  0.00  0.00     0.021 A 
ATOM      8  C   UNL d   1     -55.995-102.880 -40.270  0.00  0.00     0.002 A 
ATOM      9  C   UNL d   1     -55.156-102.880 -40.320  0.00  0.00     0.002 A 
ENDROOT
BRANCH   3  10
ATOM     10  C   UNL d   1     -55.367-102.880 -36.798  0.00  0.00     0.039 C 
BRANCH  10  11
ATOM     11  C   UNL d   1     -54.748-102.502 -36.415  0.00  0.00     0.003 C 
ATOM     12  C   UNL d   1     -54.816-102.278 -35.624  0.00  0.00     0.000 C 
ENDBRANCH  10  11
ENDBRANCH   3  10
TORSDOF 2
ENDMDL
