MODEL 1
REMARK VINA RESULT:      -1.3      0.000      0.000
REMARK  6 active torsions:
REMARK  status: ('A' for Active; 'I' for Inactive)
REMARK    1  A    between atoms: C_3  and  N_1 
REMARK       I    between atoms: C_4  and  N_1 
REMARK    2  A    between atoms: C_6  and  N_1 
REMARK    3  A    between atoms: N_2  and  C_3 
REMARK    4  A    between atoms: C_7  and  C_4 
REMARK    5  A    between atoms: O_22  and  C_15 
REMARK    6  A    between atoms: C_24  and  O_22 
ROOT
ATOM      1  N   UNL d   1      57.076   0.099  31.923  0.00  0.00    -0.258 N 
ATOM      2  C   UNL d   1      57.038  -0.260  31.177  0.00  0.00     0.266 C 
ATOM      3  O   UNL d   1      56.425  -0.674  30.952  0.00  0.00    -0.267 OA
ENDROOT
BRANCH   1   4
ATOM      4  C   UNL d   1      57.740   0.538  32.146  0.00  0.00     0.171 C 
BRANCH   4   5
ATOM      5  N   UNL d   1      58.126   0.592  32.873  0.00  0.00    -0.257 N 
ATOM      6  C   UNL d   1      58.938   0.631  33.005  0.00  0.00     0.266 A 
ATOM      7  O   UNL d   1      59.525   0.622  32.416  0.00  0.00    -0.267 OA
ATOM      8  C   UNL d   1      59.074   0.681  33.825  0.00  0.00     0.063 A 
ATOM      9  C   UNL d   1      58.339   0.673  34.202  0.00  0.00     0.024 A 
ATOM     10  C   UNL d   1      57.749   0.619  33.625  0.00  0.00     0.085 A 
ENDBRANCH   4   5
ENDBRANCH   1   4
BRANCH   1  11
ATOM     11  C   UNL d   1      56.443   0.018  32.453  0.00  0.00     0.068 A 
ATOM     12  C   UNL d   1      55.966   0.674  32.635  0.00  0.00     0.018 A 
ATOM     13  C   UNL d   1      55.346   0.576  33.160  0.00  0.00     0.002 A 
ATOM     14  C   UNL d   1      55.192  -0.146  33.501  0.00  0.00     0.000 A 
ATOM     15  C   UNL d   1      55.661  -0.792  33.322  0.00  0.00     0.002 A 
ATOM     16  C   UNL d   1      54.564  -0.234  34.029  0.00  0.00     0.000 C 
ATOM     17  C   UNL d   1      56.288  -0.718  32.800  0.00  0.00     0.018 A 
ENDBRANCH   1  11
BRANCH   2  18
ATOM     18  C   UNL d   1      57.672  -0.173  30.660  0.00  0.00     0.057 A 
ATOM     19  C   UNL d   1      57.842   0.569  30.349  0.00  0.00     0.007 A 
ATOM     20  C   UNL d   1      58.475   0.662  29.833  0.00  0.00     0.025 A 
ATOM     21  C   UNL d   1      58.941   0.002  29.628  0.00  0.00     0.100 A 
ATOM     22  C   UNL d   1      58.768  -0.735  29.940  0.00  0.00     0.025 A 
ATOM     23  C   UNL d   1      58.130  -0.837  30.462  0.00  0.00     0.007 A 
BRANCH  21  24
ATOM     24  O   UNL d   1      59.563   0.113  29.116  0.00  0.00    -0.305 OA
BRANCH  24  25
ATOM     25  C   UNL d   1      60.149   0.677  29.266  0.00  0.00     0.123 C 
ATOM     26  C   UNL d   1      60.845   0.672  28.830  0.00  0.00     0.029 C 
ENDBRANCH  24  25
ENDBRANCH  21  24
ENDBRANCH   2  18
TORSDOF 6
ENDMDL
