MODEL 1
REMARK VINA RESULT:      -4.0      0.000      0.000
REMARK  8 active torsions:
REMARK  status: ('A' for Active; 'I' for Inactive)
REMARK    1  A    between atoms: C_7  and  C_3 
REMARK    2  A    between atoms: C_9  and  C_4 
REMARK    3  A    between atoms: O_13  and  C_7 
REMARK    4  A    between atoms: O_15  and  C_12 
REMARK    5  A    between atoms: C_26  and  O_13 
REMARK    6  A    between atoms: O_25  and  C_14 
REMARK    7  A    between atoms: C_16  and  O_15 
REMARK    8  A    between atoms: C_28  and  O_25 
ROOT
ATOM      1  N   UNL d   1     -40.297  14.991  17.347  0.00  0.00    -0.254 N 
ATOM      2  C   UNL d   1     -40.279  14.826  16.539  0.00  0.00     0.182 A 
ATOM      3  C   UNL d   1     -39.240  14.061  17.563  0.00  0.00     0.097 A 
ATOM      4  C   UNL d   1     -39.779  14.610  17.861  0.00  0.00     0.075 A 
ATOM      5  N   UNL d   1     -39.740  14.277  16.245  0.00  0.00    -0.222 NA
ATOM      6  C   UNL d   1     -39.219  13.893  16.756  0.00  0.00     0.090 A 
ATOM      7  C   UNL d   1     -40.836  15.541  17.647  0.00  0.00     0.267 A 
ATOM      8  S   UNL d   1     -40.794  15.205  16.033  0.00  0.00    -0.049 SA
ATOM      9  C   UNL d   1     -41.355  15.921  17.126  0.00  0.00     0.068 A 
ATOM     10  O   UNL d   1     -40.857  15.710  18.455  0.00  0.00    -0.267 OA
ATOM     11  C   UNL d   1     -41.333  15.753  16.318  0.00  0.00     0.043 A 
ATOM     12  C   UNL d   1     -38.682  13.346  16.463  0.00  0.00     0.021 C 
ENDROOT
BRANCH   4  13
ATOM     13  C   UNL d   1     -39.800  14.779  18.668  0.00  0.00     0.019 A 
ATOM     14  C   UNL d   1     -40.421  14.499  19.127  0.00  0.00     0.028 A 
ATOM     15  C   UNL d   1     -40.443  14.668  19.934  0.00  0.00     0.123 A 
ATOM     16  C   UNL d   1     -39.835  15.119  20.282  0.00  0.00     0.126 A 
ATOM     17  C   UNL d   1     -39.210  15.399  19.814  0.00  0.00     0.027 A 
ATOM     18  C   UNL d   1     -39.193  15.228  19.007  0.00  0.00     0.004 A 
BRANCH  15  19
ATOM     19  O   UNL d   1     -41.063  14.390  20.398  0.00  0.00    -0.303 OA
BRANCH  19  20
ATOM     20  C   UNL d   1     -41.188  13.578  20.480  0.00  0.00     0.123 C 
ATOM     21  C   UNL d   1     -41.521  13.280  21.171  0.00  0.00     0.029 C 
ENDBRANCH  19  20
ENDBRANCH  15  19
BRANCH  16  22
ATOM     22  O   UNL d   1     -39.853  15.289  21.089  0.00  0.00    -0.271 OA
BRANCH  22  23
ATOM     23  C   UNL d   1     -39.159  15.272  21.529  0.00  0.00     0.300 C 
ATOM     24  O   UNL d   1     -38.974  14.604  21.976  0.00  0.00    -0.259 OA
ATOM     25  C   UNL d   1     -38.651  15.919  21.524  0.00  0.00     0.074 C 
ENDBRANCH  22  23
ENDBRANCH  16  22
ENDBRANCH   4  13
BRANCH   3  26
ATOM     26  C   UNL d   1     -38.721  13.680  18.078  0.00  0.00     0.303 C 
ATOM     27  O   UNL d   1     -38.065  14.076  18.383  0.00  0.00    -0.259 OA
BRANCH  26  28
ATOM     28  O   UNL d   1     -38.865  12.893  18.289  0.00  0.00    -0.273 OA
BRANCH  28  29
ATOM     29  C   UNL d   1     -38.249  12.427  18.589  0.00  0.00     0.103 C 
ATOM     30  C   UNL d   1     -37.942  12.574  19.339  0.00  0.00     0.027 C 
ATOM     31  C   UNL d   1     -37.942  11.812  18.134  0.00  0.00     0.027 C 
ENDBRANCH  28  29
ENDBRANCH  26  28
ENDBRANCH   3  26
TORSDOF 8
ENDMDL
MODEL 2
REMARK VINA RESULT:      -3.3      7.708     10.107
REMARK  8 active torsions:
REMARK  status: ('A' for Active; 'I' for Inactive)
REMARK    1  A    between atoms: C_7  and  C_3 
REMARK    2  A    between atoms: C_9  and  C_4 
REMARK    3  A    between atoms: O_13  and  C_7 
REMARK    4  A    between atoms: O_15  and  C_12 
REMARK    5  A    between atoms: C_26  and  O_13 
REMARK    6  A    between atoms: O_25  and  C_14 
REMARK    7  A    between atoms: C_16  and  O_15 
REMARK    8  A    between atoms: C_28  and  O_25 
ROOT
ATOM      1  N   UNL d   1     -46.611  13.042  22.613  0.00  0.00    -0.254 N 
ATOM      2  C   UNL d   1     -45.915  13.485  22.629  0.00  0.00     0.182 A 
ATOM      3  C   UNL d   1     -47.374  14.232  22.795  0.00  0.00     0.097 A 
ATOM      4  C   UNL d   1     -47.341  13.413  22.696  0.00  0.00     0.075 A 
ATOM      5  N   UNL d   1     -45.951  14.301  22.729  0.00  0.00    -0.222 NA
ATOM      6  C   UNL d   1     -46.680  14.678  22.812  0.00  0.00     0.090 A 
ATOM      7  C   UNL d   1     -46.581  12.222  22.514  0.00  0.00     0.267 A 
ATOM      8  S   UNL d   1     -45.193  13.114  22.547  0.00  0.00    -0.049 SA
ATOM      9  C   UNL d   1     -45.844  11.855  22.432  0.00  0.00     0.068 A 
ATOM     10  O   UNL d   1     -47.275  11.776  22.497  0.00  0.00    -0.267 OA
ATOM     11  C   UNL d   1     -45.150  12.301  22.448  0.00  0.00     0.043 A 
ATOM     12  C   UNL d   1     -46.715  15.491  22.911  0.00  0.00     0.021 C 
ENDROOT
BRANCH   4  13
ATOM     13  C   UNL d   1     -48.035  12.967  22.679  0.00  0.00     0.019 A 
ATOM     14  C   UNL d   1     -48.427  12.848  21.967  0.00  0.00     0.028 A 
ATOM     15  C   UNL d   1     -49.121  12.402  21.950  0.00  0.00     0.123 A 
ATOM     16  C   UNL d   1     -49.422  12.074  22.654  0.00  0.00     0.126 A 
ATOM     17  C   UNL d   1     -49.023  12.198  23.370  0.00  0.00     0.027 A 
ATOM     18  C   UNL d   1     -48.330  12.644  23.382  0.00  0.00     0.004 A 
BRANCH  15  19
ATOM     19  O   UNL d   1     -49.516  12.281  21.239  0.00  0.00    -0.303 OA
BRANCH  19  20
ATOM     20  C   UNL d   1     -50.221  12.680  21.084  0.00  0.00     0.123 C 
ATOM     21  C   UNL d   1     -50.449  12.827  20.306  0.00  0.00     0.029 C 
ENDBRANCH  19  20
ENDBRANCH  15  19
BRANCH  16  22
ATOM     22  O   UNL d   1     -50.116  11.628  22.641  0.00  0.00    -0.271 OA
BRANCH  22  23
ATOM     23  C   UNL d   1     -50.452  11.369  23.345  0.00  0.00     0.300 C 
ATOM     24  O   UNL d   1     -50.179  10.675  23.698  0.00  0.00    -0.259 OA
ATOM     25  C   UNL d   1     -51.058  11.799  23.697  0.00  0.00     0.074 C 
ENDBRANCH  22  23
ENDBRANCH  16  22
ENDBRANCH   4  13
BRANCH   3  26
ATOM     26  C   UNL d   1     -48.105  14.602  22.878  0.00  0.00     0.303 C 
ATOM     27  O   UNL d   1     -48.581  14.452  23.535  0.00  0.00    -0.259 OA
BRANCH  26  28
ATOM     28  O   UNL d   1     -48.360  15.130  22.294  0.00  0.00    -0.273 OA
BRANCH  28  29
ATOM     29  C   UNL d   1     -49.013  15.619  22.436  0.00  0.00     0.103 C 
ATOM     30  C   UNL d   1     -49.520  15.828  21.822  0.00  0.00     0.027 C 
ATOM     31  C   UNL d   1     -49.157  15.899  23.199  0.00  0.00     0.027 C 
ENDBRANCH  28  29
ENDBRANCH  26  28
ENDBRANCH   3  26
TORSDOF 8
ENDMDL
MODEL 3
REMARK VINA RESULT:      -2.1      7.641      9.991
REMARK  8 active torsions:
REMARK  status: ('A' for Active; 'I' for Inactive)
REMARK    1  A    between atoms: C_7  and  C_3 
REMARK    2  A    between atoms: C_9  and  C_4 
REMARK    3  A    between atoms: O_13  and  C_7 
REMARK    4  A    between atoms: O_15  and  C_12 
REMARK    5  A    between atoms: C_26  and  O_13 
REMARK    6  A    between atoms: O_25  and  C_14 
REMARK    7  A    between atoms: C_16  and  O_15 
REMARK    8  A    between atoms: C_28  and  O_25 
ROOT
ATOM      1  N   UNL d   1     -47.362  11.790  23.192  0.00  0.00    -0.254 N 
ATOM      2  C   UNL d   1     -46.617  11.436  23.169  0.00  0.00     0.182 A 
ATOM      3  C   UNL d   1     -46.804  13.000  22.687  0.00  0.00     0.097 A 
ATOM      4  C   UNL d   1     -47.458  12.572  22.952  0.00  0.00     0.075 A 
ATOM      5  N   UNL d   1     -45.967  11.866  22.904  0.00  0.00    -0.222 NA
ATOM      6  C   UNL d   1     -46.058  12.649  22.662  0.00  0.00     0.090 A 
ATOM      7  C   UNL d   1     -48.018  11.363  23.457  0.00  0.00     0.267 A 
ATOM      8  S   UNL d   1     -46.525  10.661  23.407  0.00  0.00    -0.049 SA
ATOM      9  C   UNL d   1     -47.915  10.577  23.697  0.00  0.00     0.068 A 
ATOM     10  O   UNL d   1     -48.764  11.713  23.481  0.00  0.00    -0.267 OA
ATOM     11  C   UNL d   1     -47.169  10.227  23.672  0.00  0.00     0.043 A 
ATOM     12  C   UNL d   1     -45.410  13.077  22.399  0.00  0.00     0.021 C 
ENDROOT
BRANCH   4  13
ATOM     13  C   UNL d   1     -48.204  12.922  22.976  0.00  0.00     0.019 A 
ATOM     14  C   UNL d   1     -48.692  12.889  22.316  0.00  0.00     0.028 A 
ATOM     15  C   UNL d   1     -49.439  13.240  22.341  0.00  0.00     0.123 A 
ATOM     16  C   UNL d   1     -49.695  13.626  23.033  0.00  0.00     0.126 A 
ATOM     17  C   UNL d   1     -49.198  13.656  23.696  0.00  0.00     0.027 A 
ATOM     18  C   UNL d   1     -48.453  13.304  23.667  0.00  0.00     0.004 A 
BRANCH  15  19
ATOM     19  O   UNL d   1     -49.931  13.210  21.682  0.00  0.00    -0.303 OA
BRANCH  19  20
ATOM     20  C   UNL d   1     -49.956  12.530  21.215  0.00  0.00     0.123 C 
ATOM     21  C   UNL d   1     -50.612  12.381  20.739  0.00  0.00     0.029 C 
ENDBRANCH  19  20
ENDBRANCH  15  19
BRANCH  16  22
ATOM     22  O   UNL d   1     -50.441  13.978  23.061  0.00  0.00    -0.271 OA
BRANCH  22  23
ATOM     23  C   UNL d   1     -50.509  14.793  23.142  0.00  0.00     0.300 C 
ATOM     24  O   UNL d   1     -50.057  15.291  22.664  0.00  0.00    -0.259 OA
ATOM     25  C   UNL d   1     -51.025  15.111  23.698  0.00  0.00     0.074 C 
ENDBRANCH  22  23
ENDBRANCH  16  22
ENDBRANCH   4  13
BRANCH   3  26
ATOM     26  C   UNL d   1     -46.901  13.782  22.446  0.00  0.00     0.303 C 
ATOM     27  O   UNL d   1     -47.209  13.958  21.702  0.00  0.00    -0.259 OA
BRANCH  26  28
ATOM     28  O   UNL d   1     -46.685  14.393  22.960  0.00  0.00    -0.273 OA
BRANCH  28  29
ATOM     29  C   UNL d   1     -46.514  15.146  22.658  0.00  0.00     0.103 C 
ATOM     30  C   UNL d   1     -45.832  15.273  22.216  0.00  0.00     0.027 C 
ATOM     31  C   UNL d   1     -47.031  15.772  22.802  0.00  0.00     0.027 C 
ENDBRANCH  28  29
ENDBRANCH  26  28
ENDBRANCH   3  26
TORSDOF 8
ENDMDL
MODEL 4
REMARK VINA RESULT:      -2.0      8.437     10.242
REMARK  8 active torsions:
REMARK  status: ('A' for Active; 'I' for Inactive)
REMARK    1  A    between atoms: C_7  and  C_3 
REMARK    2  A    between atoms: C_9  and  C_4 
REMARK    3  A    between atoms: O_13  and  C_7 
REMARK    4  A    between atoms: O_15  and  C_12 
REMARK    5  A    between atoms: C_26  and  O_13 
REMARK    6  A    between atoms: O_25  and  C_14 
REMARK    7  A    between atoms: C_16  and  O_15 
REMARK    8  A    between atoms: C_28  and  O_25 
ROOT
ATOM      1  N   UNL d   1     -49.672  12.644  23.353  0.00  0.00    -0.254 N 
ATOM      2  C   UNL d   1     -50.377  13.049  23.491  0.00  0.00     0.182 A 
ATOM      3  C   UNL d   1     -48.992  13.883  23.176  0.00  0.00     0.097 A 
ATOM      4  C   UNL d   1     -48.978  13.058  23.195  0.00  0.00     0.075 A 
ATOM      5  N   UNL d   1     -50.387  13.872  23.470  0.00  0.00    -0.222 NA
ATOM      6  C   UNL d   1     -49.695  14.292  23.313  0.00  0.00     0.090 A 
ATOM      7  C   UNL d   1     -49.656  11.817  23.373  0.00  0.00     0.267 A 
ATOM      8  S   UNL d   1     -51.063  12.635  23.647  0.00  0.00    -0.049 SA
ATOM      9  C   UNL d   1     -50.357  11.407  23.532  0.00  0.00     0.068 A 
ATOM     10  O   UNL d   1     -48.953  11.408  23.235  0.00  0.00    -0.267 OA
ATOM     11  C   UNL d   1     -51.060  11.816  23.669  0.00  0.00     0.043 A 
ATOM     12  C   UNL d   1     -49.705  15.112  23.292  0.00  0.00     0.021 C 
ENDROOT
BRANCH   4  13
ATOM     13  C   UNL d   1     -48.275  12.649  23.058  0.00  0.00     0.019 A 
ATOM     14  C   UNL d   1     -48.112  12.359  22.307  0.00  0.00     0.028 A 
ATOM     15  C   UNL d   1     -47.409  11.950  22.170  0.00  0.00     0.123 A 
ATOM     16  C   UNL d   1     -46.867  11.832  22.792  0.00  0.00     0.126 A 
ATOM     17  C   UNL d   1     -47.036  12.128  23.548  0.00  0.00     0.027 A 
ATOM     18  C   UNL d   1     -47.741  12.536  23.680  0.00  0.00     0.004 A 
BRANCH  15  19
ATOM     19  O   UNL d   1     -47.241  11.657  21.420  0.00  0.00    -0.303 OA
BRANCH  19  20
ATOM     20  C   UNL d   1     -47.449  12.091  20.750  0.00  0.00     0.123 C 
ATOM     21  C   UNL d   1     -47.643  11.702  20.050  0.00  0.00     0.029 C 
ENDBRANCH  19  20
ENDBRANCH  15  19
BRANCH  16  22
ATOM     22  O   UNL d   1     -46.162  11.424  22.658  0.00  0.00    -0.271 OA
BRANCH  22  23
ATOM     23  C   UNL d   1     -45.589  11.390  23.245  0.00  0.00     0.300 C 
ATOM     24  O   UNL d   1     -45.343  12.084  23.619  0.00  0.00    -0.259 OA
ATOM     25  C   UNL d   1     -45.260  10.668  23.461  0.00  0.00     0.074 C 
ENDBRANCH  22  23
ENDBRANCH  16  22
ENDBRANCH   4  13
BRANCH   3  26
ATOM     26  C   UNL d   1     -48.297  14.297  23.018  0.00  0.00     0.303 C 
ATOM     27  O   UNL d   1     -47.667  14.280  23.550  0.00  0.00    -0.259 OA
BRANCH  26  28
ATOM     28  O   UNL d   1     -48.236  14.733  22.317  0.00  0.00    -0.273 OA
BRANCH  28  29
ATOM     29  C   UNL d   1     -47.588  15.236  22.199  0.00  0.00     0.103 C 
ATOM     30  C   UNL d   1     -47.027  15.066  21.622  0.00  0.00     0.027 C 
ATOM     31  C   UNL d   1     -47.506  15.913  22.664  0.00  0.00     0.027 C 
ENDBRANCH  28  29
ENDBRANCH  26  28
ENDBRANCH   3  26
TORSDOF 8
ENDMDL
MODEL 5
REMARK VINA RESULT:      -1.3      8.029     10.095
REMARK  8 active torsions:
REMARK  status: ('A' for Active; 'I' for Inactive)
REMARK    1  A    between atoms: C_7  and  C_3 
REMARK    2  A    between atoms: C_9  and  C_4 
REMARK    3  A    between atoms: O_13  and  C_7 
REMARK    4  A    between atoms: O_15  and  C_12 
REMARK    5  A    between atoms: C_26  and  O_13 
REMARK    6  A    between atoms: O_25  and  C_14 
REMARK    7  A    between atoms: C_16  and  O_15 
REMARK    8  A    between atoms: C_28  and  O_25 
ROOT
ATOM      1  N   UNL d   1     -49.872  14.622  22.803  0.00  0.00    -0.254 N 
ATOM      2  C   UNL d   1     -50.621  14.803  22.509  0.00  0.00     0.182 A 
ATOM      3  C   UNL d   1     -49.785  13.518  21.906  0.00  0.00     0.097 A 
ATOM      4  C   UNL d   1     -49.452  13.980  22.503  0.00  0.00     0.075 A 
ATOM      5  N   UNL d   1     -50.950  14.340  21.913  0.00  0.00    -0.222 NA
ATOM      6  C   UNL d   1     -50.534  13.696  21.609  0.00  0.00     0.090 A 
ATOM      7  C   UNL d   1     -49.536  15.083  23.401  0.00  0.00     0.267 A 
ATOM      8  S   UNL d   1     -51.034  15.440  22.808  0.00  0.00    -0.049 SA
ATOM      9  C   UNL d   1     -49.963  15.727  23.698  0.00  0.00     0.068 A 
ATOM     10  O   UNL d   1     -48.787  14.905  23.698  0.00  0.00    -0.267 OA
ATOM     11  C   UNL d   1     -50.712  15.905  23.401  0.00  0.00     0.043 A 
ATOM     12  C   UNL d   1     -50.863  13.235  21.016  0.00  0.00     0.021 C 
ENDROOT
BRANCH   4  13
ATOM     13  C   UNL d   1     -48.704  13.801  22.800  0.00  0.00     0.019 A 
ATOM     14  C   UNL d   1     -48.051  14.229  22.544  0.00  0.00     0.028 A 
ATOM     15  C   UNL d   1     -47.302  14.051  22.841  0.00  0.00     0.123 A 
ATOM     16  C   UNL d   1     -47.209  13.438  23.398  0.00  0.00     0.126 A 
ATOM     17  C   UNL d   1     -47.872  13.009  23.652  0.00  0.00     0.027 A 
ATOM     18  C   UNL d   1     -48.618  13.191  23.353  0.00  0.00     0.004 A 
BRANCH  15  19
ATOM     19  O   UNL d   1     -46.645  14.477  22.588  0.00  0.00    -0.303 OA
BRANCH  19  20
ATOM     20  C   UNL d   1     -46.740  15.228  22.259  0.00  0.00     0.123 C 
ATOM     21  C   UNL d   1     -46.170  15.529  21.747  0.00  0.00     0.029 C 
ENDBRANCH  19  20
ENDBRANCH  15  19
BRANCH  16  22
ATOM     22  O   UNL d   1     -46.462  13.257  23.697  0.00  0.00    -0.271 OA
BRANCH  22  23
ATOM     23  C   UNL d   1     -46.095  12.553  23.487  0.00  0.00     0.300 C 
ATOM     24  O   UNL d   1     -45.378  12.570  23.079  0.00  0.00    -0.259 OA
ATOM     25  C   UNL d   1     -46.440  11.832  23.683  0.00  0.00     0.074 C 
ENDBRANCH  22  23
ENDBRANCH  16  22
ENDBRANCH   4  13
BRANCH   3  26
ATOM     26  C   UNL d   1     -49.365  12.875  21.607  0.00  0.00     0.303 C 
ATOM     27  O   UNL d   1     -49.404  12.138  21.976  0.00  0.00    -0.259 OA
BRANCH  26  28
ATOM     28  O   UNL d   1     -48.901  12.975  20.929  0.00  0.00    -0.273 OA
BRANCH  28  29
ATOM     29  C   UNL d   1     -48.683  12.316  20.477  0.00  0.00     0.103 C 
ATOM     30  C   UNL d   1     -49.229  11.720  20.319  0.00  0.00     0.027 C 
ATOM     31  C   UNL d   1     -47.915  12.257  20.182  0.00  0.00     0.027 C 
ENDBRANCH  28  29
ENDBRANCH  26  28
ENDBRANCH   3  26
TORSDOF 8
ENDMDL
MODEL 6
REMARK VINA RESULT:      -1.2      7.876     10.192
REMARK  8 active torsions:
REMARK  status: ('A' for Active; 'I' for Inactive)
REMARK    1  A    between atoms: C_7  and  C_3 
REMARK    2  A    between atoms: C_9  and  C_4 
REMARK    3  A    between atoms: O_13  and  C_7 
REMARK    4  A    between atoms: O_15  and  C_12 
REMARK    5  A    between atoms: C_26  and  O_13 
REMARK    6  A    between atoms: O_25  and  C_14 
REMARK    7  A    between atoms: C_16  and  O_15 
REMARK    8  A    between atoms: C_28  and  O_25 
ROOT
ATOM      1  N   UNL d   1     -46.900  13.485  22.810  0.00  0.00    -0.254 N 
ATOM      2  C   UNL d   1     -46.259  13.095  23.152  0.00  0.00     0.182 A 
ATOM      3  C   UNL d   1     -47.703  12.320  22.981  0.00  0.00     0.097 A 
ATOM      4  C   UNL d   1     -47.623  13.100  22.723  0.00  0.00     0.075 A 
ATOM      5  N   UNL d   1     -46.342  12.317  23.407  0.00  0.00    -0.222 NA
ATOM      6  C   UNL d   1     -47.064  11.926  23.323  0.00  0.00     0.090 A 
ATOM      7  C   UNL d   1     -46.823  14.266  22.551  0.00  0.00     0.267 A 
ATOM      8  S   UNL d   1     -45.545  13.479  23.236  0.00  0.00    -0.049 SA
ATOM      9  C   UNL d   1     -46.094  14.648  22.641  0.00  0.00     0.068 A 
ATOM     10  O   UNL d   1     -47.462  14.660  22.209  0.00  0.00    -0.267 OA
ATOM     11  C   UNL d   1     -45.455  14.254  22.983  0.00  0.00     0.043 A 
ATOM     12  C   UNL d   1     -47.146  11.151  23.578  0.00  0.00     0.021 C 
ENDROOT
BRANCH   4  13
ATOM     13  C   UNL d   1     -48.262  13.493  22.381  0.00  0.00     0.019 A 
ATOM     14  C   UNL d   1     -48.626  14.109  22.785  0.00  0.00     0.028 A 
ATOM     15  C   UNL d   1     -49.265  14.503  22.443  0.00  0.00     0.123 A 
ATOM     16  C   UNL d   1     -49.540  14.276  21.690  0.00  0.00     0.126 A 
ATOM     17  C   UNL d   1     -49.169  13.653  21.286  0.00  0.00     0.027 A 
ATOM     18  C   UNL d   1     -48.530  13.263  21.633  0.00  0.00     0.004 A 
BRANCH  15  19
ATOM     19  O   UNL d   1     -49.633  15.120  22.844  0.00  0.00    -0.303 OA
BRANCH  19  20
ATOM     20  C   UNL d   1     -50.024  14.976  23.556  0.00  0.00     0.123 C 
ATOM     21  C   UNL d   1     -50.762  15.316  23.697  0.00  0.00     0.029 C 
ENDBRANCH  19  20
ENDBRANCH  15  19
BRANCH  16  22
ATOM     22  O   UNL d   1     -50.179  14.667  21.344  0.00  0.00    -0.271 OA
BRANCH  22  23
ATOM     23  C   UNL d   1     -50.493  14.395  20.635  0.00  0.00     0.300 C 
ATOM     24  O   UNL d   1     -50.235  14.720  19.922  0.00  0.00    -0.259 OA
ATOM     25  C   UNL d   1     -51.063  13.802  20.636  0.00  0.00     0.074 C 
ENDBRANCH  22  23
ENDBRANCH  16  22
ENDBRANCH   4  13
BRANCH   3  26
ATOM     26  C   UNL d   1     -48.426  11.935  22.894  0.00  0.00     0.303 C 
ATOM     27  O   UNL d   1     -48.562  11.434  22.252  0.00  0.00    -0.259 OA
BRANCH  26  28
ATOM     28  O   UNL d   1     -49.019  12.055  23.458  0.00  0.00    -0.273 OA
BRANCH  28  29
ATOM     29  C   UNL d   1     -49.633  11.504  23.536  0.00  0.00     0.103 C 
ATOM     30  C   UNL d   1     -50.418  11.738  23.454  0.00  0.00     0.027 C 
ATOM     31  C   UNL d   1     -49.456  10.714  23.698  0.00  0.00     0.027 C 
ENDBRANCH  28  29
ENDBRANCH  26  28
ENDBRANCH   3  26
TORSDOF 8
ENDMDL
