MODEL 1
REMARK VINA RESULT:      44.8      0.000      0.000
REMARK  5 active torsions:
REMARK  status: ('A' for Active; 'I' for Inactive)
REMARK    1  A    between atoms: C_7  and  C_1 
REMARK    2  A    between atoms: C_8  and  C_2 
REMARK    3  A    between atoms: O_16  and  C_8 
REMARK    4  A    between atoms: O_17  and  C_12 
REMARK    5  A    between atoms: C_21  and  O_16 
ROOT
ATOM      1  C   UNL d   1      14.233  13.545  -1.733  0.00  0.00     0.069 A 
ATOM      2  C   UNL d   1      14.132  13.370  -2.533  0.00  0.00     0.166 A 
ATOM      3  C   UNL d   1      14.442  14.310  -1.502  0.00  0.00     0.200 A 
ATOM      4  O   UNL d   1      14.236  13.955  -3.112  0.00  0.00    -0.301 OA
ATOM      5  C   UNL d   1      14.547  14.897  -2.073  0.00  0.00     0.062 A 
ATOM      6  C   UNL d   1      14.445  14.719  -2.871  0.00  0.00     0.106 A 
ATOM      7  C   UNL d   1      14.554  15.316  -3.449  0.00  0.00     0.067 A 
ATOM      8  C   UNL d   1      14.757  15.666  -1.841  0.00  0.00     0.009 A 
ATOM      9  O   UNL d   1      14.545  14.492  -0.704  0.00  0.00    -0.286 OA
ATOM     10  C   UNL d   1      14.761  16.077  -3.216  0.00  0.00     0.198 A 
ATOM     11  C   UNL d   1      14.863  16.253  -2.408  0.00  0.00     0.042 A 
ATOM     12  O   UNL d   1      14.867  16.665  -3.782  0.00  0.00    -0.286 OA
ENDROOT
BRANCH   1  13
ATOM     13  C   UNL d   1      14.126  12.956  -1.167  0.00  0.00     0.028 A 
ATOM     14  C   UNL d   1      14.767  12.728  -0.700  0.00  0.00     0.094 A 
ATOM     15  C   UNL d   1      14.661  12.140  -0.133  0.00  0.00     0.024 A 
ATOM     16  C   UNL d   1      13.921  11.779  -0.030  0.00  0.00     0.002 A 
ATOM     17  C   UNL d   1      13.288  12.016  -0.503  0.00  0.00     0.000 A 
ATOM     18  C   UNL d   1      13.388  12.606  -1.073  0.00  0.00     0.002 A 
BRANCH  14  19
ATOM     19  O   UNL d   1      15.496  13.082  -0.800  0.00  0.00    -0.328 OA
ATOM     20  C   UNL d   1      16.102  12.929  -0.262  0.00  0.00     0.181 C 
ENDBRANCH  14  19
ENDBRANCH   1  13
BRANCH   2  21
ATOM     21  C   UNL d   1      13.922  12.600  -2.765  0.00  0.00     0.323 C 
ATOM     22  O   UNL d   1      14.434  11.971  -2.603  0.00  0.00    -0.257 OA
BRANCH  21  23
ATOM     23  O   UNL d   1      13.207  12.466  -3.155  0.00  0.00    -0.270 OA
BRANCH  23  24
ATOM     24  C   UNL d   1      13.105  11.779  -3.585  0.00  0.00     0.126 C 
ATOM     25  C   UNL d   1      12.911  11.815  -4.385  0.00  0.00     0.029 C 
ENDBRANCH  23  24
ENDBRANCH  21  23
ENDBRANCH   2  21
TORSDOF 5
ENDMDL
