MODEL 1
REMARK VINA RESULT:      -4.8      0.000      0.000
REMARK  2 active torsions:
REMARK  status: ('A' for Active; 'I' for Inactive)
REMARK    1  A    between atoms: C_7  and  C_1 
REMARK    2  A    between atoms: C_8  and  C_7 
ROOT
ATOM      1  C   UNL d   1      56.684  -0.614  32.273  0.00  0.00     0.033 A 
ATOM      2  C   UNL d   1      55.764  -0.509  33.227  0.00  0.00     0.100 A 
ATOM      3  C   UNL d   1      56.485  -0.211  32.965  0.00  0.00     0.025 A 
ATOM      4  O   UNL d   1      55.519  -1.093  32.699  0.00  0.00    -0.305 OA
ATOM      5  C   UNL d   1      56.091  -1.155  32.110  0.00  0.00     0.123 A 
ATOM      6  C   UNL d   1      56.859   0.380  33.388  0.00  0.00     0.002 A 
ATOM      7  C   UNL d   1      55.410  -0.215  33.918  0.00  0.00     0.025 A 
ATOM      8  C   UNL d   1      56.516   0.681  34.078  0.00  0.00     0.000 A 
ATOM      9  C   UNL d   1      55.790   0.382  34.343  0.00  0.00     0.002 A 
ATOM     10  C   UNL d   1      57.588   0.682  33.124  0.00  0.00     0.000 C 
ATOM     11  C   UNL d   1      55.447   0.682  35.032  0.00  0.00     0.000 C 
ENDROOT
BRANCH   1  12
ATOM     12  C   UNL d   1      57.365  -0.488  31.827  0.00  0.00     0.072 C 
BRANCH  12  13
ATOM     13  C   UNL d   1      57.384  -0.708  31.029  0.00  0.00     0.211 C 
ATOM     14  O   UNL d   1      57.373  -0.126  30.436  0.00  0.00    -0.644 OA
ATOM     15  O   UNL d   1      57.414  -1.507  30.823  0.00  0.00    -0.644 OA
ENDBRANCH  12  13
ENDBRANCH   1  12
TORSDOF 2
ENDMDL
MODEL 2
REMARK VINA RESULT:      -4.2      1.088      1.653
REMARK  2 active torsions:
REMARK  status: ('A' for Active; 'I' for Inactive)
REMARK    1  A    between atoms: C_7  and  C_1 
REMARK    2  A    between atoms: C_8  and  C_7 
ROOT
ATOM      1  C   UNL d   1      57.570  -0.464  31.189  0.00  0.00     0.033 A 
ATOM      2  C   UNL d   1      56.637  -1.174  31.815  0.00  0.00     0.100 A 
ATOM      3  C   UNL d   1      57.100  -0.496  31.866  0.00  0.00     0.025 A 
ATOM      4  O   UNL d   1      56.820  -1.560  31.110  0.00  0.00    -0.305 OA
ATOM      5  C   UNL d   1      57.398  -1.117  30.725  0.00  0.00     0.123 A 
ATOM      6  C   UNL d   1      57.032  -0.004  32.516  0.00  0.00     0.002 A 
ATOM      7  C   UNL d   1      56.098  -1.366  32.419  0.00  0.00     0.025 A 
ATOM      8  C   UNL d   1      56.499  -0.185  33.123  0.00  0.00     0.000 A 
ATOM      9  C   UNL d   1      56.032  -0.868  33.073  0.00  0.00     0.002 A 
ATOM     10  C   UNL d   1      57.500   0.682  32.568  0.00  0.00     0.000 C 
ATOM     11  C   UNL d   1      55.500  -1.048  33.679  0.00  0.00     0.000 C 
ENDROOT
BRANCH   1  12
ATOM     12  C   UNL d   1      58.117   0.127  31.015  0.00  0.00     0.072 C 
BRANCH  12  13
ATOM     13  C   UNL d   1      58.428   0.191  30.250  0.00  0.00     0.211 C 
ATOM     14  O   UNL d   1      58.008   0.606  29.665  0.00  0.00    -0.644 OA
ATOM     15  O   UNL d   1      59.154  -0.157  30.070  0.00  0.00    -0.644 OA
ENDBRANCH  12  13
ENDBRANCH   1  12
TORSDOF 2
ENDMDL
MODEL 3
REMARK VINA RESULT:      -4.2      1.126      2.979
REMARK  2 active torsions:
REMARK  status: ('A' for Active; 'I' for Inactive)
REMARK    1  A    between atoms: C_7  and  C_1 
REMARK    2  A    between atoms: C_8  and  C_7 
ROOT
ATOM      1  C   UNL d   1      56.032  -0.321  33.298  0.00  0.00     0.033 A 
ATOM      2  C   UNL d   1      56.293  -1.062  32.226  0.00  0.00     0.100 A 
ATOM      3  C   UNL d   1      56.543  -0.407  32.657  0.00  0.00     0.025 A 
ATOM      4  O   UNL d   1      55.631  -1.380  32.600  0.00  0.00    -0.305 OA
ATOM      5  C   UNL d   1      55.472  -0.919  33.263  0.00  0.00     0.123 A 
ATOM      6  C   UNL d   1      57.196   0.019  32.408  0.00  0.00     0.002 A 
ATOM      7  C   UNL d   1      56.698  -1.298  31.539  0.00  0.00     0.025 A 
ATOM      8  C   UNL d   1      57.606  -0.205  31.727  0.00  0.00     0.000 A 
ATOM      9  C   UNL d   1      57.356  -0.866  31.291  0.00  0.00     0.002 A 
ATOM     10  C   UNL d   1      57.448   0.682  32.843  0.00  0.00     0.000 C 
ATOM     11  C   UNL d   1      57.766  -1.090  30.610  0.00  0.00     0.000 C 
ENDROOT
BRANCH   1  12
ATOM     12  C   UNL d   1      56.081   0.267  33.873  0.00  0.00     0.072 C 
BRANCH  12  13
ATOM     13  C   UNL d   1      55.432   0.424  34.362  0.00  0.00     0.211 C 
ATOM     14  O   UNL d   1      54.714   0.680  34.030  0.00  0.00    -0.644 OA
ATOM     15  O   UNL d   1      55.497   0.326  35.178  0.00  0.00    -0.644 OA
ENDBRANCH  12  13
ENDBRANCH   1  12
TORSDOF 2
ENDMDL
MODEL 4
REMARK VINA RESULT:      -3.7      8.489      8.953
REMARK  2 active torsions:
REMARK  status: ('A' for Active; 'I' for Inactive)
REMARK    1  A    between atoms: C_7  and  C_1 
REMARK    2  A    between atoms: C_8  and  C_7 
ROOT
ATOM      1  C   UNL d   1      59.811  -8.227  35.602  0.00  0.00     0.033 A 
ATOM      2  C   UNL d   1      60.790  -7.351  35.802  0.00  0.00     0.100 A 
ATOM      3  C   UNL d   1      59.972  -7.438  35.781  0.00  0.00     0.025 A 
ATOM      4  O   UNL d   1      61.133  -8.082  35.637  0.00  0.00    -0.305 OA
ATOM      5  C   UNL d   1      60.523  -8.622  35.514  0.00  0.00     0.123 A 
ATOM      6  C   UNL d   1      59.489  -6.794  35.926  0.00  0.00     0.002 A 
ATOM      7  C   UNL d   1      61.133  -6.613  35.969  0.00  0.00     0.025 A 
ATOM      8  C   UNL d   1      59.820  -6.054  36.093  0.00  0.00     0.000 A 
ATOM      9  C   UNL d   1      60.644  -5.964  36.115  0.00  0.00     0.002 A 
ATOM     10  C   UNL d   1      58.663  -6.882  35.905  0.00  0.00     0.000 C 
ATOM     11  C   UNL d   1      60.974  -5.226  36.282  0.00  0.00     0.000 C 
ENDROOT
BRANCH   1  12
ATOM     12  C   UNL d   1      59.059  -8.556  35.527  0.00  0.00     0.072 C 
BRANCH  12  13
ATOM     13  C   UNL d   1      58.970  -9.376  35.461  0.00  0.00     0.211 C 
ATOM     14  O   UNL d   1      58.695  -9.818  36.108  0.00  0.00    -0.644 OA
ATOM     15  O   UNL d   1      59.155  -9.754  34.751  0.00  0.00    -0.644 OA
ENDBRANCH  12  13
ENDBRANCH   1  12
TORSDOF 2
ENDMDL
MODEL 5
REMARK VINA RESULT:      -3.7      1.007      2.978
REMARK  2 active torsions:
REMARK  status: ('A' for Active; 'I' for Inactive)
REMARK    1  A    between atoms: C_7  and  C_1 
REMARK    2  A    between atoms: C_8  and  C_7 
ROOT
ATOM      1  C   UNL d   1      56.653  -0.565  32.342  0.00  0.00     0.033 A 
ATOM      2  C   UNL d   1      57.336  -0.464  31.206  0.00  0.00     0.100 A 
ATOM      3  C   UNL d   1      57.282  -0.178  31.976  0.00  0.00     0.025 A 
ATOM      4  O   UNL d   1      56.742  -1.027  31.097  0.00  0.00    -0.305 OA
ATOM      5  C   UNL d   1      56.321  -1.086  31.803  0.00  0.00     0.123 A 
ATOM      6  C   UNL d   1      57.808   0.392  32.236  0.00  0.00     0.002 A 
ATOM      7  C   UNL d   1      57.921  -0.182  30.688  0.00  0.00     0.025 A 
ATOM      8  C   UNL d   1      58.395   0.681  31.729  0.00  0.00     0.000 A 
ATOM      9  C   UNL d   1      58.450   0.393  30.953  0.00  0.00     0.002 A 
ATOM     10  C   UNL d   1      57.755   0.682  33.013  0.00  0.00     0.000 C 
ATOM     11  C   UNL d   1      59.036   0.682  30.447  0.00  0.00     0.000 C 
ENDROOT
BRANCH   1  12
ATOM     12  C   UNL d   1      56.405  -0.444  33.118  0.00  0.00     0.072 C 
BRANCH  12  13
ATOM     13  C   UNL d   1      55.673  -0.740  33.370  0.00  0.00     0.211 C 
ATOM     14  O   UNL d   1      55.600  -1.540  33.582  0.00  0.00    -0.644 OA
ATOM     15  O   UNL d   1      55.019  -0.239  33.410  0.00  0.00    -0.644 OA
ENDBRANCH  12  13
ENDBRANCH   1  12
TORSDOF 2
ENDMDL
MODEL 6
REMARK VINA RESULT:      -3.3      1.464      3.628
REMARK  2 active torsions:
REMARK  status: ('A' for Active; 'I' for Inactive)
REMARK    1  A    between atoms: C_7  and  C_1 
REMARK    2  A    between atoms: C_8  and  C_7 
ROOT
ATOM      1  C   UNL d   1      57.236  -0.391  31.504  0.00  0.00     0.033 A 
ATOM      2  C   UNL d   1      57.582  -1.334  30.634  0.00  0.00     0.100 A 
ATOM      3  C   UNL d   1      57.723  -0.555  30.859  0.00  0.00     0.025 A 
ATOM      4  O   UNL d   1      57.010  -1.650  31.138  0.00  0.00    -0.305 OA
ATOM      5  C   UNL d   1      56.799  -1.063  31.675  0.00  0.00     0.123 A 
ATOM      6  C   UNL d   1      58.270  -0.105  30.449  0.00  0.00     0.002 A 
ATOM      7  C   UNL d   1      57.990  -1.671  29.993  0.00  0.00     0.025 A 
ATOM      8  C   UNL d   1      58.683  -0.430  29.810  0.00  0.00     0.000 A 
ATOM      9  C   UNL d   1      58.542  -1.215  29.582  0.00  0.00     0.002 A 
ATOM     10  C   UNL d   1      58.413   0.682  30.677  0.00  0.00     0.000 C 
ATOM     11  C   UNL d   1      58.954  -1.539  28.944  0.00  0.00     0.000 C 
ENDROOT
BRANCH   1  12
ATOM     12  C   UNL d   1      57.200   0.329  31.904  0.00  0.00     0.072 C 
BRANCH  12  13
ATOM     13  C   UNL d   1      56.726   0.404  32.578  0.00  0.00     0.211 C 
ATOM     14  O   UNL d   1      55.946   0.682  32.509  0.00  0.00    -0.644 OA
ATOM     15  O   UNL d   1      57.029   0.204  33.319  0.00  0.00    -0.644 OA
ENDBRANCH  12  13
ENDBRANCH   1  12
TORSDOF 2
ENDMDL
MODEL 7
REMARK VINA RESULT:      -3.2      4.267      5.846
REMARK  2 active torsions:
REMARK  status: ('A' for Active; 'I' for Inactive)
REMARK    1  A    between atoms: C_7  and  C_1 
REMARK    2  A    between atoms: C_8  and  C_7 
ROOT
ATOM      1  C   UNL d   1      59.133  -1.775  29.163  0.00  0.00     0.033 A 
ATOM      2  C   UNL d   1      59.397  -3.072  29.042  0.00  0.00     0.100 A 
ATOM      3  C   UNL d   1      59.731  -2.321  29.004  0.00  0.00     0.025 A 
ATOM      4  O   UNL d   1      58.597  -2.991  29.225  0.00  0.00    -0.305 OA
ATOM      5  C   UNL d   1      58.437  -2.187  29.298  0.00  0.00     0.123 A 
ATOM      6  C   UNL d   1      60.526  -2.237  28.831  0.00  0.00     0.002 A 
ATOM      7  C   UNL d   1      59.860  -3.750  28.907  0.00  0.00     0.025 A 
ATOM      8  C   UNL d   1      60.996  -2.903  28.694  0.00  0.00     0.000 A 
ATOM      9  C   UNL d   1      60.662  -3.661  28.733  0.00  0.00     0.002 A 
ATOM     10  C   UNL d   1      60.863  -1.477  28.791  0.00  0.00     0.000 C 
ATOM     11  C   UNL d   1      61.132  -4.326  28.596  0.00  0.00     0.000 C 
ENDROOT
BRANCH   1  12
ATOM     12  C   UNL d   1      59.227  -0.957  29.181  0.00  0.00     0.072 C 
BRANCH  12  13
ATOM     13  C   UNL d   1      58.572  -0.468  29.317  0.00  0.00     0.211 C 
ATOM     14  O   UNL d   1      58.347  -0.283  30.095  0.00  0.00    -0.644 OA
ATOM     15  O   UNL d   1      58.145  -0.165  28.680  0.00  0.00    -0.644 OA
ENDBRANCH  12  13
ENDBRANCH   1  12
TORSDOF 2
ENDMDL
MODEL 8
REMARK VINA RESULT:      -3.2      9.456     10.202
REMARK  2 active torsions:
REMARK  status: ('A' for Active; 'I' for Inactive)
REMARK    1  A    between atoms: C_7  and  C_1 
REMARK    2  A    between atoms: C_8  and  C_7 
ROOT
ATOM      1  C   UNL d   1      59.833  -9.054  34.601  0.00  0.00     0.033 A 
ATOM      2  C   UNL d   1      60.715  -9.255  33.627  0.00  0.00     0.100 A 
ATOM      3  C   UNL d   1      59.912  -9.257  33.805  0.00  0.00     0.025 A 
ATOM      4  O   UNL d   1      61.132  -9.052  34.310  0.00  0.00    -0.305 OA
ATOM      5  C   UNL d   1      60.582  -8.929  34.910  0.00  0.00     0.123 A 
ATOM      6  C   UNL d   1      59.366  -9.441  33.225  0.00  0.00     0.002 A 
ATOM      7  C   UNL d   1      60.980  -9.439  32.861  0.00  0.00     0.025 A 
ATOM      8  C   UNL d   1      59.617  -9.626  32.459  0.00  0.00     0.000 A 
ATOM      9  C   UNL d   1      60.427  -9.624  32.277  0.00  0.00     0.002 A 
ATOM     10  C   UNL d   1      58.554  -9.443  33.405  0.00  0.00     0.000 C 
ATOM     11  C   UNL d   1      60.678  -9.808  31.512  0.00  0.00     0.000 C 
ENDROOT
BRANCH   1  12
ATOM     12  C   UNL d   1      59.120  -8.991  35.009  0.00  0.00     0.072 C 
BRANCH  12  13
ATOM     13  C   UNL d   1      59.122  -8.880  35.830  0.00  0.00     0.211 C 
ATOM     14  O   UNL d   1      58.888  -8.150  36.151  0.00  0.00    -0.644 OA
ATOM     15  O   UNL d   1      59.355  -9.495  36.329  0.00  0.00    -0.644 OA
ENDBRANCH  12  13
ENDBRANCH   1  12
TORSDOF 2
ENDMDL
MODEL 9
REMARK VINA RESULT:      -2.5      9.609     10.078
REMARK  2 active torsions:
REMARK  status: ('A' for Active; 'I' for Inactive)
REMARK    1  A    between atoms: C_7  and  C_1 
REMARK    2  A    between atoms: C_8  and  C_7 
ROOT
ATOM      1  C   UNL d   1      59.598  -9.553  33.008  0.00  0.00     0.033 A 
ATOM      2  C   UNL d   1      58.420  -9.577  32.393  0.00  0.00     0.100 A 
ATOM      3  C   UNL d   1      59.232  -9.635  32.274  0.00  0.00     0.025 A 
ATOM      4  O   UNL d   1      58.284  -9.461  33.198  0.00  0.00    -0.305 OA
ATOM      5  C   UNL d   1      59.016  -9.446  33.576  0.00  0.00     0.123 A 
ATOM      6  C   UNL d   1      59.526  -9.753  31.519  0.00  0.00     0.002 A 
ATOM      7  C   UNL d   1      57.892  -9.637  31.754  0.00  0.00     0.025 A 
ATOM      8  C   UNL d   1      59.010  -9.814  30.875  0.00  0.00     0.000 A 
ATOM      9  C   UNL d   1      58.191  -9.756  30.994  0.00  0.00     0.002 A 
ATOM     10  C   UNL d   1      60.347  -9.811  31.398  0.00  0.00     0.000 C 
ATOM     11  C   UNL d   1      57.677  -9.818  30.351  0.00  0.00     0.000 C 
ENDROOT
BRANCH   1  12
ATOM     12  C   UNL d   1      60.410  -9.576  33.142  0.00  0.00     0.072 C 
BRANCH  12  13
ATOM     13  C   UNL d   1      60.723  -9.266  33.843  0.00  0.00     0.211 C 
ATOM     14  O   UNL d   1      60.937  -8.464  33.883  0.00  0.00    -0.644 OA
ATOM     15  O   UNL d   1      60.824  -9.753  34.501  0.00  0.00    -0.644 OA
ENDBRANCH  12  13
ENDBRANCH   1  12
TORSDOF 2
ENDMDL
