MODEL 1
REMARK VINA RESULT:      -6.4      0.000      0.000
REMARK  1 active torsions:
REMARK  status: ('A' for Active; 'I' for Inactive)
REMARK    1  A    between atoms: C_6  and  C_3 
ROOT
ATOM      1  O   UNL d   1     -48.984  12.542  23.546  0.00  0.00    -0.260 OA
ATOM      2  N   UNL d   1     -48.530  11.657  22.623  0.00  0.00    -0.120 NA
ATOM      3  C   UNL d   1     -48.359  12.360  23.069  0.00  0.00     0.205 A 
ATOM      4  N   UNL d   1     -49.255  11.419  22.833  0.00  0.00    -0.109 NA
ATOM      5  C   UNL d   1     -49.577  11.911  23.385  0.00  0.00     0.262 A 
ATOM      6  S   UNL d   1     -50.313  11.800  23.698  0.00  0.00    -0.029 SA
ENDROOT
BRANCH   3   7
ATOM      7  C   UNL d   1     -47.680  12.793  23.033  0.00  0.00     0.043 A 
ATOM      8  C   UNL d   1     -47.705  13.565  22.707  0.00  0.00     0.004 A 
ATOM      9  C   UNL d   1     -47.016  14.015  22.666  0.00  0.00     0.000 A 
ATOM     10  C   UNL d   1     -46.295  13.695  22.952  0.00  0.00     0.000 A 
ATOM     11  C   UNL d   1     -46.294  12.933  23.269  0.00  0.00     0.000 A 
ATOM     12  C   UNL d   1     -46.968  12.471  23.318  0.00  0.00     0.004 A 
ENDBRANCH   3   7
TORSDOF 1
ENDMDL
MODEL 2
REMARK VINA RESULT:      -6.4      2.221      2.506
REMARK  1 active torsions:
REMARK  status: ('A' for Active; 'I' for Inactive)
REMARK    1  A    between atoms: C_6  and  C_3 
ROOT
ATOM      1  O   UNL d   1     -48.954  14.752  23.438  0.00  0.00    -0.260 OA
ATOM      2  N   UNL d   1     -48.775  15.212  22.174  0.00  0.00    -0.120 NA
ATOM      3  C   UNL d   1     -48.484  14.697  22.784  0.00  0.00     0.205 A 
ATOM      4  N   UNL d   1     -49.417  15.574  22.462  0.00  0.00    -0.109 NA
ATOM      5  C   UNL d   1     -49.573  15.338  23.217  0.00  0.00     0.262 A 
ATOM      6  S   UNL d   1     -50.197  15.620  23.646  0.00  0.00    -0.029 SA
ENDROOT
BRANCH   3   7
ATOM      7  C   UNL d   1     -47.837  14.218  22.735  0.00  0.00     0.043 A 
ATOM      8  C   UNL d   1     -47.077  14.543  22.873  0.00  0.00     0.004 A 
ATOM      9  C   UNL d   1     -46.411  14.061  22.825  0.00  0.00     0.000 A 
ATOM     10  C   UNL d   1     -46.500  13.248  22.638  0.00  0.00     0.000 A 
ATOM     11  C   UNL d   1     -47.258  12.950  22.506  0.00  0.00     0.000 A 
ATOM     12  C   UNL d   1     -47.932  13.412  22.549  0.00  0.00     0.004 A 
ENDBRANCH   3   7
TORSDOF 1
ENDMDL
MODEL 3
REMARK VINA RESULT:      -6.3      1.971      2.454
REMARK  1 active torsions:
REMARK  status: ('A' for Active; 'I' for Inactive)
REMARK    1  A    between atoms: C_6  and  C_3 
ROOT
ATOM      1  O   UNL d   1     -47.393  12.506  23.227  0.00  0.00    -0.260 OA
ATOM      2  N   UNL d   1     -46.328  13.298  23.507  0.00  0.00    -0.120 NA
ATOM      3  C   UNL d   1     -47.125  13.267  23.211  0.00  0.00     0.205 A 
ATOM      4  N   UNL d   1     -46.122  12.559  23.698  0.00  0.00    -0.109 NA
ATOM      5  C   UNL d   1     -46.721  12.039  23.552  0.00  0.00     0.262 A 
ATOM      6  S   UNL d   1     -46.661  11.247  23.696  0.00  0.00    -0.029 SA
ENDROOT
BRANCH   3   7
ATOM      7  C   UNL d   1     -47.561  13.892  22.950  0.00  0.00     0.043 A 
ATOM      8  C   UNL d   1     -48.397  13.855  22.999  0.00  0.00     0.004 A 
ATOM      9  C   UNL d   1     -48.851  14.490  22.735  0.00  0.00     0.000 A 
ATOM     10  C   UNL d   1     -48.471  15.168  22.419  0.00  0.00     0.000 A 
ATOM     11  C   UNL d   1     -47.647  15.182  22.381  0.00  0.00     0.000 A 
ATOM     12  C   UNL d   1     -47.178  14.562  22.638  0.00  0.00     0.004 A 
ENDBRANCH   3   7
TORSDOF 1
ENDMDL
MODEL 4
REMARK VINA RESULT:      -6.2      1.767      2.774
REMARK  1 active torsions:
REMARK  status: ('A' for Active; 'I' for Inactive)
REMARK    1  A    between atoms: C_6  and  C_3 
ROOT
ATOM      1  O   UNL d   1     -48.025  12.283  23.040  0.00  0.00    -0.260 OA
ATOM      2  N   UNL d   1     -48.698  11.137  23.310  0.00  0.00    -0.120 NA
ATOM      3  C   UNL d   1     -48.737  11.912  22.961  0.00  0.00     0.205 A 
ATOM      4  N   UNL d   1     -47.966  11.047  23.596  0.00  0.00    -0.109 NA
ATOM      5  C   UNL d   1     -47.516  11.702  23.463  0.00  0.00     0.262 A 
ATOM      6  S   UNL d   1     -46.745  11.762  23.697  0.00  0.00    -0.029 SA
ENDROOT
BRANCH   3   7
ATOM      7  C   UNL d   1     -49.378  12.241  22.603  0.00  0.00     0.043 A 
ATOM      8  C   UNL d   1     -49.304  12.533  21.821  0.00  0.00     0.004 A 
ATOM      9  C   UNL d   1     -49.955  12.872  21.446  0.00  0.00     0.000 A 
ATOM     10  C   UNL d   1     -50.687  12.920  21.852  0.00  0.00     0.000 A 
ATOM     11  C   UNL d   1     -50.738  12.626  22.621  0.00  0.00     0.000 A 
ATOM     12  C   UNL d   1     -50.103  12.286  23.010  0.00  0.00     0.004 A 
ENDBRANCH   3   7
TORSDOF 1
ENDMDL
