MODEL 1
REMARK VINA RESULT:       2.8      0.000      0.000
REMARK  4 active torsions:
REMARK  status: ('A' for Active; 'I' for Inactive)
REMARK    1  A    between atoms: N_2  and  C_9 
REMARK    2  A    between atoms: C_11  and  C_5 
REMARK    3  A    between atoms: C_6  and  C_7 
REMARK       I    between atoms: C_7  and  N_10 
REMARK    4  A    between atoms: N_10  and  C_21 
ROOT
ATOM      1  C   UNL d   1      32.521  19.949 -22.276  0.00  0.00     0.019 A 
ATOM      2  C   UNL d   1      33.165  20.470 -22.284  0.00  0.00     0.003 A 
ATOM      3  C   UNL d   1      31.960  19.984 -21.673  0.00  0.00     0.003 A 
ATOM      4  C   UNL d   1      32.682  21.065 -21.076  0.00  0.00     0.085 A 
ATOM      5  C   UNL d   1      32.044  20.544 -21.075  0.00  0.00     0.019 A 
ATOM      6  C   UNL d   1      33.241  21.027 -21.682  0.00  0.00     0.019 A 
ENDROOT
BRANCH   4   7
ATOM      7  N   UNL d   1      32.765  21.627 -20.474  0.00  0.00    -0.208 NA
ATOM      8  C   UNL d   1      32.771  22.434 -20.661  0.00  0.00     0.281 C 
ATOM      9  O   UNL d   1      32.855  22.991 -20.055  0.00  0.00    -0.265 OA
BRANCH   8  10
ATOM     10  C   UNL d   1      32.695  22.676 -21.446  0.00  0.00     0.080 A 
ATOM     11  C   UNL d   1      32.078  23.179 -21.656  0.00  0.00     0.131 A 
ATOM     12  C   UNL d   1      32.005  23.419 -22.442  0.00  0.00     0.024 A 
ATOM     13  C   UNL d   1      32.541  23.161 -23.006  0.00  0.00     0.002 A 
ATOM     14  C   UNL d   1      33.158  22.657 -22.792  0.00  0.00     0.000 A 
ATOM     15  C   UNL d   1      33.234  22.414 -22.007  0.00  0.00     0.006 A 
BRANCH  11  16
ATOM     16  N   UNL d   1      31.537  23.439 -21.082  0.00  0.00    -0.114 N 
ATOM     17  O   UNL d   1      31.805  23.702 -20.349  0.00  0.00    -0.532 OA
ATOM     18  O   UNL d   1      30.729  23.435 -21.246  0.00  0.00    -0.532 OA
ENDBRANCH  11  16
ENDBRANCH   8  10
ENDBRANCH   4   7
BRANCH   1  19
ATOM     19  C   UNL d   1      32.438  19.387 -22.878  0.00  0.00     0.101 A 
ATOM     20  N   UNL d   1      32.024  18.680 -22.833  0.00  0.00    -0.227 NA
ATOM     21  C   UNL d   1      32.089  18.298 -23.555  0.00  0.00     0.148 A 
ATOM     22  N   UNL d   1      32.545  18.772 -24.051  0.00  0.00    -0.288 N 
ATOM     23  C   UNL d   1      31.792  17.579 -23.830  0.00  0.00     0.037 A 
ATOM     24  C   UNL d   1      32.705  18.527 -24.820  0.00  0.00     0.082 A 
ATOM     25  C   UNL d   1      32.760  19.441 -23.633  0.00  0.00     0.101 A 
ATOM     26  C   UNL d   1      32.407  17.808 -25.095  0.00  0.00     0.019 A 
ATOM     27  C   UNL d   1      31.951  17.334 -24.601  0.00  0.00     0.005 A 
ENDBRANCH   1  19
TORSDOF 4
ENDMDL
MODEL 2
REMARK VINA RESULT:       3.2      1.292      2.178
REMARK  4 active torsions:
REMARK  status: ('A' for Active; 'I' for Inactive)
REMARK    1  A    between atoms: N_2  and  C_9 
REMARK    2  A    between atoms: C_11  and  C_5 
REMARK    3  A    between atoms: C_6  and  C_7 
REMARK       I    between atoms: C_7  and  N_10 
REMARK    4  A    between atoms: N_10  and  C_21 
ROOT
ATOM      1  C   UNL d   1      32.370  18.993 -23.574  0.00  0.00     0.019 A 
ATOM      2  C   UNL d   1      33.102  19.297 -23.810  0.00  0.00     0.003 A 
ATOM      3  C   UNL d   1      31.781  19.494 -23.284  0.00  0.00     0.003 A 
ATOM      4  C   UNL d   1      32.655  20.611 -23.464  0.00  0.00     0.085 A 
ATOM      5  C   UNL d   1      31.929  20.302 -23.231  0.00  0.00     0.019 A 
ATOM      6  C   UNL d   1      33.241  20.108 -23.754  0.00  0.00     0.019 A 
ENDROOT
BRANCH   4   7
ATOM      7  N   UNL d   1      32.801  21.424 -23.410  0.00  0.00    -0.208 NA
ATOM      8  C   UNL d   1      32.938  21.770 -22.670  0.00  0.00     0.281 C 
ATOM      9  O   UNL d   1      33.084  22.584 -22.622  0.00  0.00    -0.265 OA
BRANCH   8  10
ATOM     10  C   UNL d   1      32.929  21.306 -21.989  0.00  0.00     0.080 A 
ATOM     11  C   UNL d   1      32.606  21.609 -21.296  0.00  0.00     0.131 A 
ATOM     12  C   UNL d   1      32.599  21.141 -20.616  0.00  0.00     0.024 A 
ATOM     13  C   UNL d   1      32.909  20.383 -20.632  0.00  0.00     0.002 A 
ATOM     14  C   UNL d   1      33.232  20.081 -21.328  0.00  0.00     0.000 A 
ATOM     15  C   UNL d   1      33.241  20.546 -22.010  0.00  0.00     0.006 A 
BRANCH  11  16
ATOM     16  N   UNL d   1      32.293  22.378 -21.283  0.00  0.00    -0.114 N 
ATOM     17  O   UNL d   1      31.518  22.514 -21.527  0.00  0.00    -0.532 OA
ATOM     18  O   UNL d   1      32.757  23.009 -21.025  0.00  0.00    -0.532 OA
ENDBRANCH  11  16
ENDBRANCH   8  10
ENDBRANCH   4   7
BRANCH   1  19
ATOM     19  C   UNL d   1      32.223  18.180 -23.628  0.00  0.00     0.101 A 
ATOM     20  N   UNL d   1      32.562  17.591 -23.168  0.00  0.00    -0.227 NA
ATOM     21  C   UNL d   1      32.258  16.870 -23.411  0.00  0.00     0.148 A 
ATOM     22  N   UNL d   1      31.729  17.013 -24.025  0.00  0.00    -0.288 N 
ATOM     23  C   UNL d   1      32.394  16.098 -23.154  0.00  0.00     0.037 A 
ATOM     24  C   UNL d   1      31.335  16.385 -24.382  0.00  0.00     0.082 A 
ATOM     25  C   UNL d   1      31.708  17.820 -24.157  0.00  0.00     0.101 A 
ATOM     26  C   UNL d   1      31.471  15.613 -24.126  0.00  0.00     0.019 A 
ATOM     27  C   UNL d   1      32.000  15.468 -23.512  0.00  0.00     0.005 A 
ENDBRANCH   1  19
TORSDOF 4
ENDMDL
MODEL 3
REMARK VINA RESULT:       3.9      2.529      5.116
REMARK  4 active torsions:
REMARK  status: ('A' for Active; 'I' for Inactive)
REMARK    1  A    between atoms: N_2  and  C_9 
REMARK    2  A    between atoms: C_11  and  C_5 
REMARK    3  A    between atoms: C_6  and  C_7 
REMARK       I    between atoms: C_7  and  N_10 
REMARK    4  A    between atoms: N_10  and  C_21 
ROOT
ATOM      1  C   UNL d   1      32.551  20.635 -22.426  0.00  0.00     0.019 A 
ATOM      2  C   UNL d   1      31.855  20.250 -22.658  0.00  0.00     0.003 A 
ATOM      3  C   UNL d   1      33.241  20.559 -22.872  0.00  0.00     0.003 A 
ATOM      4  C   UNL d   1      32.546  19.709 -23.788  0.00  0.00     0.085 A 
ATOM      5  C   UNL d   1      33.234  20.095 -23.552  0.00  0.00     0.019 A 
ATOM      6  C   UNL d   1      31.858  19.787 -23.340  0.00  0.00     0.019 A 
ENDROOT
BRANCH   4   7
ATOM      7  N   UNL d   1      32.541  19.243 -24.472  0.00  0.00    -0.208 NA
ATOM      8  C   UNL d   1      32.568  18.418 -24.410  0.00  0.00     0.281 C 
ATOM      9  O   UNL d   1      32.563  17.957 -25.097  0.00  0.00    -0.265 OA
BRANCH   8  10
ATOM     10  C   UNL d   1      32.600  18.061 -23.667  0.00  0.00     0.080 A 
ATOM     11  C   UNL d   1      32.021  17.518 -23.453  0.00  0.00     0.131 A 
ATOM     12  C   UNL d   1      32.056  17.163 -22.708  0.00  0.00     0.024 A 
ATOM     13  C   UNL d   1      32.662  17.350 -22.189  0.00  0.00     0.002 A 
ATOM     14  C   UNL d   1      33.241  17.895 -22.406  0.00  0.00     0.000 A 
ATOM     15  C   UNL d   1      33.209  18.252 -23.150  0.00  0.00     0.006 A 
BRANCH  11  16
ATOM     16  N   UNL d   1      31.409  17.330 -23.981  0.00  0.00    -0.114 N 
ATOM     17  O   UNL d   1      30.632  17.545 -23.810  0.00  0.00    -0.532 OA
ATOM     18  O   UNL d   1      31.577  16.926 -24.681  0.00  0.00    -0.532 OA
ENDBRANCH  11  16
ENDBRANCH   8  10
ENDBRANCH   4   7
BRANCH   1  19
ATOM     19  C   UNL d   1      32.556  21.101 -21.743  0.00  0.00     0.101 A 
ATOM     20  N   UNL d   1      33.047  21.007 -21.092  0.00  0.00    -0.227 NA
ATOM     21  C   UNL d   1      32.861  21.589 -20.545  0.00  0.00     0.148 A 
ATOM     22  N   UNL d   1      32.252  22.046 -20.860  0.00  0.00    -0.288 N 
ATOM     23  C   UNL d   1      33.166  21.766 -19.799  0.00  0.00     0.037 A 
ATOM     24  C   UNL d   1      31.948  22.678 -20.430  0.00  0.00     0.082 A 
ATOM     25  C   UNL d   1      32.065  21.744 -21.597  0.00  0.00     0.101 A 
ATOM     26  C   UNL d   1      32.254  22.854 -19.684  0.00  0.00     0.019 A 
ATOM     27  C   UNL d   1      32.862  22.399 -19.368  0.00  0.00     0.005 A 
ENDBRANCH   1  19
TORSDOF 4
ENDMDL
MODEL 4
REMARK VINA RESULT:       4.3      2.991      5.362
REMARK  4 active torsions:
REMARK  status: ('A' for Active; 'I' for Inactive)
REMARK    1  A    between atoms: N_2  and  C_9 
REMARK    2  A    between atoms: C_11  and  C_5 
REMARK    3  A    between atoms: C_6  and  C_7 
REMARK       I    between atoms: C_7  and  N_10 
REMARK    4  A    between atoms: N_10  and  C_21 
ROOT
ATOM      1  C   UNL d   1      32.995  19.221 -22.990  0.00  0.00     0.019 A 
ATOM      2  C   UNL d   1      33.168  19.238 -23.800  0.00  0.00     0.003 A 
ATOM      3  C   UNL d   1      32.894  18.502 -22.598  0.00  0.00     0.003 A 
ATOM      4  C   UNL d   1      33.137  17.808 -23.825  0.00  0.00     0.085 A 
ATOM      5  C   UNL d   1      32.966  17.798 -23.019  0.00  0.00     0.019 A 
ATOM      6  C   UNL d   1      33.238  18.528 -24.213  0.00  0.00     0.019 A 
ENDROOT
BRANCH   4   7
ATOM      7  N   UNL d   1      33.209  17.099 -24.246  0.00  0.00    -0.208 NA
ATOM      8  C   UNL d   1      32.565  16.808 -24.677  0.00  0.00     0.281 C 
ATOM      9  O   UNL d   1      32.643  16.099 -25.097  0.00  0.00    -0.265 OA
BRANCH   8  10
ATOM     10  C   UNL d   1      31.853  17.224 -24.686  0.00  0.00     0.080 A 
ATOM     11  C   UNL d   1      31.173  16.870 -24.387  0.00  0.00     0.131 A 
ATOM     12  C   UNL d   1      30.463  17.289 -24.397  0.00  0.00     0.024 A 
ATOM     13  C   UNL d   1      30.434  18.050 -24.702  0.00  0.00     0.002 A 
ATOM     14  C   UNL d   1      31.117  18.402 -25.001  0.00  0.00     0.000 A 
ATOM     15  C   UNL d   1      31.830  17.986 -24.992  0.00  0.00     0.006 A 
BRANCH  11  16
ATOM     16  N   UNL d   1      31.205  16.100 -24.078  0.00  0.00    -0.114 N 
ATOM     17  O   UNL d   1      31.194  15.978 -23.264  0.00  0.00    -0.532 OA
ATOM     18  O   UNL d   1      31.246  15.453 -24.588  0.00  0.00    -0.532 OA
ENDBRANCH  11  16
ENDBRANCH   8  10
ENDBRANCH   4   7
BRANCH   1  19
ATOM     19  C   UNL d   1      32.923  19.929 -22.569  0.00  0.00     0.101 A 
ATOM     20  N   UNL d   1      32.526  20.037 -21.859  0.00  0.00    -0.227 NA
ATOM     21  C   UNL d   1      32.597  20.824 -21.642  0.00  0.00     0.148 A 
ATOM     22  N   UNL d   1      33.041  21.206 -22.221  0.00  0.00    -0.288 N 
ATOM     23  C   UNL d   1      32.315  21.247 -20.992  0.00  0.00     0.037 A 
ATOM     24  C   UNL d   1      33.203  22.009 -22.151  0.00  0.00     0.082 A 
ATOM     25  C   UNL d   1      33.241  20.653 -22.791  0.00  0.00     0.101 A 
ATOM     26  C   UNL d   1      32.922  22.432 -21.501  0.00  0.00     0.019 A 
ATOM     27  C   UNL d   1      32.478  22.052 -20.922  0.00  0.00     0.005 A 
ENDBRANCH   1  19
TORSDOF 4
ENDMDL
