MODEL 1
REMARK VINA RESULT:       6.4      0.000      0.000
REMARK  6 active torsions:
REMARK  status: ('A' for Active; 'I' for Inactive)
REMARK    1  A    between atoms: C_6  and  N_1 
REMARK    2  A    between atoms: S_7  and  C_2 
REMARK    3  A    between atoms: C_12  and  S_7 
REMARK    4  A    between atoms: C_8  and  O_9 
REMARK    5  A    between atoms: O_9  and  C_13 
REMARK    6  A    between atoms: C_13  and  C_12 
ROOT
ATOM      1  N   UNL d   1      46.463 -19.362  43.671  0.00  0.00    -0.186 N 
ATOM      2  C   UNL d   1      46.390 -18.708  44.146  0.00  0.00     0.219 A 
ATOM      3  N   UNL d   1      46.341 -18.976  44.944  0.00  0.00    -0.101 NA
ATOM      4  N   UNL d   1      46.382 -19.781  44.951  0.00  0.00    -0.022 NA
ATOM      5  N   UNL d   1      46.458 -20.040  44.172  0.00  0.00    -0.038 NA
ENDROOT
BRANCH   2   6
ATOM      6  S   UNL d   1      46.368 -17.895  43.888  0.00  0.00    -0.044 SA
BRANCH   6   7
ATOM      7  C   UNL d   1      45.967 -17.335  44.343  0.00  0.00     0.065 C 
BRANCH   7   8
ATOM      8  C   UNL d   1      46.181 -16.526  44.295  0.00  0.00     0.130 C 
BRANCH   8   9
ATOM      9  O   UNL d   1      45.955 -16.011  44.891  0.00  0.00    -0.305 OA
BRANCH   9  10
ATOM     10  C   UNL d   1      45.627 -15.263  44.719  0.00  0.00     0.100 A 
ATOM     11  C   UNL d   1      44.842 -15.102  44.953  0.00  0.00     0.025 A 
ATOM     12  C   UNL d   1      44.501 -14.368  44.791  0.00  0.00     0.002 A 
ATOM     13  C   UNL d   1      44.934 -13.793  44.398  0.00  0.00     0.000 A 
ATOM     14  C   UNL d   1      45.708 -13.943  44.164  0.00  0.00     0.002 A 
ATOM     15  C   UNL d   1      46.063 -14.682  44.323  0.00  0.00     0.025 A 
ENDBRANCH   9  10
ENDBRANCH   8   9
ENDBRANCH   7   8
ENDBRANCH   6   7
ENDBRANCH   2   6
BRANCH   1  16
ATOM     16  C   UNL d   1      46.524 -19.266  42.838  0.00  0.00     0.087 A 
ATOM     17  C   UNL d   1      46.529 -19.962  42.337  0.00  0.00     0.019 A 
ATOM     18  C   UNL d   1      46.590 -19.849  41.522  0.00  0.00     0.002 A 
ATOM     19  C   UNL d   1      46.645 -19.077  41.193  0.00  0.00     0.000 A 
ATOM     20  C   UNL d   1      46.639 -18.425  41.689  0.00  0.00     0.002 A 
ATOM     21  C   UNL d   1      46.579 -18.519  42.506  0.00  0.00     0.019 A 
ENDBRANCH   1  16
TORSDOF 6
ENDMDL
