MODEL 1
REMARK VINA RESULT:      18.8      0.000      0.000
REMARK  4 active torsions:
REMARK  status: ('A' for Active; 'I' for Inactive)
REMARK    1  A    between atoms: S_6  and  C_1 
REMARK    2  A    between atoms: C_7  and  S_6 
REMARK    3  A    between atoms: C_10  and  C_7 
REMARK    4  A    between atoms: C_11  and  C_10 
ROOT
ATOM      1  C   UNL d   1     -51.432  24.929  33.315  0.00  0.00     0.194 A 
ATOM      2  N   UNL d   1     -52.207  25.260  33.320  0.00  0.00    -0.220 NA
ATOM      3  N   UNL d   1     -51.513  24.107  33.321  0.00  0.00    -0.220 NA
ATOM      4  C   UNL d   1     -52.739  24.653  33.328  0.00  0.00     0.101 A 
ATOM      5  C   UNL d   1     -52.301  23.925  33.328  0.00  0.00     0.101 A 
ATOM      6  C   UNL d   1     -53.569  24.595  33.335  0.00  0.00     0.021 A 
ATOM      7  C   UNL d   1     -52.700  23.204  33.336  0.00  0.00     0.021 A 
ATOM      8  C   UNL d   1     -53.525  23.188  33.343  0.00  0.00     0.002 A 
ATOM      9  C   UNL d   1     -53.949  23.892  33.342  0.00  0.00     0.002 A 
ENDROOT
BRANCH   1  10
ATOM     10  S   UNL d   1     -51.030  25.647  33.308  0.00  0.00    -0.048 SA
BRANCH  10  11
ATOM     11  C   UNL d   1     -50.351  25.756  33.766  0.00  0.00     0.038 C 
BRANCH  11  12
ATOM     12  C   UNL d   1     -49.768  26.281  33.512  0.00  0.00     0.007 C 
BRANCH  12  13
ATOM     13  C   UNL d   1     -49.817  27.058  33.747  0.00  0.00     0.001 C 
ATOM     14  C   UNL d   1     -49.496  27.269  34.478  0.00  0.00     0.000 C 
ATOM     15  C   UNL d   1     -50.116  27.765  33.454  0.00  0.00     0.000 C 
ENDBRANCH  12  13
ENDBRANCH  11  12
ENDBRANCH  10  11
ENDBRANCH   1  10
TORSDOF 4
ENDMDL
