MODEL 1
REMARK VINA RESULT:      56.0      0.000      0.000
REMARK  7 active torsions:
REMARK  status: ('A' for Active; 'I' for Inactive)
REMARK    1  A    between atoms: C_8  and  N_2 
REMARK    2  A    between atoms: C_13  and  C_8 
REMARK    3  A    between atoms: O_17  and  C_13 
REMARK    4  A    between atoms: O_18  and  C_15 
REMARK    5  A    between atoms: C_21  and  O_17 
REMARK    6  A    between atoms: C_23  and  C_21 
REMARK    7  A    between atoms: C_24  and  C_23 
ROOT
ATOM      1  C   UNL d   1     -51.970  25.540  33.306  0.00  0.00     0.166 A 
ATOM      2  N   UNL d   1     -51.362  26.087  33.306  0.00  0.00    -0.285 N 
ATOM      3  C   UNL d   1     -51.634  24.785  33.306  0.00  0.00     0.117 A 
ATOM      4  C   UNL d   1     -50.815  24.868  33.306  0.00  0.00     0.039 A 
ATOM      5  C   UNL d   1     -50.643  25.676  33.306  0.00  0.00     0.067 A 
ATOM      6  N   UNL d   1     -52.785  25.628  33.306  0.00  0.00    -0.225 NA
ATOM      7  N   UNL d   1     -52.117  24.109  33.306  0.00  0.00    -0.241 NA
ATOM      8  C   UNL d   1     -53.277  24.956  33.306  0.00  0.00     0.101 A 
ATOM      9  C   UNL d   1     -52.940  24.200  33.306  0.00  0.00     0.099 A 
ATOM     10  C   UNL d   1     -49.858  25.932  33.306  0.00  0.00     0.020 A 
ATOM     11  C   UNL d   1     -50.203  24.317  33.306  0.00  0.00     0.027 A 
ATOM     12  C   UNL d   1     -49.419  24.573  33.306  0.00  0.00     0.094 A 
ATOM     13  C   UNL d   1     -49.246  25.379  33.306  0.00  0.00     0.026 A 
ATOM     14  C   UNL d   1     -53.424  23.536  33.306  0.00  0.00     0.021 A 
ATOM     15  C   UNL d   1     -54.092  25.048  33.306  0.00  0.00     0.021 A 
ATOM     16  C   UNL d   1     -54.244  23.628  33.306  0.00  0.00     0.002 A 
ATOM     17  C   UNL d   1     -54.584  24.384  33.306  0.00  0.00     0.002 A 
ENDROOT
BRANCH   2  18
ATOM     18  C   UNL d   1     -51.445  26.906  33.306  0.00  0.00     0.151 C 
BRANCH  18  19
ATOM     19  C   UNL d   1     -50.884  27.368  33.693  0.00  0.00     0.318 C 
ATOM     20  O   UNL d   1     -50.613  27.160  34.440  0.00  0.00    -0.257 OA
BRANCH  19  21
ATOM     21  O   UNL d   1     -50.593  28.045  33.327  0.00  0.00    -0.270 OA
BRANCH  21  22
ATOM     22  C   UNL d   1     -50.351  28.685  33.782  0.00  0.00     0.126 C 
BRANCH  22  23
ATOM     23  C   UNL d   1     -50.175  29.400  33.415  0.00  0.00     0.027 C 
BRANCH  23  24
ATOM     24  C   UNL d   1     -49.518  29.836  33.657  0.00  0.00     0.002 C 
ATOM     25  C   UNL d   1     -49.576  30.650  33.765  0.00  0.00     0.000 C 
ENDBRANCH  23  24
ENDBRANCH  22  23
ENDBRANCH  21  22
ENDBRANCH  19  21
ENDBRANCH  18  19
ENDBRANCH   2  18
BRANCH  12  26
ATOM     26  O   UNL d   1     -48.811  24.020  33.306  0.00  0.00    -0.328 OA
ATOM     27  C   UNL d   1     -48.084  24.210  33.625  0.00  0.00     0.181 C 
ENDBRANCH  12  26
TORSDOF 7
ENDMDL
