MODEL 1
REMARK VINA RESULT:      -9.7      0.000      0.000
REMARK  4 active torsions:
REMARK  status: ('A' for Active; 'I' for Inactive)
REMARK    1  A    between atoms: N_3  and  S_1 
REMARK    2  A    between atoms: C_5  and  S_1 
REMARK    3  A    between atoms: C_2  and  C_9 
REMARK       I    between atoms: N_4  and  C_2 
REMARK    4  A    between atoms: C_11  and  N_3 
ROOT
ATOM      1  C   UNL d   1      50.538  34.276  52.736  0.00  0.00     0.057 A 
ATOM      2  C   UNL d   1      51.918  33.377  52.738  0.00  0.00     0.094 A 
ATOM      3  C   UNL d   1      51.216  34.559  52.357  0.00  0.00     0.006 A 
ATOM      4  C   UNL d   1      50.548  33.545  53.117  0.00  0.00     0.006 A 
ATOM      5  C   UNL d   1      51.906  34.106  52.359  0.00  0.00     0.020 A 
ATOM      6  C   UNL d   1      51.232  33.093  53.121  0.00  0.00     0.020 A 
ENDROOT
BRANCH   2   7
ATOM      7  N   UNL d   1      52.602  32.925  52.742  0.00  0.00    -0.158 NA
BRANCH   7   8
ATOM      8  S   UNL d   1      53.146  33.007  53.360  0.00  0.00     0.285 S 
ATOM      9  O   UNL d   1      53.449  33.690  53.009  0.00  0.00    -0.198 OA
ATOM     10  O   UNL d   1      52.841  32.323  53.708  0.00  0.00    -0.198 OA
BRANCH   8  11
ATOM     11  C   UNL d   1      53.686  33.086  53.976  0.00  0.00     0.107 A 
ATOM     12  C   UNL d   1      53.610  32.619  54.656  0.00  0.00     0.043 A 
ATOM     13  C   UNL d   1      54.152  32.698  55.276  0.00  0.00     0.141 A 
ATOM     14  F   UNL d   1      54.080  32.231  55.963  0.00  0.00    -0.204 F 
ATOM     15  C   UNL d   1      54.768  33.242  55.214  0.00  0.00     0.030 A 
ATOM     16  C   UNL d   1      54.843  33.704  54.540  0.00  0.00     0.003 A 
ATOM     17  C   UNL d   1      54.304  33.630  53.919  0.00  0.00     0.013 A 
ENDBRANCH   8  11
ENDBRANCH   7   8
ENDBRANCH   2   7
BRANCH   1  18
ATOM     18  C   UNL d   1      49.834  34.732  52.737  0.00  0.00     0.265 C 
ATOM     19  N   UNL d   1      49.341  34.725  52.071  0.00  0.00    -0.272 N 
ATOM     20  C   UNL d   1      48.647  35.174  52.071  0.00  0.00     0.083 A 
ATOM     21  C   UNL d   1      49.539  34.276  51.413  0.00  0.00     0.083 A 
ATOM     22  C   UNL d   1      48.155  35.169  51.409  0.00  0.00     0.019 A 
ATOM     23  C   UNL d   1      48.364  34.717  50.761  0.00  0.00     0.003 A 
ATOM     24  C   UNL d   1      49.050  34.273  50.759  0.00  0.00     0.019 A 
ATOM     25  O   UNL d   1      49.636  35.187  53.406  0.00  0.00    -0.267 OA
ENDBRANCH   1  18
TORSDOF 4
ENDMDL
MODEL 2
REMARK VINA RESULT:      -8.5      2.728      3.862
REMARK  4 active torsions:
REMARK  status: ('A' for Active; 'I' for Inactive)
REMARK    1  A    between atoms: N_3  and  S_1 
REMARK    2  A    between atoms: C_5  and  S_1 
REMARK    3  A    between atoms: C_2  and  C_9 
REMARK       I    between atoms: N_4  and  C_2 
REMARK    4  A    between atoms: C_11  and  N_3 
ROOT
ATOM      1  C   UNL d   1      52.588  33.145  53.044  0.00  0.00     0.057 A 
ATOM      2  C   UNL d   1      52.759  31.520  52.841  0.00  0.00     0.094 A 
ATOM      3  C   UNL d   1      53.338  32.821  52.917  0.00  0.00     0.006 A 
ATOM      4  C   UNL d   1      51.923  32.659  53.070  0.00  0.00     0.006 A 
ATOM      5  C   UNL d   1      53.420  32.006  52.816  0.00  0.00     0.020 A 
ATOM      6  C   UNL d   1      52.002  31.849  52.969  0.00  0.00     0.020 A 
ENDROOT
BRANCH   2   7
ATOM      7  N   UNL d   1      52.838  30.710  52.740  0.00  0.00    -0.158 NA
BRANCH   7   8
ATOM      8  S   UNL d   1      52.984  30.226  53.395  0.00  0.00     0.285 S 
ATOM      9  O   UNL d   1      53.780  30.445  53.385  0.00  0.00    -0.198 OA
ATOM     10  O   UNL d   1      52.188  30.008  53.403  0.00  0.00    -0.198 OA
BRANCH   8  11
ATOM     11  C   UNL d   1      53.127  29.744  54.047  0.00  0.00     0.107 A 
ATOM     12  C   UNL d   1      53.374  28.961  53.937  0.00  0.00     0.043 A 
ATOM     13  C   UNL d   1      53.517  28.476  54.591  0.00  0.00     0.141 A 
ATOM     14  F   UNL d   1      53.766  27.687  54.487  0.00  0.00    -0.204 F 
ATOM     15  C   UNL d   1      53.415  28.774  55.353  0.00  0.00     0.030 A 
ATOM     16  C   UNL d   1      53.170  29.551  55.461  0.00  0.00     0.003 A 
ATOM     17  C   UNL d   1      53.025  30.039  54.811  0.00  0.00     0.013 A 
ENDBRANCH   8  11
ENDBRANCH   7   8
ENDBRANCH   2   7
BRANCH   1  18
ATOM     18  C   UNL d   1      52.498  33.973  53.148  0.00  0.00     0.265 C 
ATOM     19  N   UNL d   1      52.786  34.332  53.836  0.00  0.00    -0.272 N 
ATOM     20  C   UNL d   1      52.698  35.148  53.939  0.00  0.00     0.083 A 
ATOM     21  C   UNL d   1      53.157  33.884  54.415  0.00  0.00     0.083 A 
ATOM     22  C   UNL d   1      52.983  35.508  54.624  0.00  0.00     0.019 A 
ATOM     23  C   UNL d   1      53.350  35.050  55.192  0.00  0.00     0.003 A 
ATOM     24  C   UNL d   1      53.438  34.243  55.092  0.00  0.00     0.019 A 
ATOM     25  O   UNL d   1      52.122  34.425  52.559  0.00  0.00    -0.267 OA
ENDBRANCH   1  18
TORSDOF 4
ENDMDL
MODEL 3
REMARK VINA RESULT:      -8.3      2.048      5.174
REMARK  4 active torsions:
REMARK  status: ('A' for Active; 'I' for Inactive)
REMARK    1  A    between atoms: N_3  and  S_1 
REMARK    2  A    between atoms: C_5  and  S_1 
REMARK    3  A    between atoms: C_2  and  C_9 
REMARK       I    between atoms: N_4  and  C_2 
REMARK    4  A    between atoms: C_11  and  N_3 
ROOT
ATOM      1  C   UNL d   1      52.452  34.419  53.719  0.00  0.00     0.057 A 
ATOM      2  C   UNL d   1      51.225  34.013  52.699  0.00  0.00     0.094 A 
ATOM      3  C   UNL d   1      51.830  33.947  53.989  0.00  0.00     0.006 A 
ATOM      4  C   UNL d   1      52.463  34.689  52.940  0.00  0.00     0.006 A 
ATOM      5  C   UNL d   1      51.216  33.745  53.475  0.00  0.00     0.020 A 
ATOM      6  C   UNL d   1      51.855  34.490  52.427  0.00  0.00     0.020 A 
ENDROOT
BRANCH   2   7
ATOM      7  N   UNL d   1      50.617  33.814  52.186  0.00  0.00    -0.158 NA
BRANCH   7   8
ATOM      8  S   UNL d   1      49.934  34.280  52.156  0.00  0.00     0.285 S 
ATOM      9  O   UNL d   1      49.686  33.972  52.881  0.00  0.00    -0.198 OA
ATOM     10  O   UNL d   1      50.184  34.586  51.431  0.00  0.00    -0.198 OA
BRANCH   8  11
ATOM     11  C   UNL d   1      49.255  34.745  52.124  0.00  0.00     0.107 A 
ATOM     12  C   UNL d   1      49.043  35.212  52.774  0.00  0.00     0.043 A 
ATOM     13  C   UNL d   1      48.361  35.680  52.743  0.00  0.00     0.141 A 
ATOM     14  F   UNL d   1      48.141  36.152  53.394  0.00  0.00    -0.204 F 
ATOM     15  C   UNL d   1      47.894  35.679  52.063  0.00  0.00     0.030 A 
ATOM     16  C   UNL d   1      48.106  35.215  51.419  0.00  0.00     0.003 A 
ATOM     17  C   UNL d   1      48.786  34.747  51.445  0.00  0.00     0.013 A 
ENDBRANCH   8  11
ENDBRANCH   7   8
ENDBRANCH   2   7
BRANCH   1  18
ATOM     18  C   UNL d   1      53.079  34.628  54.237  0.00  0.00     0.265 C 
ATOM     19  N   UNL d   1      53.675  34.077  54.400  0.00  0.00    -0.272 N 
ATOM     20  C   UNL d   1      54.292  34.281  54.910  0.00  0.00     0.083 A 
ATOM     21  C   UNL d   1      53.655  33.331  54.059  0.00  0.00     0.083 A 
ATOM     22  C   UNL d   1      54.887  33.734  55.074  0.00  0.00     0.019 A 
ATOM     23  C   UNL d   1      54.856  32.994  54.728  0.00  0.00     0.003 A 
ATOM     24  C   UNL d   1      54.245  32.791  54.223  0.00  0.00     0.019 A 
ATOM     25  O   UNL d   1      53.096  35.385  54.581  0.00  0.00    -0.267 OA
ENDBRANCH   1  18
TORSDOF 4
ENDMDL
MODEL 4
REMARK VINA RESULT:      -8.1      2.202      4.848
REMARK  4 active torsions:
REMARK  status: ('A' for Active; 'I' for Inactive)
REMARK    1  A    between atoms: N_3  and  S_1 
REMARK    2  A    between atoms: C_5  and  S_1 
REMARK    3  A    between atoms: C_2  and  C_9 
REMARK       I    between atoms: N_4  and  C_2 
REMARK    4  A    between atoms: C_11  and  N_3 
ROOT
ATOM      1  C   UNL d   1      53.402  32.521  53.660  0.00  0.00     0.057 A 
ATOM      2  C   UNL d   1      52.630  33.919  53.255  0.00  0.00     0.094 A 
ATOM      3  C   UNL d   1      53.471  32.824  52.894  0.00  0.00     0.006 A 
ATOM      4  C   UNL d   1      52.949  32.915  54.225  0.00  0.00     0.006 A 
ATOM      5  C   UNL d   1      53.083  33.525  52.694  0.00  0.00     0.020 A 
ATOM      6  C   UNL d   1      52.562  33.611  54.030  0.00  0.00     0.020 A 
ENDROOT
BRANCH   2   7
ATOM      7  N   UNL d   1      52.244  34.615  53.060  0.00  0.00    -0.158 NA
BRANCH   7   8
ATOM      8  S   UNL d   1      51.461  34.591  52.795  0.00  0.00     0.285 S 
ATOM      9  O   UNL d   1      51.722  34.520  52.015  0.00  0.00    -0.198 OA
ATOM     10  O   UNL d   1      51.202  34.662  53.576  0.00  0.00    -0.198 OA
BRANCH   8  11
ATOM     11  C   UNL d   1      50.681  34.567  52.533  0.00  0.00     0.107 A 
ATOM     12  C   UNL d   1      50.080  34.908  52.990  0.00  0.00     0.043 A 
ATOM     13  C   UNL d   1      49.296  34.885  52.728  0.00  0.00     0.141 A 
ATOM     14  F   UNL d   1      48.687  35.227  53.184  0.00  0.00    -0.204 F 
ATOM     15  C   UNL d   1      49.114  34.521  52.011  0.00  0.00     0.030 A 
ATOM     16  C   UNL d   1      49.711  34.183  51.559  0.00  0.00     0.003 A 
ATOM     17  C   UNL d   1      50.495  34.204  51.816  0.00  0.00     0.013 A 
ENDBRANCH   8  11
ENDBRANCH   7   8
ENDBRANCH   2   7
BRANCH   1  18
ATOM     18  C   UNL d   1      53.794  31.809  53.868  0.00  0.00     0.265 C 
ATOM     19  N   UNL d   1      53.453  31.081  53.670  0.00  0.00    -0.272 N 
ATOM     20  C   UNL d   1      53.838  30.379  53.875  0.00  0.00     0.083 A 
ATOM     21  C   UNL d   1      52.735  31.053  53.272  0.00  0.00     0.083 A 
ATOM     22  C   UNL d   1      53.500  29.653  53.679  0.00  0.00     0.019 A 
ATOM     23  C   UNL d   1      52.786  29.639  53.283  0.00  0.00     0.003 A 
ATOM     24  C   UNL d   1      52.403  30.333  53.079  0.00  0.00     0.019 A 
ATOM     25  O   UNL d   1      54.521  31.840  54.272  0.00  0.00    -0.267 OA
ENDBRANCH   1  18
TORSDOF 4
ENDMDL
MODEL 5
REMARK VINA RESULT:      -7.8      2.850      4.752
REMARK  4 active torsions:
REMARK  status: ('A' for Active; 'I' for Inactive)
REMARK    1  A    between atoms: N_3  and  S_1 
REMARK    2  A    between atoms: C_5  and  S_1 
REMARK    3  A    between atoms: C_2  and  C_9 
REMARK       I    between atoms: N_4  and  C_2 
REMARK    4  A    between atoms: C_11  and  N_3 
ROOT
ATOM      1  C   UNL d   1      52.891  30.687  53.113  0.00  0.00     0.057 A 
ATOM      2  C   UNL d   1      52.673  32.307  52.919  0.00  0.00     0.094 A 
ATOM      3  C   UNL d   1      53.543  31.178  52.984  0.00  0.00     0.006 A 
ATOM      4  C   UNL d   1      52.130  31.002  53.145  0.00  0.00     0.006 A 
ATOM      5  C   UNL d   1      53.430  31.990  52.887  0.00  0.00     0.020 A 
ATOM      6  C   UNL d   1      52.015  31.809  53.049  0.00  0.00     0.020 A 
ENDROOT
BRANCH   2   7
ATOM      7  N   UNL d   1      52.558  33.113  52.822  0.00  0.00    -0.158 NA
BRANCH   7   8
ATOM      8  S   UNL d   1      52.771  33.635  53.429  0.00  0.00     0.285 S 
ATOM      9  O   UNL d   1      53.525  33.715  53.102  0.00  0.00    -0.198 OA
ATOM     10  O   UNL d   1      52.016  33.552  53.753  0.00  0.00    -0.198 OA
BRANCH   8  11
ATOM     11  C   UNL d   1      52.979  34.153  54.033  0.00  0.00     0.107 A 
ATOM     12  C   UNL d   1      52.786  34.956  53.975  0.00  0.00     0.043 A 
ATOM     13  C   UNL d   1      52.995  35.478  54.581  0.00  0.00     0.141 A 
ATOM     14  F   UNL d   1      52.804  36.288  54.529  0.00  0.00    -0.204 F 
ATOM     15  C   UNL d   1      53.397  35.196  55.244  0.00  0.00     0.030 A 
ATOM     16  C   UNL d   1      53.588  34.399  55.301  0.00  0.00     0.003 A 
ATOM     17  C   UNL d   1      53.381  33.875  54.698  0.00  0.00     0.013 A 
ENDBRANCH   8  11
ENDBRANCH   7   8
ENDBRANCH   2   7
BRANCH   1  18
ATOM     18  C   UNL d   1      52.999  29.860  53.213  0.00  0.00     0.265 C 
ATOM     19  N   UNL d   1      53.146  29.555  53.968  0.00  0.00    -0.272 N 
ATOM     20  C   UNL d   1      53.253  28.741  54.067  0.00  0.00     0.083 A 
ATOM     21  C   UNL d   1      53.187  30.055  54.618  0.00  0.00     0.083 A 
ATOM     22  C   UNL d   1      53.400  28.435  54.819  0.00  0.00     0.019 A 
ATOM     23  C   UNL d   1      53.438  28.944  55.457  0.00  0.00     0.003 A 
ATOM     24  C   UNL d   1      53.333  29.750  55.360  0.00  0.00     0.019 A 
ATOM     25  O   UNL d   1      52.957  29.355  52.552  0.00  0.00    -0.267 OA
ENDBRANCH   1  18
TORSDOF 4
ENDMDL
