MODEL 1
REMARK VINA RESULT:      23.7      0.000      0.000
REMARK  4 active torsions:
REMARK  status: ('A' for Active; 'I' for Inactive)
REMARK    1  A    between atoms: C_7  and  C_2 
REMARK    2  A    between atoms: C_6  and  C_3 
REMARK    3  A    between atoms: C_9  and  C_6 
REMARK    4  A    between atoms: O_15  and  C_10 
ROOT
ATOM      1  N   UNL d   1      14.756  11.971  -2.328  0.00  0.00    -0.201 NA
ATOM      2  C   UNL d   1      14.094  12.434  -2.484  0.00  0.00     0.114 A 
ATOM      3  C   UNL d   1      14.528  12.702  -1.258  0.00  0.00     0.089 A 
ATOM      4  C   UNL d   1      15.027  12.129  -1.581  0.00  0.00     0.286 A 
ATOM      5  S   UNL d   1      13.952  12.897  -1.803  0.00  0.00    -0.063 SA
ATOM      6  O   UNL d   1      15.679  11.780  -1.217  0.00  0.00    -0.265 OA
ENDROOT
BRANCH   3   7
ATOM      7  C   UNL d   1      14.585  13.036  -0.509  0.00  0.00     0.011 C 
BRANCH   7   8
ATOM      8  C   UNL d   1      14.821  13.820  -0.390  0.00  0.00     0.001 A 
ATOM      9  C   UNL d   1      14.325  14.445  -0.508  0.00  0.00     0.002 A 
ATOM     10  C   UNL d   1      14.589  15.208  -0.381  0.00  0.00     0.024 A 
ATOM     11  C   UNL d   1      15.333  15.364  -0.141  0.00  0.00     0.094 A 
ATOM     12  C   UNL d   1      15.853  14.732  -0.016  0.00  0.00     0.024 A 
ATOM     13  C   UNL d   1      15.606  13.956  -0.138  0.00  0.00     0.002 A 
BRANCH  11  14
ATOM     14  O   UNL d   1      15.590  16.142  -0.015  0.00  0.00    -0.328 OA
ATOM     15  C   UNL d   1      15.509  16.703  -0.603  0.00  0.00     0.181 C 
ENDBRANCH  11  14
ENDBRANCH   7   8
ENDBRANCH   3   7
BRANCH   2  16
ATOM     16  C   UNL d   1      13.653  12.442  -3.181  0.00  0.00     0.024 A 
ATOM     17  C   UNL d   1      13.213  11.780  -3.387  0.00  0.00     0.002 A 
ATOM     18  C   UNL d   1      12.771  11.787  -4.083  0.00  0.00     0.000 A 
ATOM     19  C   UNL d   1      12.774  12.457  -4.567  0.00  0.00     0.000 A 
ATOM     20  C   UNL d   1      13.219  13.118  -4.353  0.00  0.00     0.000 A 
ATOM     21  C   UNL d   1      13.661  13.111  -3.656  0.00  0.00     0.002 A 
ENDBRANCH   2  16
TORSDOF 4
ENDMDL
