MODEL 1
REMARK VINA RESULT:      -6.0      0.000      0.000
REMARK  8 active torsions:
REMARK  status: ('A' for Active; 'I' for Inactive)
REMARK    1  A    between atoms: N_5  and  C_1 
REMARK    2  A    between atoms: N_7  and  C_1 
REMARK    3  A    between atoms: N_2  and  C_3 
REMARK    4  A    between atoms: C_3  and  C_4 
REMARK    5  A    between atoms: C_6  and  C_3 
REMARK    6  A    between atoms: C_4  and  N_5 
REMARK    7  A    between atoms: C_8  and  N_7 
REMARK    8  A    between atoms: C_25  and  N_10 
ROOT
ATOM      1  C   UNL d   1      52.680  33.912  53.564  0.00  0.00     0.088 C 
ENDROOT
BRANCH   1   2
ATOM      2  N   UNL d   1      51.945  33.965  53.187  0.00  0.00    -0.300 N 
ATOM      3  C   UNL d   1      51.894  34.284  52.430  0.00  0.00     0.100 A 
ATOM      4  C   UNL d   1      51.166  34.336  52.055  0.00  0.00     0.100 A 
ATOM      5  N   UNL d   1      50.478  34.071  52.431  0.00  0.00    -0.300 N 
ATOM      6  C   UNL d   1      50.531  33.750  53.193  0.00  0.00     0.100 A 
ATOM      7  C   UNL d   1      51.262  33.694  53.577  0.00  0.00     0.100 A 
BRANCH   5   8
ATOM      8  C   UNL d   1      49.751  34.125  52.053  0.00  0.00     0.080 C 
ATOM      9  C   UNL d   1      49.289  34.805  52.151  0.00  0.00     0.021 C 
ENDBRANCH   5   8
ENDBRANCH   1   2
BRANCH   1  10
ATOM     10  C   UNL d   1      53.195  33.297  53.384  0.00  0.00     0.100 C 
ATOM     11  C   UNL d   1      53.804  33.419  52.854  0.00  0.00     0.022 C 
BRANCH  10  12
ATOM     12  N   UNL d   1      53.091  32.565  53.741  0.00  0.00    -0.216 NA
BRANCH  12  13
ATOM     13  C   UNL d   1      53.568  31.926  53.519  0.00  0.00     0.221 C 
ATOM     14  S   UNL d   1      54.372  31.945  53.686  0.00  0.00    -0.037 SA
BRANCH  13  15
ATOM     15  N   UNL d   1      53.236  31.281  53.134  0.00  0.00    -0.217 NA
BRANCH  15  16
ATOM     16  C   UNL d   1      53.179  30.551  53.514  0.00  0.00     0.084 A 
ATOM     17  C   UNL d   1      52.989  29.881  53.085  0.00  0.00     0.018 A 
ATOM     18  C   UNL d   1      52.931  29.155  53.455  0.00  0.00     0.002 A 
ATOM     19  C   UNL d   1      52.855  29.945  52.267  0.00  0.00     0.002 C 
ATOM     20  C   UNL d   1      53.066  29.096  54.273  0.00  0.00     0.000 A 
ATOM     21  C   UNL d   1      53.260  29.780  54.712  0.00  0.00     0.002 A 
ATOM     22  C   UNL d   1      53.315  30.502  54.329  0.00  0.00     0.019 A 
ATOM     23  C   UNL d   1      53.394  29.726  55.521  0.00  0.00     0.000 C 
ENDBRANCH  15  16
ENDBRANCH  13  15
ENDBRANCH  12  13
ENDBRANCH  10  12
ENDBRANCH   1  10
BRANCH   1  24
ATOM     24  C   UNL d   1      52.893  34.479  54.121  0.00  0.00     0.047 A 
ATOM     25  S   UNL d   1      53.142  35.252  53.966  0.00  0.00    -0.085 SA
ATOM     26  C   UNL d   1      53.297  35.621  54.684  0.00  0.00     0.035 A 
ATOM     27  C   UNL d   1      53.146  35.085  55.295  0.00  0.00     0.007 A 
ATOM     28  C   UNL d   1      52.895  34.372  54.948  0.00  0.00     0.009 A 
ENDBRANCH   1  24
TORSDOF 8
ENDMDL
MODEL 2
REMARK VINA RESULT:      -5.1      1.106      4.265
REMARK  8 active torsions:
REMARK  status: ('A' for Active; 'I' for Inactive)
REMARK    1  A    between atoms: N_5  and  C_1 
REMARK    2  A    between atoms: N_7  and  C_1 
REMARK    3  A    between atoms: N_2  and  C_3 
REMARK    4  A    between atoms: C_3  and  C_4 
REMARK    5  A    between atoms: C_6  and  C_3 
REMARK    6  A    between atoms: C_4  and  N_5 
REMARK    7  A    between atoms: C_8  and  N_7 
REMARK    8  A    between atoms: C_25  and  N_10 
ROOT
ATOM      1  C   UNL d   1      53.685  32.858  53.904  0.00  0.00     0.088 C 
ENDROOT
BRANCH   1   2
ATOM      2  N   UNL d   1      53.574  32.042  53.817  0.00  0.00    -0.300 N 
ATOM      3  C   UNL d   1      54.024  31.623  53.268  0.00  0.00     0.100 A 
ATOM      4  C   UNL d   1      53.914  30.815  53.182  0.00  0.00     0.100 A 
ATOM      5  N   UNL d   1      53.355  30.413  53.640  0.00  0.00    -0.300 N 
ATOM      6  C   UNL d   1      52.904  30.837  54.192  0.00  0.00     0.100 A 
ATOM      7  C   UNL d   1      53.009  31.652  54.285  0.00  0.00     0.100 A 
BRANCH   5   8
ATOM      8  C   UNL d   1      53.248  29.604  53.551  0.00  0.00     0.080 C 
ATOM      9  C   UNL d   1      53.258  29.114  54.218  0.00  0.00     0.021 C 
ENDBRANCH   5   8
ENDBRANCH   1   2
BRANCH   1  10
ATOM     10  C   UNL d   1      53.320  33.383  53.387  0.00  0.00     0.100 C 
ATOM     11  C   UNL d   1      53.739  33.690  52.756  0.00  0.00     0.022 C 
BRANCH  10  12
ATOM     12  N   UNL d   1      52.537  33.594  53.512  0.00  0.00    -0.216 NA
BRANCH  12  13
ATOM     13  C   UNL d   1      52.165  34.123  52.994  0.00  0.00     0.221 C 
ATOM     14  S   UNL d   1      52.399  34.910  52.982  0.00  0.00    -0.037 SA
BRANCH  13  15
ATOM     15  N   UNL d   1      51.566  33.857  52.499  0.00  0.00    -0.217 NA
BRANCH  15  16
ATOM     16  C   UNL d   1      50.823  34.212  52.512  0.00  0.00     0.084 A 
ATOM     17  C   UNL d   1      50.381  34.263  51.825  0.00  0.00     0.018 A 
ATOM     18  C   UNL d   1      49.644  34.614  51.831  0.00  0.00     0.002 A 
ATOM     19  C   UNL d   1      50.690  33.954  51.118  0.00  0.00     0.002 C 
ATOM     20  C   UNL d   1      49.339  34.922  52.541  0.00  0.00     0.000 A 
ATOM     21  C   UNL d   1      49.788  34.871  53.242  0.00  0.00     0.002 A 
ATOM     22  C   UNL d   1      50.527  34.516  53.223  0.00  0.00     0.019 A 
ATOM     23  C   UNL d   1      49.490  35.174  53.946  0.00  0.00     0.000 C 
ENDBRANCH  15  16
ENDBRANCH  13  15
ENDBRANCH  12  13
ENDBRANCH  10  12
ENDBRANCH   1  10
BRANCH   1  24
ATOM     24  C   UNL d   1      54.163  33.141  54.510  0.00  0.00     0.047 A 
ATOM     25  S   UNL d   1      54.942  33.409  54.440  0.00  0.00    -0.085 SA
ATOM     26  C   UNL d   1      55.203  33.639  55.185  0.00  0.00     0.035 A 
ATOM     27  C   UNL d   1      54.594  33.519  55.728  0.00  0.00     0.007 A 
ATOM     28  C   UNL d   1      53.943  33.208  55.313  0.00  0.00     0.009 A 
ENDBRANCH   1  24
TORSDOF 8
ENDMDL
MODEL 3
REMARK VINA RESULT:      -4.5      1.463      5.067
REMARK  8 active torsions:
REMARK  status: ('A' for Active; 'I' for Inactive)
REMARK    1  A    between atoms: N_5  and  C_1 
REMARK    2  A    between atoms: N_7  and  C_1 
REMARK    3  A    between atoms: N_2  and  C_3 
REMARK    4  A    between atoms: C_3  and  C_4 
REMARK    5  A    between atoms: C_6  and  C_3 
REMARK    6  A    between atoms: C_4  and  N_5 
REMARK    7  A    between atoms: C_8  and  N_7 
REMARK    8  A    between atoms: C_25  and  N_10 
ROOT
ATOM      1  C   UNL d   1      51.921  33.790  53.103  0.00  0.00     0.088 C 
ENDROOT
BRANCH   1   2
ATOM      2  N   UNL d   1      52.118  32.986  53.073  0.00  0.00    -0.300 N 
ATOM      3  C   UNL d   1      52.787  32.743  52.661  0.00  0.00     0.100 A 
ATOM      4  C   UNL d   1      52.983  31.947  52.630  0.00  0.00     0.100 A 
ATOM      5  N   UNL d   1      52.513  31.382  53.011  0.00  0.00    -0.300 N 
ATOM      6  C   UNL d   1      51.839  31.629  53.426  0.00  0.00     0.100 A 
ATOM      7  C   UNL d   1      51.636  32.430  53.460  0.00  0.00     0.100 A 
BRANCH   5   8
ATOM      8  C   UNL d   1      52.711  30.586  52.978  0.00  0.00     0.080 C 
ATOM      9  C   UNL d   1      53.292  30.288  53.488  0.00  0.00     0.021 C 
ENDBRANCH   5   8
ENDBRANCH   1   2
BRANCH   1  10
ATOM     10  C   UNL d   1      51.326  34.089  52.622  0.00  0.00     0.100 C 
ATOM     11  C   UNL d   1      51.504  34.342  51.865  0.00  0.00     0.022 C 
BRANCH  10  12
ATOM     12  N   UNL d   1      50.557  34.131  52.907  0.00  0.00    -0.216 NA
BRANCH  12  13
ATOM     13  C   UNL d   1      49.987  34.567  52.494  0.00  0.00     0.221 C 
ATOM     14  S   UNL d   1      49.783  34.344  51.731  0.00  0.00    -0.037 SA
BRANCH  13  15
ATOM     15  N   UNL d   1      49.631  35.215  52.850  0.00  0.00    -0.217 NA
BRANCH  15  16
ATOM     16  C   UNL d   1      48.848  35.409  52.678  0.00  0.00     0.084 A 
ATOM     17  C   UNL d   1      48.393  35.802  53.233  0.00  0.00     0.018 A 
ATOM     18  C   UNL d   1      47.617  35.997  53.070  0.00  0.00     0.002 A 
ATOM     19  C   UNL d   1      48.728  36.002  53.967  0.00  0.00     0.002 C 
ATOM     20  C   UNL d   1      47.286  35.795  52.335  0.00  0.00     0.000 A 
ATOM     21  C   UNL d   1      47.749  35.394  51.767  0.00  0.00     0.002 A 
ATOM     22  C   UNL d   1      48.526  35.204  51.943  0.00  0.00     0.019 A 
ATOM     23  C   UNL d   1      47.426  35.192  51.039  0.00  0.00     0.000 C 
ENDBRANCH  15  16
ENDBRANCH  13  15
ENDBRANCH  12  13
ENDBRANCH  10  12
ENDBRANCH   1  10
BRANCH   1  24
ATOM     24  C   UNL d   1      52.325  34.288  53.618  0.00  0.00     0.047 A 
ATOM     25  S   UNL d   1      52.911  34.835  53.417  0.00  0.00    -0.085 SA
ATOM     26  C   UNL d   1      53.160  35.211  54.104  0.00  0.00     0.035 A 
ATOM     27  C   UNL d   1      52.734  34.905  54.742  0.00  0.00     0.007 A 
ATOM     28  C   UNL d   1      52.212  34.330  54.444  0.00  0.00     0.009 A 
ENDBRANCH   1  24
TORSDOF 8
ENDMDL
MODEL 4
REMARK VINA RESULT:      -4.3      1.405      4.830
REMARK  8 active torsions:
REMARK  status: ('A' for Active; 'I' for Inactive)
REMARK    1  A    between atoms: N_5  and  C_1 
REMARK    2  A    between atoms: N_7  and  C_1 
REMARK    3  A    between atoms: N_2  and  C_3 
REMARK    4  A    between atoms: C_3  and  C_4 
REMARK    5  A    between atoms: C_6  and  C_3 
REMARK    6  A    between atoms: C_4  and  N_5 
REMARK    7  A    between atoms: C_8  and  N_7 
REMARK    8  A    between atoms: C_25  and  N_10 
ROOT
ATOM      1  C   UNL d   1      52.762  32.664  53.264  0.00  0.00     0.088 C 
ENDROOT
BRANCH   1   2
ATOM      2  N   UNL d   1      53.322  32.908  53.823  0.00  0.00    -0.300 N 
ATOM      3  C   UNL d   1      54.119  32.936  53.620  0.00  0.00     0.100 A 
ATOM      4  C   UNL d   1      54.674  33.177  54.173  0.00  0.00     0.100 A 
ATOM      5  N   UNL d   1      54.442  33.396  54.937  0.00  0.00    -0.300 N 
ATOM      6  C   UNL d   1      53.639  33.367  55.139  0.00  0.00     0.100 A 
ATOM      7  C   UNL d   1      53.073  33.125  54.587  0.00  0.00     0.100 A 
BRANCH   5   8
ATOM      8  C   UNL d   1      55.001  33.637  55.488  0.00  0.00     0.080 C 
ATOM      9  C   UNL d   1      55.671  34.053  55.235  0.00  0.00     0.021 C 
ENDBRANCH   5   8
ENDBRANCH   1   2
BRANCH   1  10
ATOM     10  C   UNL d   1      52.373  33.219  52.798  0.00  0.00     0.100 C 
ATOM     11  C   UNL d   1      52.738  33.515  52.130  0.00  0.00     0.022 C 
BRANCH  10  12
ATOM     12  N   UNL d   1      51.620  33.468  53.010  0.00  0.00    -0.216 NA
BRANCH  12  13
ATOM     13  C   UNL d   1      51.243  34.060  52.570  0.00  0.00     0.221 C 
ATOM     14  S   UNL d   1      51.582  34.806  52.522  0.00  0.00    -0.037 SA
BRANCH  13  15
ATOM     15  N   UNL d   1      50.535  33.897  52.188  0.00  0.00    -0.217 NA
BRANCH  15  16
ATOM     16  C   UNL d   1      49.881  34.389  52.289  0.00  0.00     0.084 A 
ATOM     17  C   UNL d   1      49.363  34.515  51.668  0.00  0.00     0.018 A 
ATOM     18  C   UNL d   1      48.714  35.002  51.762  0.00  0.00     0.002 A 
ATOM     19  C   UNL d   1      49.505  34.143  50.938  0.00  0.00     0.002 C 
ATOM     20  C   UNL d   1      48.578  35.372  52.493  0.00  0.00     0.000 A 
ATOM     21  C   UNL d   1      49.105  35.244  53.128  0.00  0.00     0.002 A 
ATOM     22  C   UNL d   1      49.753  34.754  53.021  0.00  0.00     0.019 A 
ATOM     23  C   UNL d   1      48.973  35.609  53.853  0.00  0.00     0.000 C 
ENDBRANCH  15  16
ENDBRANCH  13  15
ENDBRANCH  12  13
ENDBRANCH  10  12
ENDBRANCH   1  10
BRANCH   1  24
ATOM     24  C   UNL d   1      52.596  31.864  53.177  0.00  0.00     0.047 A 
ATOM     25  S   UNL d   1      53.023  31.318  52.726  0.00  0.00    -0.085 SA
ATOM     26  C   UNL d   1      52.661  30.584  52.799  0.00  0.00     0.035 A 
ATOM     27  C   UNL d   1      52.006  30.660  53.296  0.00  0.00     0.007 A 
ATOM     28  C   UNL d   1      51.961  31.456  53.534  0.00  0.00     0.009 A 
ENDBRANCH   1  24
TORSDOF 8
ENDMDL
