MODEL 1
REMARK VINA RESULT:      38.8      0.000      0.000
REMARK  6 active torsions:
REMARK  status: ('A' for Active; 'I' for Inactive)
REMARK    1  A    between atoms: C_2  and  C_4 
REMARK    2  A    between atoms: C_5  and  C_3 
REMARK    3  A    between atoms: C_16  and  C_15 
REMARK    4  A    between atoms: C_17  and  C_16 
REMARK    5  A    between atoms: C_19  and  C_17 
REMARK    6  A    between atoms: C_18  and  C_19 
ROOT
ATOM      1  N   UNL d   1     -52.552  25.934  33.392  0.00  0.00    -0.244 NA
ATOM      2  C   UNL d   1     -51.712  25.933  33.362  0.00  0.00     0.081 A 
ATOM      3  C   UNL d   1     -51.300  25.196  33.322  0.00  0.00     0.019 A 
ATOM      4  C   UNL d   1     -52.999  25.199  33.381  0.00  0.00     0.099 A 
ATOM      5  C   UNL d   1     -51.716  24.495  33.311  0.00  0.00     0.003 A 
ATOM      6  C   UNL d   1     -52.556  24.496  33.341  0.00  0.00     0.019 A 
ENDROOT
BRANCH   2   7
ATOM      7  C   UNL d   1     -51.327  26.622  33.373  0.00  0.00     0.018 A 
ATOM      8  C   UNL d   1     -50.515  26.629  33.312  0.00  0.00     0.002 A 
ATOM      9  C   UNL d   1     -50.115  27.376  33.325  0.00  0.00     0.006 A 
ATOM     10  C   UNL d   1     -50.540  28.071  33.399  0.00  0.00     0.064 A 
ATOM     11  C   UNL d   1     -51.389  28.043  33.462  0.00  0.00     0.006 A 
ATOM     12  C   UNL d   1     -51.755  27.315  33.447  0.00  0.00     0.002 A 
BRANCH  10  13
ATOM     13  C   UNL d   1     -50.143  28.819  33.412  0.00  0.00     0.211 C 
ATOM     14  O   UNL d   1     -50.539  29.553  33.346  0.00  0.00    -0.644 OA
ATOM     15  O   UNL d   1     -49.296  28.845  33.496  0.00  0.00    -0.644 OA
ENDBRANCH  10  13
ENDBRANCH   2   7
BRANCH   6  16
ATOM     16  C   UNL d   1     -53.007  23.761  33.330  0.00  0.00     0.002 C 
BRANCH  16  17
ATOM     17  C   UNL d   1     -53.581  23.660  33.899  0.00  0.00     0.000 C 
BRANCH  17  18
ATOM     18  C   UNL d   1     -53.410  23.190  34.584  0.00  0.00     0.000 C 
BRANCH  18  19
ATOM     19  C   UNL d   1     -53.470  23.477  35.323  0.00  0.00     0.000 C 
ATOM     20  C   UNL d   1     -54.087  23.264  35.817  0.00  0.00     0.000 C 
ENDBRANCH  18  19
ENDBRANCH  17  18
ENDBRANCH  16  17
ENDBRANCH   6  16
TORSDOF 6
ENDMDL
MODEL 2
REMARK VINA RESULT:      40.0      2.568      5.246
REMARK  6 active torsions:
REMARK  status: ('A' for Active; 'I' for Inactive)
REMARK    1  A    between atoms: C_2  and  C_4 
REMARK    2  A    between atoms: C_5  and  C_3 
REMARK    3  A    between atoms: C_16  and  C_15 
REMARK    4  A    between atoms: C_17  and  C_16 
REMARK    5  A    between atoms: C_19  and  C_17 
REMARK    6  A    between atoms: C_18  and  C_19 
ROOT
ATOM      1  N   UNL d   1     -49.559  26.730  34.218  0.00  0.00    -0.244 NA
ATOM      2  C   UNL d   1     -50.247  26.703  33.734  0.00  0.00     0.081 A 
ATOM      3  C   UNL d   1     -50.484  27.396  33.313  0.00  0.00     0.019 A 
ATOM      4  C   UNL d   1     -49.094  27.450  34.290  0.00  0.00     0.099 A 
ATOM      5  C   UNL d   1     -50.048  28.082  33.376  0.00  0.00     0.003 A 
ATOM      6  C   UNL d   1     -49.361  28.109  33.860  0.00  0.00     0.019 A 
ENDROOT
BRANCH   2   7
ATOM      7  C   UNL d   1     -50.655  26.030  33.686  0.00  0.00     0.018 A 
ATOM      8  C   UNL d   1     -50.257  25.320  33.643  0.00  0.00     0.002 A 
ATOM      9  C   UNL d   1     -50.709  24.606  33.591  0.00  0.00     0.006 A 
ATOM     10  C   UNL d   1     -51.526  24.633  33.585  0.00  0.00     0.064 A 
ATOM     11  C   UNL d   1     -51.924  25.384  33.631  0.00  0.00     0.006 A 
ATOM     12  C   UNL d   1     -51.473  26.061  33.680  0.00  0.00     0.002 A 
BRANCH  10  13
ATOM     13  C   UNL d   1     -51.979  23.919  33.534  0.00  0.00     0.211 C 
ATOM     14  O   UNL d   1     -52.801  23.882  33.692  0.00  0.00    -0.644 OA
ATOM     15  O   UNL d   1     -51.598  23.191  33.312  0.00  0.00    -0.644 OA
ENDBRANCH  10  13
ENDBRANCH   2   7
BRANCH   6  16
ATOM     16  C   UNL d   1     -48.892  28.830  33.934  0.00  0.00     0.002 C 
BRANCH  16  17
ATOM     17  C   UNL d   1     -48.468  28.935  34.621  0.00  0.00     0.000 C 
BRANCH  17  18
ATOM     18  C   UNL d   1     -48.046  29.661  34.742  0.00  0.00     0.000 C 
BRANCH  18  19
ATOM     19  C   UNL d   1     -47.863  29.931  35.467  0.00  0.00     0.000 C 
ATOM     20  C   UNL d   1     -47.087  30.066  35.691  0.00  0.00     0.000 C 
ENDBRANCH  18  19
ENDBRANCH  17  18
ENDBRANCH  16  17
ENDBRANCH   6  16
TORSDOF 6
ENDMDL
