MODEL 1
REMARK VINA RESULT:      -3.6      0.000      0.000
REMARK  4 active torsions:
REMARK  status: ('A' for Active; 'I' for Inactive)
REMARK    1  A    between atoms: N_6  and  C_2 
REMARK    2  A    between atoms: N_8  and  C_3 
REMARK    3  A    between atoms: C_10  and  N_8 
REMARK    4  A    between atoms: C_14  and  C_10 
ROOT
ATOM      1  N   UNL d   1      58.832  -1.659  29.584  0.00  0.00    -0.041 NA
ATOM      2  C   UNL d   1      59.332  -2.069  29.057  0.00  0.00     0.737 A 
ATOM      3  C   UNL d   1      58.994  -0.869  29.779  0.00  0.00     0.182 A 
ATOM      4  N   UNL d   1      59.995  -1.683  28.728  0.00  0.00    -0.060 NA
ATOM      5  C   UNL d   1      59.654  -0.487  29.451  0.00  0.00     0.055 A 
ATOM      6  C   UNL d   1      60.151  -0.889  28.929  0.00  0.00     0.103 A 
ATOM      7  C   UNL d   1      59.817   0.303  29.646  0.00  0.00     0.005 A 
ATOM      8  C   UNL d   1      60.817  -0.505  28.598  0.00  0.00     0.020 A 
ATOM      9  C   UNL d   1      60.465   0.682  29.325  0.00  0.00     0.000 A 
ATOM     10  C   UNL d   1      60.969   0.275  28.797  0.00  0.00     0.002 A 
ENDROOT
BRANCH   3  11
ATOM     11  N   UNL d   1      58.479  -0.442  30.324  0.00  0.00    -0.225 NA
BRANCH  11  12
ATOM     12  C   UNL d   1      57.740  -0.596  30.407  0.00  0.00     0.101 C 
BRANCH  12  13
ATOM     13  C   UNL d   1      57.365  -0.336  31.019  0.00  0.00     0.019 A 
ATOM     14  C   UNL d   1      57.016  -0.821  31.474  0.00  0.00     0.002 A 
ATOM     15  C   UNL d   1      56.645  -0.560  32.080  0.00  0.00     0.000 A 
ATOM     16  C   UNL d   1      56.626   0.184  32.226  0.00  0.00     0.000 A 
ATOM     17  C   UNL d   1      56.986   0.667  31.754  0.00  0.00     0.000 A 
ATOM     18  C   UNL d   1      57.353   0.401  31.153  0.00  0.00     0.002 A 
ENDBRANCH  12  13
ENDBRANCH  11  12
ENDBRANCH   3  11
BRANCH   2  19
ATOM     19  N   UNL d   1      59.164  -2.885  28.855  0.00  0.00    -0.133 N 
ATOM     20  C   UNL d   1      59.800  -3.461  28.854  0.00  0.00     0.125 A 
ATOM     21  C   UNL d   1      59.639  -4.271  28.655  0.00  0.00     0.142 A 
ATOM     22  O   UNL d   1      58.849  -4.510  28.455  0.00  0.00    -0.300 OA
ATOM     23  C   UNL d   1      58.213  -3.934  28.456  0.00  0.00     0.142 A 
ATOM     24  C   UNL d   1      58.371  -3.121  28.656  0.00  0.00     0.125 A 
ENDBRANCH   2  19
TORSDOF 4
ENDMDL
MODEL 2
REMARK VINA RESULT:      -2.3      1.366      3.902
REMARK  4 active torsions:
REMARK  status: ('A' for Active; 'I' for Inactive)
REMARK    1  A    between atoms: N_6  and  C_2 
REMARK    2  A    between atoms: N_8  and  C_3 
REMARK    3  A    between atoms: C_10  and  N_8 
REMARK    4  A    between atoms: C_14  and  C_10 
ROOT
ATOM      1  N   UNL d   1      58.544  -1.173  29.943  0.00  0.00    -0.041 NA
ATOM      2  C   UNL d   1      58.446  -0.423  30.296  0.00  0.00     0.737 A 
ATOM      3  C   UNL d   1      59.165  -1.301  29.408  0.00  0.00     0.182 A 
ATOM      4  N   UNL d   1      58.973   0.196  30.108  0.00  0.00    -0.060 NA
ATOM      5  C   UNL d   1      59.688  -0.684  29.223  0.00  0.00     0.055 A 
ATOM      6  C   UNL d   1      59.595   0.059  29.569  0.00  0.00     0.103 A 
ATOM      7  C   UNL d   1      60.309  -0.813  28.688  0.00  0.00     0.005 A 
ATOM      8  C   UNL d   1      60.122   0.682  29.383  0.00  0.00     0.020 A 
ATOM      9  C   UNL d   1      60.826  -0.207  28.504  0.00  0.00     0.000 A 
ATOM     10  C   UNL d   1      60.732   0.545  28.854  0.00  0.00     0.002 A 
ENDROOT
BRANCH   3  11
ATOM     11  N   UNL d   1      59.269  -2.075  29.042  0.00  0.00    -0.225 NA
BRANCH  11  12
ATOM     12  C   UNL d   1      58.705  -2.580  28.964  0.00  0.00     0.101 C 
BRANCH  12  13
ATOM     13  C   UNL d   1      58.868  -3.307  28.801  0.00  0.00     0.019 A 
ATOM     14  C   UNL d   1      59.581  -3.543  28.827  0.00  0.00     0.002 A 
ATOM     15  C   UNL d   1      59.740  -4.264  28.665  0.00  0.00     0.000 A 
ATOM     16  C   UNL d   1      59.185  -4.746  28.478  0.00  0.00     0.000 A 
ATOM     17  C   UNL d   1      58.462  -4.493  28.455  0.00  0.00     0.000 A 
ATOM     18  C   UNL d   1      58.312  -3.773  28.618  0.00  0.00     0.002 A 
ENDBRANCH  12  13
ENDBRANCH  11  12
ENDBRANCH   3  11
BRANCH   2  19
ATOM     19  N   UNL d   1      57.805  -0.290  30.849  0.00  0.00    -0.133 N 
ATOM     20  C   UNL d   1      57.477   0.498  30.936  0.00  0.00     0.125 A 
ATOM     21  C   UNL d   1      56.842   0.636  31.483  0.00  0.00     0.142 A 
ATOM     22  O   UNL d   1      56.531  -0.008  31.943  0.00  0.00    -0.300 OA
ATOM     23  C   UNL d   1      56.859  -0.796  31.855  0.00  0.00     0.142 A 
ATOM     24  C   UNL d   1      57.496  -0.937  31.307  0.00  0.00     0.125 A 
ENDBRANCH   2  19
TORSDOF 4
ENDMDL
