MODEL 1
REMARK VINA RESULT:     104.4      0.000      0.000
REMARK  2 active torsions:
REMARK  status: ('A' for Active; 'I' for Inactive)
REMARK    1  A    between atoms: C_6  and  C_1 
REMARK       I    between atoms: N_10  and  C_6 
REMARK    2  A    between atoms: C_12  and  N_10 
ROOT
ATOM      1  C   UNL d   1     -55.210-101.611 -40.809  0.00  0.00     0.108 A 
ATOM      2  C   UNL d   1     -55.073-100.814 -41.858  0.00  0.00     0.044 A 
ATOM      3  C   UNL d   1     -55.204-101.588 -42.131  0.00  0.00     0.112 A 
ATOM      4  S   UNL d   1     -55.288-102.074 -41.471  0.00  0.00    -0.061 SA
ATOM      5  C   UNL d   1     -55.077-100.831 -41.032  0.00  0.00     0.116 A 
ATOM      6  N   UNL d   1     -55.227-101.731 -42.950  0.00  0.00    -0.239 NA
ATOM      7  C   UNL d   1     -54.992-100.350 -43.212  0.00  0.00     0.056 A 
ATOM      8  C   UNL d   1     -55.123-101.124 -43.485  0.00  0.00     0.081 A 
ATOM      9  C   UNL d   1     -54.967-100.195 -42.409  0.00  0.00     0.008 A 
ATOM     10  C   UNL d   1     -54.887 -99.738 -43.744  0.00  0.00     0.193 A 
ATOM     11  C   UNL d   1     -55.042-100.660 -44.839  0.00  0.00     0.042 A 
ATOM     12  C   UNL d   1     -55.147-101.273 -44.286  0.00  0.00    -0.003 A 
ATOM     13  C   UNL d   1     -54.911 -99.886 -44.566  0.00  0.00     0.019 A 
ATOM     14  O   UNL d   1     -54.755 -98.957 -43.469  0.00  0.00    -0.287 OA
ATOM     15  N   UNL d   1     -54.966-100.173 -40.517  0.00  0.00    -0.147 N 
ATOM     16  C   UNL d   1     -55.131-101.189 -45.448  0.00  0.00     0.009 C 
ATOM     17  C   UNL d   1     -55.018-100.526 -45.652  0.00  0.00     0.009 C 
ENDROOT
BRANCH   1  18
ATOM     18  C   UNL d   1     -55.260-101.896 -40.036  0.00  0.00     0.287 C 
ATOM     19  N   UNL d   1     -55.520-101.412 -39.415  0.00  0.00    -0.208 NA
ATOM     20  O   UNL d   1     -55.048-102.673 -39.888  0.00  0.00    -0.265 OA
BRANCH  19  21
ATOM     21  C   UNL d   1     -55.569-101.696 -38.649  0.00  0.00     0.085 A 
ATOM     22  C   UNL d   1     -56.014-102.366 -38.467  0.00  0.00     0.018 A 
ATOM     23  C   UNL d   1     -56.063-102.647 -37.708  0.00  0.00     0.002 A 
ATOM     24  C   UNL d   1     -56.428-102.773 -39.068  0.00  0.00     0.002 C 
ATOM     25  C   UNL d   1     -55.644-102.235 -37.106  0.00  0.00     0.000 A 
ATOM     26  C   UNL d   1     -55.204-101.570 -37.290  0.00  0.00     0.002 A 
ATOM     27  C   UNL d   1     -55.664-102.483 -36.318  0.00  0.00     0.000 C 
ATOM     28  C   UNL d   1     -55.166-101.303 -38.054  0.00  0.00     0.018 A 
ATOM     29  C   UNL d   1     -54.713-100.619 -38.245  0.00  0.00     0.002 C 
ENDBRANCH  19  21
ENDBRANCH   1  18
TORSDOF 2
ENDMDL
