MODEL 1
REMARK VINA RESULT:      22.1      0.000      0.000
REMARK  4 active torsions:
REMARK  status: ('A' for Active; 'I' for Inactive)
REMARK    1  A    between atoms: N_2  and  C_1 
REMARK    2  A    between atoms: C_4  and  C_8 
REMARK       I    between atoms: N_5  and  C_4 
REMARK    3  A    between atoms: C_9  and  C_7 
REMARK    4  A    between atoms: C_8  and  C_9 
ROOT
ATOM      1  C   UNL d   1      58.991  49.708  50.332  0.00  0.00     0.062 C 
ENDROOT
BRANCH   1   2
ATOM      2  C   UNL d   1      58.435  49.620  49.755  0.00  0.00     0.265 C 
ATOM      3  N   UNL d   1      57.638  49.617  49.946  0.00  0.00    -0.272 N 
ATOM      4  C   UNL d   1      57.401  49.704  50.728  0.00  0.00     0.083 A 
ATOM      5  C   UNL d   1      57.062  49.526  49.351  0.00  0.00     0.083 A 
ATOM      6  C   UNL d   1      56.604  49.702  50.929  0.00  0.00     0.019 A 
ATOM      7  C   UNL d   1      56.033  49.613  50.343  0.00  0.00     0.003 A 
ATOM      8  C   UNL d   1      56.262  49.525  49.553  0.00  0.00     0.019 A 
ATOM      9  O   UNL d   1      58.673  49.533  48.975  0.00  0.00    -0.267 OA
ENDBRANCH   1   2
BRANCH   1  10
ATOM     10  C   UNL d   1      59.830  49.703  50.103  0.00  0.00     0.011 C 
BRANCH  10  11
ATOM     11  C   UNL d   1      60.437  49.639  50.687  0.00  0.00     0.031 A 
ATOM     12  S   UNL d   1      60.316  49.659  51.475  0.00  0.00    -0.064 SA
ATOM     13  C   UNL d   1      61.057  49.579  51.838  0.00  0.00     0.156 A 
ATOM     14  C   UNL d   1      61.614  49.510  51.233  0.00  0.00     0.031 A 
ATOM     15  C   UNL d   1      61.234  49.548  50.548  0.00  0.00     0.009 A 
BRANCH  13  16
ATOM     16  N   UNL d   1      61.225  49.567  52.666  0.00  0.00    -0.107 N 
ATOM     17  O   UNL d   1      62.011  49.707  52.937  0.00  0.00    -0.531 OA
ATOM     18  O   UNL d   1      60.614  49.416  53.226  0.00  0.00    -0.531 OA
ENDBRANCH  13  16
ENDBRANCH  10  11
ENDBRANCH   1  10
TORSDOF 4
ENDMDL
