MODEL 1
REMARK VINA RESULT:      14.8      0.000      0.000
REMARK  5 active torsions:
REMARK  status: ('A' for Active; 'I' for Inactive)
REMARK    1  A    between atoms: N_5  and  S_1 
REMARK    2  A    between atoms: C_9  and  S_1 
REMARK    3  A    between atoms: C_6  and  C_2 
REMARK    4  A    between atoms: C_4  and  N_5 
REMARK    5  A    between atoms: O_20  and  C_17 
ROOT
ATOM      1  S   UNL d   1      13.602  11.852  -2.244  0.00  0.00     0.287 S 
ATOM      2  O   UNL d   1      12.771  11.780  -2.207  0.00  0.00    -0.198 OA
ATOM      3  O   UNL d   1      14.445  11.927  -2.286  0.00  0.00    -0.198 OA
ENDROOT
BRANCH   1   4
ATOM      4  N   UNL d   1      13.653  11.793  -1.405  0.00  0.00    -0.132 NA
BRANCH   4   5
ATOM      5  C   UNL d   1      14.186  12.266  -0.976  0.00  0.00     0.206 A 
ATOM      6  N   UNL d   1      14.431  13.081  -1.056  0.00  0.00    -0.216 NA
ATOM      7  C   UNL d   1      14.983  13.219  -0.449  0.00  0.00     0.161 A 
ATOM      8  C   UNL d   1      15.085  12.550  -0.015  0.00  0.00     0.061 A 
ATOM      9  S   UNL d   1      14.612  11.957  -0.315  0.00  0.00    -0.046 SA
BRANCH   7  10
ATOM     10  C   UNL d   1      15.379  13.925  -0.294  0.00  0.00     0.436 C 
ATOM     11  F   UNL d   1      15.826  14.605  -0.137  0.00  0.00    -0.165 F 
ATOM     12  F   UNL d   1      14.929  14.688  -0.239  0.00  0.00    -0.165 F 
ATOM     13  F   UNL d   1      16.157  13.902  -0.198  0.00  0.00    -0.165 F 
ENDBRANCH   7  10
ENDBRANCH   4   5
ENDBRANCH   1   4
BRANCH   1  14
ATOM     14  C   UNL d   1      13.563  11.913  -3.088  0.00  0.00     0.105 A 
ATOM     15  C   UNL d   1      14.263  11.941  -3.504  0.00  0.00     0.015 A 
ATOM     16  C   UNL d   1      14.246  11.999  -4.317  0.00  0.00     0.025 A 
ATOM     17  C   UNL d   1      13.527  12.030  -4.726  0.00  0.00     0.094 A 
ATOM     18  C   UNL d   1      12.819  12.003  -4.318  0.00  0.00     0.025 A 
ATOM     19  C   UNL d   1      12.824  11.945  -3.510  0.00  0.00     0.015 A 
BRANCH  17  20
ATOM     20  O   UNL d   1      13.483  12.090  -5.567  0.00  0.00    -0.328 OA
ATOM     21  C   UNL d   1      12.813  11.784  -5.973  0.00  0.00     0.181 C 
ENDBRANCH  17  20
ENDBRANCH   1  14
TORSDOF 5
ENDMDL
