MODEL 1
REMARK VINA RESULT:      57.7      0.000      0.000
REMARK  5 active torsions:
REMARK  status: ('A' for Active; 'I' for Inactive)
REMARK    1  A    between atoms: C_12  and  C_4 
REMARK    2  A    between atoms: N_10  and  C_6 
REMARK    3  A    between atoms: C_11  and  C_9 
REMARK    4  A    between atoms: C_14  and  N_10 
REMARK    5  A    between atoms: C_15  and  C_14 
ROOT
ATOM      1  C   UNL d   1      13.828  14.203  -4.085  0.00  0.00     0.167 A 
ATOM      2  N   UNL d   1      13.822  13.807  -3.357  0.00  0.00    -0.195 N 
ATOM      3  N   UNL d   1      14.194  15.003  -2.718  0.00  0.00    -0.163 NA
ATOM      4  C   UNL d   1      14.014  14.986  -4.124  0.00  0.00     0.055 A 
ATOM      5  N   UNL d   1      13.643  13.796  -4.774  0.00  0.00    -0.231 NA
ATOM      6  C   UNL d   1      13.631  13.015  -3.338  0.00  0.00     0.167 A 
ATOM      7  C   UNL d   1      14.200  15.392  -3.434  0.00  0.00     0.104 A 
ATOM      8  C   UNL d   1      13.444  12.605  -4.030  0.00  0.00     0.054 A 
ATOM      9  C   UNL d   1      13.450  12.995  -4.745  0.00  0.00     0.063 A 
ATOM     10  C   UNL d   1      14.390  16.182  -3.459  0.00  0.00     0.023 C 
ENDROOT
BRANCH   6  11
ATOM     11  N   UNL d   1      13.624  12.607  -2.588  0.00  0.00    -0.224 NA
BRANCH  11  12
ATOM     12  C   UNL d   1      13.823  11.868  -2.237  0.00  0.00     0.120 C 
BRANCH  12  13
ATOM     13  C   UNL d   1      14.226  11.839  -1.500  0.00  0.00     0.101 A 
ATOM     14  N   UNL d   1      15.068  11.810  -1.488  0.00  0.00    -0.242 NA
ATOM     15  C   UNL d   1      15.476  11.780  -0.735  0.00  0.00     0.099 A 
ATOM     16  C   UNL d   1      15.038  11.780  -0.016  0.00  0.00     0.021 A 
ATOM     17  C   UNL d   1      14.179  11.810  -0.036  0.00  0.00     0.003 A 
ATOM     18  C   UNL d   1      13.784  11.839  -0.777  0.00  0.00     0.021 A 
ENDBRANCH  12  13
ENDBRANCH  11  12
ENDBRANCH   6  11
BRANCH   9  19
ATOM     19  C   UNL d   1      13.258  12.575  -5.462  0.00  0.00     0.036 C 
ATOM     20  C   UNL d   1      13.067  12.156  -6.166  0.00  0.00     0.006 C 
ATOM     21  C   UNL d   1      13.360  12.957  -6.217  0.00  0.00     0.006 C 
ATOM     22  C   UNL d   1      12.968  11.779  -5.410  0.00  0.00     0.006 C 
ENDBRANCH   9  19
BRANCH   4  23
ATOM     23  C   UNL d   1      14.020  15.378  -4.843  0.00  0.00     0.004 A 
ATOM     24  C   UNL d   1      13.319  15.664  -5.150  0.00  0.00     0.000 A 
ATOM     25  C   UNL d   1      13.325  16.059  -5.877  0.00  0.00     0.000 A 
ATOM     26  C   UNL d   1      14.032  16.157  -6.275  0.00  0.00     0.000 A 
ATOM     27  C   UNL d   1      14.729  15.865  -5.956  0.00  0.00     0.000 A 
ATOM     28  C   UNL d   1      14.723  15.476  -5.240  0.00  0.00     0.000 A 
ENDBRANCH   4  23
TORSDOF 5
ENDMDL
