MODEL 1
REMARK VINA RESULT:      26.3      0.000      0.000
REMARK  4 active torsions:
REMARK  status: ('A' for Active; 'I' for Inactive)
REMARK    1  A    between atoms: N_3  and  S_1 
REMARK    2  A    between atoms: C_4  and  S_1 
REMARK    3  A    between atoms: C_13  and  N_3 
REMARK    4  A    between atoms: C_16  and  N_3 
ROOT
ATOM      1  S   UNL d   1      14.619  12.907  -1.169  0.00  0.00     0.271 S 
ATOM      2  O   UNL d   1      15.360  13.252  -1.274  0.00  0.00    -0.200 OA
ATOM      3  O   UNL d   1      14.318  12.801  -0.411  0.00  0.00    -0.200 OA
ENDROOT
BRANCH   1   4
ATOM      4  N   UNL d   1      15.052  13.142  -0.511  0.00  0.00    -0.231 N 
BRANCH   4   5
ATOM      5  C   UNL d   1      15.150  13.956  -0.344  0.00  0.00     0.075 A 
ATOM      6  C   UNL d   1      14.490  14.434  -0.254  0.00  0.00     0.018 A 
ATOM      7  C   UNL d   1      14.586  15.236  -0.089  0.00  0.00     0.002 A 
ATOM      8  C   UNL d   1      15.341  15.559  -0.014  0.00  0.00     0.000 A 
ATOM      9  C   UNL d   1      16.000  15.082  -0.104  0.00  0.00     0.002 A 
ATOM     10  C   UNL d   1      15.909  14.275  -0.269  0.00  0.00     0.018 A 
ENDBRANCH   4   5
BRANCH   4  11
ATOM     11  C   UNL d   1      15.390  12.580  -0.018  0.00  0.00     0.092 C 
ATOM     12  C   UNL d   1      15.355  11.780  -0.211  0.00  0.00     0.021 C 
ENDBRANCH   4  11
ENDBRANCH   1   4
BRANCH   1  13
ATOM     13  C   UNL d   1      14.179  12.669  -1.821  0.00  0.00     0.106 A 
ATOM     14  C   UNL d   1      14.254  13.071  -2.534  0.00  0.00     0.034 A 
ATOM     15  C   UNL d   1      13.812  12.834  -3.195  0.00  0.00     0.105 A 
ATOM     16  N   UNL d   1      13.769  13.122  -3.969  0.00  0.00    -0.189 NA
ATOM     17  C   UNL d   1      13.292  12.187  -3.133  0.00  0.00     0.104 A 
ATOM     18  C   UNL d   1      13.222  12.654  -4.390  0.00  0.00     0.369 A 
ATOM     19  O   UNL d   1      13.010  12.749  -5.181  0.00  0.00    -0.242 OA
ATOM     20  N   UNL d   1      12.931  12.080  -3.870  0.00  0.00    -0.189 NA
ATOM     21  C   UNL d   1      13.219  11.784  -2.412  0.00  0.00     0.021 A 
ATOM     22  C   UNL d   1      13.664  12.029  -1.761  0.00  0.00     0.015 A 
ENDBRANCH   1  13
TORSDOF 4
ENDMDL
