MODEL 1
REMARK VINA RESULT:      -5.2      0.000      0.000
REMARK  1 active torsions:
REMARK  status: ('A' for Active; 'I' for Inactive)
REMARK    1  A    between atoms: C_4  and  C_1 
REMARK       I    between atoms: N_5  and  C_1 
ROOT
ATOM      1  N   UNL d   1      55.715   0.634  33.529  0.00  0.00    -0.242 NA
ATOM      2  C   UNL d   1      56.184  -0.771  32.790  0.00  0.00     0.062 A 
ATOM      3  C   UNL d   1      55.200  -0.012  33.490  0.00  0.00     0.099 A 
ATOM      4  C   UNL d   1      56.469   0.569  33.193  0.00  0.00     0.099 A 
ATOM      5  C   UNL d   1      56.703  -0.131  32.824  0.00  0.00     0.025 A 
ATOM      6  C   UNL d   1      55.434  -0.712  33.122  0.00  0.00     0.025 A 
ENDROOT
BRANCH   2   7
ATOM      7  C   UNL d   1      56.246  -1.184  32.604  0.00  0.00     0.298 C 
ATOM      8  O   UNL d   1      56.070  -1.848  32.846  0.00  0.00    -0.264 OA
ATOM      9  N   UNL d   1      56.589  -1.244  31.923  0.00  0.00    -0.085 NA
ATOM     10  N   UNL d   1      56.677  -0.722  31.831  0.00  0.00    -0.019 N 
ENDBRANCH   2   7
TORSDOF 1
ENDMDL
MODEL 2
REMARK VINA RESULT:      -4.9      0.973      1.899
REMARK  1 active torsions:
REMARK  status: ('A' for Active; 'I' for Inactive)
REMARK    1  A    between atoms: C_4  and  C_1 
REMARK       I    between atoms: N_5  and  C_1 
ROOT
ATOM      1  N   UNL d   1      56.439  -1.208  32.261  0.00  0.00    -0.242 NA
ATOM      2  C   UNL d   1      55.678  -0.048  33.164  0.00  0.00     0.062 A 
ATOM      3  C   UNL d   1      55.876  -1.420  32.827  0.00  0.00     0.099 A 
ATOM      4  C   UNL d   1      56.618  -0.407  32.151  0.00  0.00     0.099 A 
ATOM      5  C   UNL d   1      56.239   0.172  32.601  0.00  0.00     0.025 A 
ATOM      6  C   UNL d   1      55.497  -0.842  33.277  0.00  0.00     0.025 A 
ENDROOT
BRANCH   2   7
ATOM      7  C   UNL d   1      55.433   0.215  33.445  0.00  0.00     0.298 C 
ATOM      8  O   UNL d   1      54.712   0.285  33.526  0.00  0.00    -0.264 OA
ATOM      9  N   UNL d   1      55.790   0.681  33.936  0.00  0.00    -0.085 NA
ATOM     10  N   UNL d   1      56.297   0.562  33.804  0.00  0.00    -0.019 N 
ENDBRANCH   2   7
TORSDOF 1
ENDMDL
MODEL 3
REMARK VINA RESULT:      -3.6      8.071      8.576
REMARK  1 active torsions:
REMARK  status: ('A' for Active; 'I' for Inactive)
REMARK    1  A    between atoms: C_4  and  C_1 
REMARK       I    between atoms: N_5  and  C_1 
ROOT
ATOM      1  N   UNL d   1      60.456  -6.345  36.114  0.00  0.00    -0.242 NA
ATOM      2  C   UNL d   1      59.693  -7.805  35.950  0.00  0.00     0.062 A 
ATOM      3  C   UNL d   1      59.633  -6.384  36.057  0.00  0.00     0.099 A 
ATOM      4  C   UNL d   1      60.896  -7.047  36.088  0.00  0.00     0.099 A 
ATOM      5  C   UNL d   1      60.515  -7.775  36.006  0.00  0.00     0.025 A 
ATOM      6  C   UNL d   1      59.252  -7.111  35.976  0.00  0.00     0.025 A 
ENDROOT
BRANCH   2   7
ATOM      7  C   UNL d   1      59.420  -8.168  35.904  0.00  0.00     0.298 C 
ATOM      8  O   UNL d   1      58.886  -8.421  36.330  0.00  0.00    -0.264 OA
ATOM      9  N   UNL d   1      59.494  -8.622  35.293  0.00  0.00    -0.085 NA
ATOM     10  N   UNL d   1      59.897  -8.363  35.049  0.00  0.00    -0.019 N 
ENDBRANCH   2   7
TORSDOF 1
ENDMDL
MODEL 4
REMARK VINA RESULT:      -2.9      7.830      8.396
REMARK  1 active torsions:
REMARK  status: ('A' for Active; 'I' for Inactive)
REMARK    1  A    between atoms: C_4  and  C_1 
REMARK       I    between atoms: N_5  and  C_1 
ROOT
ATOM      1  N   UNL d   1      59.875  -8.425  36.330  0.00  0.00    -0.242 NA
ATOM      2  C   UNL d   1      59.944  -6.804  36.002  0.00  0.00     0.062 A 
ATOM      3  C   UNL d   1      59.186  -7.969  36.324  0.00  0.00     0.099 A 
ATOM      4  C   UNL d   1      60.602  -8.060  36.170  0.00  0.00     0.099 A 
ATOM      5  C   UNL d   1      60.636  -7.252  36.007  0.00  0.00     0.025 A 
ATOM      6  C   UNL d   1      59.220  -7.161  36.161  0.00  0.00     0.025 A 
ENDROOT
BRANCH   2   7
ATOM      7  C   UNL d   1      59.889  -6.358  35.921  0.00  0.00     0.298 C 
ATOM      8  O   UNL d   1      59.339  -5.992  35.615  0.00  0.00    -0.264 OA
ATOM      9  N   UNL d   1      60.440  -5.866  36.122  0.00  0.00    -0.085 NA
ATOM     10  N   UNL d   1      60.789  -6.218  36.330  0.00  0.00    -0.019 N 
ENDBRANCH   2   7
TORSDOF 1
ENDMDL
