MODEL 1
REMARK VINA RESULT:      -3.4      0.000      0.000
REMARK  3 active torsions:
REMARK  status: ('A' for Active; 'I' for Inactive)
REMARK    1  A    between atoms: N_2  and  C_1 
REMARK    2  A    between atoms: C_3  and  C_1 
REMARK    3  A    between atoms: N_6  and  C_5 
ROOT
ATOM      1  C   UNL d   1     -41.472-122.949 -53.338  0.00  0.00     0.027 A 
ATOM      2  C   UNL d   1     -41.438-122.594 -51.722  0.00  0.00     0.064 A 
ATOM      3  C   UNL d   1     -41.781-123.486 -52.784  0.00  0.00     0.004 A 
ATOM      4  C   UNL d   1     -41.143-122.229 -53.077  0.00  0.00     0.004 A 
ATOM      5  C   UNL d   1     -41.763-123.307 -51.980  0.00  0.00     0.018 A 
ATOM      6  C   UNL d   1     -41.127-122.052 -52.266  0.00  0.00     0.018 A 
ENDROOT
BRANCH   1   7
ATOM      7  C   UNL d   1     -41.489-123.127 -54.145  0.00  0.00     0.120 C 
ATOM      8  S   UNL d   1     -41.123-123.817 -54.418  0.00  0.00    -0.059 SA
BRANCH   7   9
ATOM      9  N   UNL d   1     -41.869-122.618 -54.670  0.00  0.00    -0.292 N 
ATOM     10  C   UNL d   1     -41.423-122.094 -55.121  0.00  0.00     0.108 A 
ATOM     11  C   UNL d   1     -41.803-121.585 -55.647  0.00  0.00     0.142 A 
ATOM     12  O   UNL d   1     -42.622-121.604 -55.719  0.00  0.00    -0.300 OA
ATOM     13  C   UNL d   1     -43.066-122.133 -55.264  0.00  0.00     0.142 A 
ATOM     14  C   UNL d   1     -42.686-122.642 -54.738  0.00  0.00     0.108 A 
ENDBRANCH   7   9
ENDBRANCH   1   7
BRANCH   2  15
ATOM     15  N   UNL d   1     -41.420-122.416 -50.919  0.00  0.00    -0.301 N 
ATOM     16  C   UNL d   1     -41.174-122.986 -50.375  0.00  0.00     0.100 C 
ATOM     17  C   UNL d   1     -41.647-121.669 -50.659  0.00  0.00     0.100 C 
ENDBRANCH   2  15
TORSDOF 3
ENDMDL
MODEL 2
REMARK VINA RESULT:      -2.3      1.496      3.650
REMARK  3 active torsions:
REMARK  status: ('A' for Active; 'I' for Inactive)
REMARK    1  A    between atoms: N_2  and  C_1 
REMARK    2  A    between atoms: C_3  and  C_1 
REMARK    3  A    between atoms: N_6  and  C_5 
ROOT
ATOM      1  C   UNL d   1     -41.615-122.761 -53.439  0.00  0.00     0.027 A 
ATOM      2  C   UNL d   1     -42.043-122.201 -54.936  0.00  0.00     0.064 A 
ATOM      3  C   UNL d   1     -42.283-122.274 -53.529  0.00  0.00     0.004 A 
ATOM      4  C   UNL d   1     -41.160-122.967 -54.106  0.00  0.00     0.004 A 
ATOM      5  C   UNL d   1     -42.494-121.996 -54.276  0.00  0.00     0.018 A 
ATOM      6  C   UNL d   1     -41.377-122.685 -54.857  0.00  0.00     0.018 A 
ENDROOT
BRANCH   1   7
ATOM      7  C   UNL d   1     -41.402-123.040 -52.691  0.00  0.00     0.120 C 
ATOM      8  S   UNL d   1     -41.123-123.815 -52.610  0.00  0.00    -0.059 SA
BRANCH   7   9
ATOM      9  N   UNL d   1     -41.469-122.548 -52.033  0.00  0.00    -0.292 N 
ATOM     10  C   UNL d   1     -41.883-122.810 -51.372  0.00  0.00     0.108 A 
ATOM     11  C   UNL d   1     -41.950-122.317 -50.714  0.00  0.00     0.142 A 
ATOM     12  O   UNL d   1     -41.604-121.571 -50.721  0.00  0.00    -0.300 OA
ATOM     13  C   UNL d   1     -41.189-121.313 -51.388  0.00  0.00     0.142 A 
ATOM     14  C   UNL d   1     -41.123-121.805 -52.047  0.00  0.00     0.108 A 
ENDBRANCH   7   9
ENDBRANCH   1   7
BRANCH   2  15
ATOM     15  N   UNL d   1     -42.255-121.923 -55.681  0.00  0.00    -0.301 N 
ATOM     16  C   UNL d   1     -43.013-122.065 -55.976  0.00  0.00     0.100 C 
ATOM     17  C   UNL d   1     -41.709-121.504 -56.133  0.00  0.00     0.100 C 
ENDBRANCH   2  15
TORSDOF 3
ENDMDL
MODEL 3
REMARK VINA RESULT:      -2.1      2.237      3.527
REMARK  3 active torsions:
REMARK  status: ('A' for Active; 'I' for Inactive)
REMARK    1  A    between atoms: N_2  and  C_1 
REMARK    2  A    between atoms: C_3  and  C_1 
REMARK    3  A    between atoms: N_6  and  C_5 
ROOT
ATOM      1  C   UNL d   1     -41.684-123.188 -50.158  0.00  0.00     0.027 A 
ATOM      2  C   UNL d   1     -42.291-123.300 -48.623  0.00  0.00     0.064 A 
ATOM      3  C   UNL d   1     -41.175-123.322 -49.515  0.00  0.00     0.004 A 
ATOM      4  C   UNL d   1     -42.503-123.109 -50.028  0.00  0.00     0.004 A 
ATOM      5  C   UNL d   1     -41.480-123.378 -48.751  0.00  0.00     0.018 A 
ATOM      6  C   UNL d   1     -42.807-123.166 -49.257  0.00  0.00     0.018 A 
ENDROOT
BRANCH   1   7
ATOM      7  C   UNL d   1     -41.380-123.132 -50.924  0.00  0.00     0.120 C 
ATOM      8  S   UNL d   1     -41.127-123.817 -51.313  0.00  0.00    -0.059 SA
BRANCH   7   9
ATOM      9  N   UNL d   1     -41.331-122.397 -51.295  0.00  0.00    -0.292 N 
ATOM     10  C   UNL d   1     -41.172-121.727 -50.846  0.00  0.00     0.108 A 
ATOM     11  C   UNL d   1     -41.123-120.992 -51.217  0.00  0.00     0.142 A 
ATOM     12  O   UNL d   1     -41.232-120.932 -52.030  0.00  0.00    -0.300 OA
ATOM     13  C   UNL d   1     -41.391-121.610 -52.477  0.00  0.00     0.142 A 
ATOM     14  C   UNL d   1     -41.440-122.345 -52.106  0.00  0.00     0.108 A 
ENDBRANCH   7   9
ENDBRANCH   1   7
BRANCH   2  15
ATOM     15  N   UNL d   1     -42.595-123.356 -47.861  0.00  0.00    -0.301 N 
ATOM     16  C   UNL d   1     -43.323-123.724 -47.731  0.00  0.00     0.100 C 
ATOM     17  C   UNL d   1     -42.173-123.043 -47.226  0.00  0.00     0.100 C 
ENDBRANCH   2  15
TORSDOF 3
ENDMDL
