MODEL 1
REMARK VINA RESULT:      -1.9      0.000      0.000
REMARK  5 active torsions:
REMARK  status: ('A' for Active; 'I' for Inactive)
REMARK    1  A    between atoms: C_2  and  C_1 
REMARK    2  A    between atoms: C_3  and  C_2 
REMARK    3  A    between atoms: C_6  and  C_3 
REMARK    4  A    between atoms: O_15  and  C_12 
REMARK    5  A    between atoms: O_14  and  C_13 
ROOT
ATOM      1  C   UNL d   1      32.659  17.768 -23.577  0.00  0.00     0.143 C 
ATOM      2  C   UNL d   1      32.833  17.060 -23.162  0.00  0.00     0.107 C 
ATOM      3  N   UNL d   1      33.010  16.363 -22.742  0.00  0.00    -0.191 NA
ENDROOT
BRANCH   1   4
ATOM      4  C   UNL d   1      32.782  18.511 -23.212  0.00  0.00     0.175 A 
ATOM      5  N   UNL d   1      32.974  19.226 -23.554  0.00  0.00    -0.225 NA
ATOM      6  C   UNL d   1      33.035  19.778 -22.998  0.00  0.00     0.101 A 
ATOM      7  C   UNL d   1      33.209  20.559 -23.026  0.00  0.00     0.021 A 
ATOM      8  C   UNL d   1      32.883  19.438 -22.262  0.00  0.00     0.101 A 
ATOM      9  C   UNL d   1      33.237  21.028 -22.334  0.00  0.00     0.002 A 
ATOM     10  C   UNL d   1      33.082  20.661 -21.630  0.00  0.00     0.002 A 
ATOM     11  C   UNL d   1      32.908  19.875 -21.608  0.00  0.00     0.021 A 
ATOM     12  N   UNL d   1      32.723  18.632 -22.412  0.00  0.00    -0.225 NA
ENDBRANCH   1   4
BRANCH   1  13
ATOM     13  C   UNL d   1      32.368  17.697 -24.340  0.00  0.00     0.212 C 
ATOM     14  O   UNL d   1      32.602  18.245 -24.917  0.00  0.00    -0.286 OA
BRANCH  13  15
ATOM     15  C   UNL d   1      31.850  17.094 -24.548  0.00  0.00     0.084 A 
ATOM     16  C   UNL d   1      32.152  16.353 -24.723  0.00  0.00     0.099 A 
ATOM     17  C   UNL d   1      31.628  15.728 -24.937  0.00  0.00     0.024 A 
ATOM     18  C   UNL d   1      30.814  15.886 -24.963  0.00  0.00     0.004 A 
ATOM     19  C   UNL d   1      30.516  16.643 -24.783  0.00  0.00     0.024 A 
ATOM     20  C   UNL d   1      31.059  17.245 -24.574  0.00  0.00     0.099 A 
BRANCH  16  21
ATOM     21  O   UNL d   1      32.960  16.172 -24.703  0.00  0.00    -0.328 OA
ATOM     22  C   UNL d   1      33.240  15.486 -25.089  0.00  0.00     0.181 C 
ENDBRANCH  16  21
BRANCH  20  23
ATOM     23  O   UNL d   1      30.766  18.000 -24.394  0.00  0.00    -0.328 OA
ATOM     24  C   UNL d   1      29.957  18.147 -24.361  0.00  0.00     0.181 C 
ENDBRANCH  20  23
ENDBRANCH  13  15
ENDBRANCH   1  13
TORSDOF 5
ENDMDL
MODEL 2
REMARK VINA RESULT:      -1.7      0.390      1.795
REMARK  5 active torsions:
REMARK  status: ('A' for Active; 'I' for Inactive)
REMARK    1  A    between atoms: C_2  and  C_1 
REMARK    2  A    between atoms: C_3  and  C_2 
REMARK    3  A    between atoms: C_6  and  C_3 
REMARK    4  A    between atoms: O_15  and  C_12 
REMARK    5  A    between atoms: O_14  and  C_13 
ROOT
ATOM      1  C   UNL d   1      32.642  18.073 -23.678  0.00  0.00     0.143 C 
ATOM      2  C   UNL d   1      32.792  17.424 -23.168  0.00  0.00     0.107 C 
ATOM      3  N   UNL d   1      32.944  16.787 -22.653  0.00  0.00    -0.191 NA
ENDROOT
BRANCH   1   4
ATOM      4  C   UNL d   1      32.774  18.855 -23.414  0.00  0.00     0.175 A 
ATOM      5  N   UNL d   1      32.791  19.145 -22.652  0.00  0.00    -0.225 NA
ATOM      6  C   UNL d   1      32.935  19.918 -22.665  0.00  0.00     0.101 A 
ATOM      7  C   UNL d   1      33.008  20.465 -22.085  0.00  0.00     0.021 A 
ATOM      8  C   UNL d   1      33.017  20.164 -23.447  0.00  0.00     0.101 A 
ATOM      9  C   UNL d   1      33.165  21.269 -22.257  0.00  0.00     0.002 A 
ATOM     10  C   UNL d   1      33.240  21.473 -23.036  0.00  0.00     0.002 A 
ATOM     11  C   UNL d   1      33.165  20.918 -23.615  0.00  0.00     0.021 A 
ATOM     12  N   UNL d   1      32.913  19.479 -23.914  0.00  0.00    -0.225 NA
ENDBRANCH   1   4
BRANCH   1  13
ATOM     13  C   UNL d   1      32.366  17.904 -24.431  0.00  0.00     0.212 C 
ATOM     14  O   UNL d   1      32.625  18.363 -25.072  0.00  0.00    -0.286 OA
BRANCH  13  15
ATOM     15  C   UNL d   1      31.837  17.290 -24.568  0.00  0.00     0.084 A 
ATOM     16  C   UNL d   1      31.033  17.446 -24.541  0.00  0.00     0.099 A 
ATOM     17  C   UNL d   1      30.482  16.822 -24.679  0.00  0.00     0.024 A 
ATOM     18  C   UNL d   1      30.777  16.063 -24.840  0.00  0.00     0.004 A 
ATOM     19  C   UNL d   1      31.596  15.915 -24.865  0.00  0.00     0.024 A 
ATOM     20  C   UNL d   1      32.120  16.552 -24.724  0.00  0.00     0.099 A 
BRANCH  16  21
ATOM     21  O   UNL d   1      30.716  18.194 -24.382  0.00  0.00    -0.328 OA
ATOM     22  C   UNL d   1      29.901  18.333 -24.504  0.00  0.00     0.181 C 
ENDBRANCH  16  21
BRANCH  20  23
ATOM     23  O   UNL d   1      32.937  16.409 -24.749  0.00  0.00    -0.328 OA
ATOM     24  C   UNL d   1      33.241  15.728 -25.096  0.00  0.00     0.181 C 
ENDBRANCH  20  23
ENDBRANCH  13  15
ENDBRANCH   1  13
TORSDOF 5
ENDMDL
MODEL 3
REMARK VINA RESULT:      -0.7      2.422      3.567
REMARK  5 active torsions:
REMARK  status: ('A' for Active; 'I' for Inactive)
REMARK    1  A    between atoms: C_2  and  C_1 
REMARK    2  A    between atoms: C_3  and  C_2 
REMARK    3  A    between atoms: C_6  and  C_3 
REMARK    4  A    between atoms: O_15  and  C_12 
REMARK    5  A    between atoms: O_14  and  C_13 
ROOT
ATOM      1  C   UNL d   1      29.813  16.838 -24.519  0.00  0.00     0.143 C 
ATOM      2  C   UNL d   1      29.194  17.393 -24.634  0.00  0.00     0.107 C 
ATOM      3  N   UNL d   1      28.588  17.953 -24.750  0.00  0.00    -0.191 NA
ENDROOT
BRANCH   1   4
ATOM      4  C   UNL d   1      30.611  17.087 -24.541  0.00  0.00     0.175 A 
ATOM      5  N   UNL d   1      31.232  16.785 -24.976  0.00  0.00    -0.225 NA
ATOM      6  C   UNL d   1      31.886  17.192 -24.823  0.00  0.00     0.101 A 
ATOM      7  C   UNL d   1      32.637  17.131 -25.092  0.00  0.00     0.021 A 
ATOM      8  C   UNL d   1      31.714  17.783 -24.274  0.00  0.00     0.101 A 
ATOM      9  C   UNL d   1      33.241  17.649 -24.831  0.00  0.00     0.002 A 
ATOM     10  C   UNL d   1      33.035  18.216 -24.292  0.00  0.00     0.002 A 
ATOM     11  C   UNL d   1      32.277  18.272 -24.025  0.00  0.00     0.021 A 
ATOM     12  N   UNL d   1      30.900  17.705 -24.103  0.00  0.00    -0.225 NA
ENDBRANCH   1   4
BRANCH   1  13
ATOM     13  C   UNL d   1      29.599  16.058 -24.386  0.00  0.00     0.212 C 
ATOM     14  O   UNL d   1      29.959  15.457 -24.830  0.00  0.00    -0.286 OA
BRANCH  13  15
ATOM     15  C   UNL d   1      29.036  15.856 -23.823  0.00  0.00     0.084 A 
ATOM     16  C   UNL d   1      29.273  15.745 -23.047  0.00  0.00     0.099 A 
ATOM     17  C   UNL d   1      28.702  15.538 -22.461  0.00  0.00     0.024 A 
ATOM     18  C   UNL d   1      27.911  15.453 -22.695  0.00  0.00     0.004 A 
ATOM     19  C   UNL d   1      27.679  15.568 -23.486  0.00  0.00     0.024 A 
ATOM     20  C   UNL d   1      28.266  15.773 -24.047  0.00  0.00     0.099 A 
BRANCH  16  21
ATOM     21  O   UNL d   1      30.057  15.825 -22.791  0.00  0.00    -0.328 OA
ATOM     22  C   UNL d   1      30.294  15.477 -22.069  0.00  0.00     0.181 C 
ENDBRANCH  16  21
BRANCH  20  23
ATOM     23  O   UNL d   1      28.040  15.888 -24.836  0.00  0.00    -0.328 OA
ATOM     24  C   UNL d   1      27.283  15.695 -25.096  0.00  0.00     0.181 C 
ENDBRANCH  20  23
ENDBRANCH  13  15
ENDBRANCH   1  13
TORSDOF 5
ENDMDL
MODEL 4
REMARK VINA RESULT:       0.1      1.841      2.576
REMARK  5 active torsions:
REMARK  status: ('A' for Active; 'I' for Inactive)
REMARK    1  A    between atoms: C_2  and  C_1 
REMARK    2  A    between atoms: C_3  and  C_2 
REMARK    3  A    between atoms: C_6  and  C_3 
REMARK    4  A    between atoms: O_15  and  C_12 
REMARK    5  A    between atoms: O_14  and  C_13 
ROOT
ATOM      1  C   UNL d   1      30.528  17.594 -24.579  0.00  0.00     0.143 C 
ATOM      2  C   UNL d   1      29.756  17.885 -24.735  0.00  0.00     0.107 C 
ATOM      3  N   UNL d   1      28.995  18.185 -24.890  0.00  0.00    -0.191 NA
ENDROOT
BRANCH   1   4
ATOM      4  C   UNL d   1      31.165  18.126 -24.475  0.00  0.00     0.175 A 
ATOM      5  N   UNL d   1      31.476  18.429 -23.785  0.00  0.00    -0.225 NA
ATOM      6  C   UNL d   1      32.075  18.910 -23.951  0.00  0.00     0.101 A 
ATOM      7  C   UNL d   1      32.564  19.344 -23.491  0.00  0.00     0.021 A 
ATOM      8  C   UNL d   1      32.178  18.939 -24.769  0.00  0.00     0.101 A 
ATOM      9  C   UNL d   1      33.170  19.820 -23.819  0.00  0.00     0.002 A 
ATOM     10  C   UNL d   1      33.241  19.824 -24.625  0.00  0.00     0.002 A 
ATOM     11  C   UNL d   1      32.745  19.385 -25.083  0.00  0.00     0.021 A 
ATOM     12  N   UNL d   1      31.593  18.436 -25.090  0.00  0.00    -0.225 NA
ENDBRANCH   1   4
BRANCH   1  13
ATOM     13  C   UNL d   1      30.622  16.781 -24.534  0.00  0.00     0.212 C 
ATOM     14  O   UNL d   1      31.095  16.395 -25.096  0.00  0.00    -0.286 OA
BRANCH  13  15
ATOM     15  C   UNL d   1      30.260  16.339 -23.944  0.00  0.00     0.084 A 
ATOM     16  C   UNL d   1      30.703  16.101 -23.297  0.00  0.00     0.099 A 
ATOM     17  C   UNL d   1      30.340  15.646 -22.687  0.00  0.00     0.024 A 
ATOM     18  C   UNL d   1      29.537  15.453 -22.763  0.00  0.00     0.004 A 
ATOM     19  C   UNL d   1      29.095  15.699 -23.424  0.00  0.00     0.024 A 
ATOM     20  C   UNL d   1      29.480  16.150 -24.015  0.00  0.00     0.099 A 
BRANCH  16  21
ATOM     21  O   UNL d   1      31.505  16.282 -23.200  0.00  0.00    -0.328 OA
ATOM     22  C   UNL d   1      32.003  15.751 -22.789  0.00  0.00     0.181 C 
ENDBRANCH  16  21
BRANCH  20  23
ATOM     23  O   UNL d   1      29.043  16.397 -24.676  0.00  0.00    -0.328 OA
ATOM     24  C   UNL d   1      28.361  16.000 -24.910  0.00  0.00     0.181 C 
ENDBRANCH  20  23
ENDBRANCH  13  15
ENDBRANCH   1  13
TORSDOF 5
ENDMDL
MODEL 5
REMARK VINA RESULT:       0.6      1.855      2.806
REMARK  5 active torsions:
REMARK  status: ('A' for Active; 'I' for Inactive)
REMARK    1  A    between atoms: C_2  and  C_1 
REMARK    2  A    between atoms: C_3  and  C_2 
REMARK    3  A    between atoms: C_6  and  C_3 
REMARK    4  A    between atoms: O_15  and  C_12 
REMARK    5  A    between atoms: O_14  and  C_13 
ROOT
ATOM      1  C   UNL d   1      30.521  17.549 -24.603  0.00  0.00     0.143 C 
ATOM      2  C   UNL d   1      29.752  17.850 -24.749  0.00  0.00     0.107 C 
ATOM      3  N   UNL d   1      28.993  18.160 -24.894  0.00  0.00    -0.191 NA
ENDROOT
BRANCH   1   4
ATOM      4  C   UNL d   1      31.170  18.071 -24.524  0.00  0.00     0.175 A 
ATOM      5  N   UNL d   1      31.547  18.513 -25.097  0.00  0.00    -0.225 NA
ATOM      6  C   UNL d   1      32.131  18.927 -24.772  0.00  0.00     0.101 A 
ATOM      7  C   UNL d   1      32.665  19.439 -25.075  0.00  0.00     0.021 A 
ATOM      8  C   UNL d   1      32.158  18.766 -23.963  0.00  0.00     0.101 A 
ATOM      9  C   UNL d   1      33.241  19.810 -24.593  0.00  0.00     0.002 A 
ATOM     10  C   UNL d   1      33.237  19.629 -23.805  0.00  0.00     0.002 A 
ATOM     11  C   UNL d   1      32.696  19.112 -23.506  0.00  0.00     0.021 A 
ATOM     12  N   UNL d   1      31.541  18.221 -23.819  0.00  0.00    -0.225 NA
ENDBRANCH   1   4
BRANCH   1  13
ATOM     13  C   UNL d   1      30.603  16.735 -24.542  0.00  0.00     0.212 C 
ATOM     14  O   UNL d   1      31.083  16.333 -25.086  0.00  0.00    -0.286 OA
BRANCH  13  15
ATOM     15  C   UNL d   1      30.219  16.308 -23.954  0.00  0.00     0.084 A 
ATOM     16  C   UNL d   1      29.426  16.126 -24.049  0.00  0.00     0.099 A 
ATOM     17  C   UNL d   1      29.024  15.688 -23.451  0.00  0.00     0.024 A 
ATOM     18  C   UNL d   1      29.450  15.453 -22.780  0.00  0.00     0.004 A 
ATOM     19  C   UNL d   1      30.256  15.642 -22.693  0.00  0.00     0.024 A 
ATOM     20  C   UNL d   1      30.631  16.078 -23.301  0.00  0.00     0.099 A 
BRANCH  16  21
ATOM     21  O   UNL d   1      28.981  16.351 -24.711  0.00  0.00    -0.328 OA
ATOM     22  C   UNL d   1      28.357  15.861 -24.975  0.00  0.00     0.181 C 
ENDBRANCH  16  21
BRANCH  20  23
ATOM     23  O   UNL d   1      31.434  16.269 -23.218  0.00  0.00    -0.328 OA
ATOM     24  C   UNL d   1      31.932  15.822 -22.738  0.00  0.00     0.181 C 
ENDBRANCH  20  23
ENDBRANCH  13  15
ENDBRANCH   1  13
TORSDOF 5
ENDMDL
MODEL 6
REMARK VINA RESULT:       0.8      1.449      3.522
REMARK  5 active torsions:
REMARK  status: ('A' for Active; 'I' for Inactive)
REMARK    1  A    between atoms: C_2  and  C_1 
REMARK    2  A    between atoms: C_3  and  C_2 
REMARK    3  A    between atoms: C_6  and  C_3 
REMARK    4  A    between atoms: O_15  and  C_12 
REMARK    5  A    between atoms: O_14  and  C_13 
ROOT
ATOM      1  C   UNL d   1      32.169  17.283 -24.611  0.00  0.00     0.143 C 
ATOM      2  C   UNL d   1      32.549  16.571 -24.843  0.00  0.00     0.107 C 
ATOM      3  N   UNL d   1      32.915  15.860 -25.073  0.00  0.00    -0.191 NA
ENDROOT
BRANCH   1   4
ATOM      4  C   UNL d   1      31.337  17.312 -24.541  0.00  0.00     0.175 A 
ATOM      5  N   UNL d   1      30.856  16.984 -23.969  0.00  0.00    -0.225 NA
ATOM      6  C   UNL d   1      30.105  17.153 -24.125  0.00  0.00     0.101 A 
ATOM      7  C   UNL d   1      29.421  16.972 -23.751  0.00  0.00     0.021 A 
ATOM      8  C   UNL d   1      30.066  17.604 -24.814  0.00  0.00     0.101 A 
ATOM      9  C   UNL d   1      28.679  17.228 -24.043  0.00  0.00     0.002 A 
ATOM     10  C   UNL d   1      28.681  17.668 -24.722  0.00  0.00     0.002 A 
ATOM     11  C   UNL d   1      29.372  17.847 -25.093  0.00  0.00     0.021 A 
ATOM     12  N   UNL d   1      30.856  17.698 -25.069  0.00  0.00    -0.225 NA
ENDBRANCH   1   4
BRANCH   1  13
ATOM     13  C   UNL d   1      32.646  17.933 -24.461  0.00  0.00     0.212 C 
ATOM     14  O   UNL d   1      32.961  18.362 -25.097  0.00  0.00    -0.286 OA
BRANCH  13  15
ATOM     15  C   UNL d   1      32.820  18.170 -23.693  0.00  0.00     0.084 A 
ATOM     16  C   UNL d   1      33.022  17.601 -23.139  0.00  0.00     0.099 A 
ATOM     17  C   UNL d   1      33.202  17.835 -22.349  0.00  0.00     0.024 A 
ATOM     18  C   UNL d   1      33.168  18.641 -22.158  0.00  0.00     0.004 A 
ATOM     19  C   UNL d   1      32.962  19.211 -22.729  0.00  0.00     0.024 A 
ATOM     20  C   UNL d   1      32.788  18.952 -23.505  0.00  0.00     0.099 A 
BRANCH  16  21
ATOM     21  O   UNL d   1      33.062  16.791 -23.307  0.00  0.00    -0.328 OA
ATOM     22  C   UNL d   1      33.160  16.244 -22.683  0.00  0.00     0.181 C 
ENDBRANCH  16  21
BRANCH  20  23
ATOM     23  O   UNL d   1      32.582  19.517 -24.077  0.00  0.00    -0.328 OA
ATOM     24  C   UNL d   1      32.840  20.297 -24.019  0.00  0.00     0.181 C 
ENDBRANCH  20  23
ENDBRANCH  13  15
ENDBRANCH   1  13
TORSDOF 5
ENDMDL
