MODEL 1
REMARK VINA RESULT:       0.4      0.000      0.000
REMARK  3 active torsions:
REMARK  status: ('A' for Active; 'I' for Inactive)
REMARK    1  A    between atoms: C_2  and  C_1 
REMARK    2  A    between atoms: C_4  and  C_1 
REMARK       I    between atoms: N_3  and  C_2 
REMARK    3  A    between atoms: C_6  and  N_5 
ROOT
ATOM      1  C   UNL d   1     -42.616-122.375 -51.512  0.00  0.00     0.253 C 
ATOM      2  N   UNL d   1     -42.400-122.549 -50.737  0.00  0.00    -0.272 N 
ATOM      3  N   UNL d   1     -42.065-122.905 -49.183  0.00  0.00    -0.299 N 
ATOM      4  O   UNL d   1     -43.407-122.379 -51.732  0.00  0.00    -0.271 OA
ATOM      5  C   UNL d   1     -43.001-122.723 -50.206  0.00  0.00     0.102 A 
ATOM      6  C   UNL d   1     -41.636-122.554 -50.486  0.00  0.00     0.102 A 
ATOM      7  C   UNL d   1     -42.844-122.901 -49.434  0.00  0.00     0.100 A 
ATOM      8  C   UNL d   1     -41.458-122.733 -49.705  0.00  0.00     0.100 A 
ENDROOT
BRANCH   1   9
ATOM      9  C   UNL d   1     -42.039-122.194 -52.076  0.00  0.00     0.137 A 
ATOM     10  C   UNL d   1     -41.471-122.017 -52.632  0.00  0.00     0.018 A 
ATOM     11  C   UNL d   1     -41.124-121.261 -52.647  0.00  0.00     0.119 A 
ATOM     12  O   UNL d   1     -41.351-120.696 -52.108  0.00  0.00    -0.304 OA
ATOM     13  C   UNL d   1     -41.925-120.873 -51.544  0.00  0.00     0.119 A 
ATOM     14  C   UNL d   1     -42.272-121.623 -51.526  0.00  0.00     0.018 A 
BRANCH   9  15
ATOM     15  C   UNL d   1     -41.810-122.770 -52.624  0.00  0.00     0.023 A 
ATOM     16  S   UNL d   1     -42.212-122.981 -53.319  0.00  0.00    -0.090 SA
ATOM     17  C   UNL d   1     -41.791-123.577 -53.701  0.00  0.00     0.035 A 
ATOM     18  C   UNL d   1     -41.123-123.750 -53.258  0.00  0.00     0.007 A 
ATOM     19  C   UNL d   1     -41.132-123.250 -52.589  0.00  0.00     0.004 A 
ENDBRANCH   9  15
ENDBRANCH   1   9
BRANCH   3  20
ATOM     20  C   UNL d   1     -41.888-123.081 -48.414  0.00  0.00     0.092 A 
ATOM     21  C   UNL d   1     -42.292-122.708 -47.803  0.00  0.00     0.156 A 
ATOM     22  F   UNL d   1     -42.869-122.162 -47.965  0.00  0.00    -0.203 F 
ATOM     23  C   UNL d   1     -42.113-122.885 -47.030  0.00  0.00     0.031 A 
ATOM     24  C   UNL d   1     -41.527-123.438 -46.857  0.00  0.00     0.002 A 
ATOM     25  C   UNL d   1     -41.123-123.812 -47.473  0.00  0.00     0.002 A 
ATOM     26  C   UNL d   1     -41.306-123.631 -48.256  0.00  0.00     0.020 A 
ENDBRANCH   3  20
TORSDOF 3
ENDMDL
MODEL 2
REMARK VINA RESULT:       1.0      1.223      1.865
REMARK  3 active torsions:
REMARK  status: ('A' for Active; 'I' for Inactive)
REMARK    1  A    between atoms: C_2  and  C_1 
REMARK    2  A    between atoms: C_4  and  C_1 
REMARK       I    between atoms: N_3  and  C_2 
REMARK    3  A    between atoms: C_6  and  N_5 
ROOT
ATOM      1  C   UNL d   1     -41.668-121.758 -52.892  0.00  0.00     0.253 C 
ATOM      2  N   UNL d   1     -41.730-122.091 -52.142  0.00  0.00    -0.272 N 
ATOM      3  N   UNL d   1     -41.786-122.692 -50.629  0.00  0.00    -0.299 N 
ATOM      4  O   UNL d   1     -41.129-121.154 -53.032  0.00  0.00    -0.271 OA
ATOM      5  C   UNL d   1     -41.239-121.798 -51.554  0.00  0.00     0.102 A 
ATOM      6  C   UNL d   1     -42.246-122.684 -51.968  0.00  0.00     0.102 A 
ATOM      7  C   UNL d   1     -41.260-122.090 -50.801  0.00  0.00     0.100 A 
ATOM      8  C   UNL d   1     -42.280-122.992 -51.208  0.00  0.00     0.100 A 
ENDROOT
BRANCH   1   9
ATOM      9  C   UNL d   1     -42.145-122.027 -53.510  0.00  0.00     0.137 A 
ATOM     10  C   UNL d   1     -42.615-122.293 -54.120  0.00  0.00     0.018 A 
ATOM     11  C   UNL d   1     -43.359-121.945 -54.255  0.00  0.00     0.119 A 
ATOM     12  O   UNL d   1     -43.620-121.338 -53.779  0.00  0.00    -0.304 OA
ATOM     13  C   UNL d   1     -43.146-121.068 -53.161  0.00  0.00     0.119 A 
ATOM     14  C   UNL d   1     -42.407-121.411 -53.025  0.00  0.00     0.018 A 
BRANCH   9  15
ATOM     15  C   UNL d   1     -41.879-122.643 -53.993  0.00  0.00     0.023 A 
ATOM     16  S   UNL d   1     -42.272-123.357 -54.148  0.00  0.00    -0.090 SA
ATOM     17  C   UNL d   1     -41.812-123.812 -54.657  0.00  0.00     0.035 A 
ATOM     18  C   UNL d   1     -41.127-123.396 -54.830  0.00  0.00     0.007 A 
ATOM     19  C   UNL d   1     -41.166-122.670 -54.420  0.00  0.00     0.004 A 
ENDBRANCH   9  15
ENDBRANCH   1   9
BRANCH   3  20
ATOM     20  C   UNL d   1     -41.822-122.998 -49.881  0.00  0.00     0.092 A 
ATOM     21  C   UNL d   1     -42.549-123.095 -49.510  0.00  0.00     0.156 A 
ATOM     22  F   UNL d   1     -43.234-122.887 -49.889  0.00  0.00    -0.203 F 
ATOM     23  C   UNL d   1     -42.584-123.402 -48.758  0.00  0.00     0.031 A 
ATOM     24  C   UNL d   1     -41.891-123.617 -48.366  0.00  0.00     0.002 A 
ATOM     25  C   UNL d   1     -41.162-123.518 -48.741  0.00  0.00     0.002 A 
ATOM     26  C   UNL d   1     -41.128-123.206 -49.504  0.00  0.00     0.020 A 
ENDBRANCH   3  20
TORSDOF 3
ENDMDL
MODEL 3
REMARK VINA RESULT:       2.4      1.875      4.517
REMARK  3 active torsions:
REMARK  status: ('A' for Active; 'I' for Inactive)
REMARK    1  A    between atoms: C_2  and  C_1 
REMARK    2  A    between atoms: C_4  and  C_1 
REMARK       I    between atoms: N_3  and  C_2 
REMARK    3  A    between atoms: C_6  and  N_5 
ROOT
ATOM      1  C   UNL d   1     -41.880-121.994 -50.669  0.00  0.00     0.253 C 
ATOM      2  N   UNL d   1     -41.813-122.223 -51.457  0.00  0.00    -0.272 N 
ATOM      3  N   UNL d   1     -41.625-122.602 -53.030  0.00  0.00    -0.299 N 
ATOM      4  O   UNL d   1     -41.489-121.324 -50.400  0.00  0.00    -0.271 OA
ATOM      5  C   UNL d   1     -41.348-121.760 -51.949  0.00  0.00     0.102 A 
ATOM      6  C   UNL d   1     -42.181-122.873 -51.756  0.00  0.00     0.102 A 
ATOM      7  C   UNL d   1     -41.249-121.941 -52.730  0.00  0.00     0.100 A 
ATOM      8  C   UNL d   1     -42.092-123.071 -52.548  0.00  0.00     0.100 A 
ENDROOT
BRANCH   1   9
ATOM      9  C   UNL d   1     -42.339-122.435 -50.143  0.00  0.00     0.137 A 
ATOM     10  C   UNL d   1     -42.791-122.870 -49.623  0.00  0.00     0.018 A 
ATOM     11  C   UNL d   1     -43.621-122.820 -49.651  0.00  0.00     0.119 A 
ATOM     12  O   UNL d   1     -43.985-122.337 -50.196  0.00  0.00    -0.304 OA
ATOM     13  C   UNL d   1     -43.530-121.896 -50.722  0.00  0.00     0.119 A 
ATOM     14  C   UNL d   1     -42.705-121.944 -50.697  0.00  0.00     0.018 A 
BRANCH   9  15
ATOM     15  C   UNL d   1     -41.969-122.926 -49.589  0.00  0.00     0.023 A 
ATOM     16  S   UNL d   1     -42.172-123.014 -48.790  0.00  0.00    -0.090 SA
ATOM     17  C   UNL d   1     -41.661-123.557 -48.441  0.00  0.00     0.035 A 
ATOM     18  C   UNL d   1     -41.131-123.818 -49.010  0.00  0.00     0.007 A 
ATOM     19  C   UNL d   1     -41.320-123.428 -49.724  0.00  0.00     0.004 A 
ENDBRANCH   9  15
ENDBRANCH   1   9
BRANCH   3  20
ATOM     20  C   UNL d   1     -41.538-122.800 -53.810  0.00  0.00     0.092 A 
ATOM     21  C   UNL d   1     -41.776-122.275 -54.396  0.00  0.00     0.156 A 
ATOM     22  F   UNL d   1     -42.098-121.558 -54.200  0.00  0.00    -0.203 F 
ATOM     23  C   UNL d   1     -41.688-122.474 -55.179  0.00  0.00     0.031 A 
ATOM     24  C   UNL d   1     -41.361-123.202 -55.388  0.00  0.00     0.002 A 
ATOM     25  C   UNL d   1     -41.124-123.727 -54.796  0.00  0.00     0.002 A 
ATOM     26  C   UNL d   1     -41.213-123.523 -54.002  0.00  0.00     0.020 A 
ENDBRANCH   3  20
TORSDOF 3
ENDMDL
MODEL 4
REMARK VINA RESULT:       3.1      1.961      3.142
REMARK  3 active torsions:
REMARK  status: ('A' for Active; 'I' for Inactive)
REMARK    1  A    between atoms: C_2  and  C_1 
REMARK    2  A    between atoms: C_4  and  C_1 
REMARK       I    between atoms: N_3  and  C_2 
REMARK    3  A    between atoms: C_6  and  N_5 
ROOT
ATOM      1  C   UNL d   1     -41.603-123.247 -54.229  0.00  0.00     0.253 C 
ATOM      2  N   UNL d   1     -41.629-123.182 -53.409  0.00  0.00    -0.272 N 
ATOM      3  N   UNL d   1     -41.620-123.124 -51.781  0.00  0.00    -0.299 N 
ATOM      4  O   UNL d   1     -41.125-123.814 -54.583  0.00  0.00    -0.271 OA
ATOM      5  C   UNL d   1     -41.166-123.699 -52.972  0.00  0.00     0.102 A 
ATOM      6  C   UNL d   1     -42.085-122.640 -53.028  0.00  0.00     0.102 A 
ATOM      7  C   UNL d   1     -41.155-123.677 -52.164  0.00  0.00     0.100 A 
ATOM      8  C   UNL d   1     -42.087-122.604 -52.208  0.00  0.00     0.100 A 
ENDROOT
BRANCH   1   9
ATOM      9  C   UNL d   1     -42.055-122.745 -54.703  0.00  0.00     0.137 A 
ATOM     10  C   UNL d   1     -42.501-122.248 -55.171  0.00  0.00     0.018 A 
ATOM     11  C   UNL d   1     -43.183-122.535 -55.551  0.00  0.00     0.119 A 
ATOM     12  O   UNL d   1     -43.408-123.312 -55.458  0.00  0.00    -0.304 OA
ATOM     13  C   UNL d   1     -42.959-123.816 -54.986  0.00  0.00     0.119 A 
ATOM     14  C   UNL d   1     -42.281-123.534 -54.607  0.00  0.00     0.018 A 
BRANCH   9  15
ATOM     15  C   UNL d   1     -41.826-121.955 -54.797  0.00  0.00     0.023 A 
ATOM     16  S   UNL d   1     -41.392-121.637 -55.429  0.00  0.00    -0.090 SA
ATOM     17  C   UNL d   1     -41.286-120.830 -55.301  0.00  0.00     0.035 A 
ATOM     18  C   UNL d   1     -41.648-120.629 -54.594  0.00  0.00     0.007 A 
ATOM     19  C   UNL d   1     -41.984-121.325 -54.278  0.00  0.00     0.004 A 
ENDBRANCH   9  15
ENDBRANCH   1   9
BRANCH   3  20
ATOM     20  C   UNL d   1     -41.623-123.087 -50.973  0.00  0.00     0.092 A 
ATOM     21  C   UNL d   1     -41.452-122.378 -50.593  0.00  0.00     0.156 A 
ATOM     22  F   UNL d   1     -41.279-121.713 -51.022  0.00  0.00    -0.203 F 
ATOM     23  C   UNL d   1     -41.455-122.342 -49.781  0.00  0.00     0.031 A 
ATOM     24  C   UNL d   1     -41.629-123.014 -49.337  0.00  0.00     0.002 A 
ATOM     25  C   UNL d   1     -41.801-123.725 -49.721  0.00  0.00     0.002 A 
ATOM     26  C   UNL d   1     -41.797-123.760 -50.545  0.00  0.00     0.020 A 
ENDBRANCH   3  20
TORSDOF 3
ENDMDL
