MODEL 1
REMARK VINA RESULT:     107.0      0.000      0.000
REMARK  8 active torsions:
REMARK  status: ('A' for Active; 'I' for Inactive)
REMARK    1  A    between atoms: C_21  and  N_5 
REMARK    2  A    between atoms: S_10  and  C_6 
REMARK    3  A    between atoms: C_17  and  C_7 
REMARK    4  A    between atoms: C_23  and  S_10 
REMARK    5  A    between atoms: C_13  and  C_23 
REMARK       I    between atoms: N_19  and  C_13 
REMARK    6  A    between atoms: C_28  and  N_19 
REMARK    7  A    between atoms: C_24  and  C_21 
REMARK    8  A    between atoms: C_27  and  C_28 
ROOT
ATOM      1  C   UNL d   1     -55.059-101.261 -39.482  0.00  0.00     0.081 A 
ATOM      2  C   UNL d   1     -54.937-100.485 -39.628  0.00  0.00     0.117 A 
ATOM      3  N   UNL d   1     -54.837-100.170 -40.414  0.00  0.00    -0.215 NA
ATOM      4  C   UNL d   1     -55.088-101.787 -40.153  0.00  0.00     0.268 A 
ATOM      5  N   UNL d   1     -54.995-101.508 -40.918  0.00  0.00    -0.253 N 
ATOM      6  C   UNL d   1     -54.863-100.656 -41.046  0.00  0.00     0.182 A 
ATOM      7  C   UNL d   1     -55.133-101.383 -38.681  0.00  0.00     0.013 A 
ATOM      8  S   UNL d   1     -54.929-100.072 -38.894  0.00  0.00    -0.067 SA
ATOM      9  C   UNL d   1     -55.054-100.650 -38.307  0.00  0.00     0.037 A 
ATOM     10  O   UNL d   1     -55.214-102.611 -40.051  0.00  0.00    -0.267 OA
ENDROOT
BRANCH   6  11
ATOM     11  S   UNL d   1     -54.764-100.346 -41.817  0.00  0.00    -0.044 SA
BRANCH  11  12
ATOM     12  C   UNL d   1     -55.062 -99.637 -42.031  0.00  0.00     0.101 C 
BRANCH  12  13
ATOM     13  C   UNL d   1     -55.547 -99.546 -42.642  0.00  0.00     0.286 C 
ATOM     14  N   UNL d   1     -55.598-100.044 -43.277  0.00  0.00    -0.206 NA
ATOM     15  O   UNL d   1     -56.039 -98.905 -42.649  0.00  0.00    -0.265 OA
BRANCH  14  16
ATOM     16  C   UNL d   1     -55.068-100.690 -43.221  0.00  0.00     0.102 C 
BRANCH  16  17
ATOM     17  C   UNL d   1     -55.042-101.215 -43.901  0.00  0.00     0.021 A 
ATOM     18  C   UNL d   1     -54.972-100.920 -44.693  0.00  0.00     0.028 A 
ATOM     19  C   UNL d   1     -54.949-101.420 -45.310  0.00  0.00     0.119 A 
ATOM     20  O   UNL d   1     -54.884-101.264 -46.119  0.00  0.00    -0.300 OA
ATOM     21  C   UNL d   1     -54.993-102.232 -45.201  0.00  0.00     0.119 A 
ATOM     22  C   UNL d   1     -54.891-102.004 -46.477  0.00  0.00     0.304 A 
ATOM     23  O   UNL d   1     -54.957-102.597 -45.917  0.00  0.00    -0.300 OA
ATOM     24  C   UNL d   1     -55.064-102.551 -44.416  0.00  0.00     0.026 A 
ATOM     25  C   UNL d   1     -55.086-102.034 -43.796  0.00  0.00     0.004 A 
ENDBRANCH  16  17
ENDBRANCH  14  16
ENDBRANCH  12  13
ENDBRANCH  11  12
ENDBRANCH   6  11
BRANCH   5  26
ATOM     26  C   UNL d   1     -55.037-102.100 -41.524  0.00  0.00     0.085 C 
BRANCH  26  27
ATOM     27  C   UNL d   1     -55.405-102.861 -41.379  0.00  0.00     0.019 C 
ATOM     28  C   UNL d   1     -56.156-102.869 -41.031  0.00  0.00     0.002 C 
ENDBRANCH  26  27
ENDBRANCH   5  26
BRANCH   7  29
ATOM     29  C   UNL d   1     -55.245-101.849 -38.047  0.00  0.00     0.001 A 
ATOM     30  C   UNL d   1     -55.840-102.413 -37.958  0.00  0.00     0.000 A 
ATOM     31  C   UNL d   1     -55.951-102.879 -37.324  0.00  0.00     0.000 A 
ATOM     32  C   UNL d   1     -55.425-102.797 -36.689  0.00  0.00     0.000 A 
ATOM     33  C   UNL d   1     -54.818-102.243 -36.744  0.00  0.00     0.000 A 
ATOM     34  C   UNL d   1     -54.727-101.773 -37.416  0.00  0.00     0.000 A 
ENDBRANCH   7  29
TORSDOF 8
ENDMDL
