MODEL 1
REMARK VINA RESULT:     105.4      0.000      0.000
REMARK  5 active torsions:
REMARK  status: ('A' for Active; 'I' for Inactive)
REMARK    1  A    between atoms: N_4  and  C_1 
REMARK    2  A    between atoms: S_3  and  C_9 
REMARK       I    between atoms: C_6  and  N_4 
REMARK    3  A    between atoms: C_11  and  C_5 
REMARK    4  A    between atoms: C_10  and  C_6 
REMARK    5  A    between atoms: O_25  and  C_22 
ROOT
ATOM      1  C   UNL d   1      60.856  47.206  50.788  0.00  0.00     0.197 A 
ATOM      2  N   UNL d   1      60.049  47.384  50.765  0.00  0.00    -0.221 NA
ATOM      3  C   UNL d   1      59.964  48.198  50.774  0.00  0.00     0.090 A 
ATOM      4  S   UNL d   1      61.259  47.916  50.812  0.00  0.00    -0.046 SA
ATOM      5  C   UNL d   1      60.699  48.528  50.803  0.00  0.00     0.058 A 
ENDROOT
BRANCH   1   6
ATOM      6  N   UNL d   1      61.270  46.493  50.791  0.00  0.00    -0.183 NA
ATOM      7  C   UNL d   1      60.868  45.783  50.918  0.00  0.00     0.281 C 
ATOM      8  O   UNL d   1      60.060  45.793  51.040  0.00  0.00    -0.265 OA
BRANCH   7   9
ATOM      9  C   UNL d   1      61.281  45.070  50.921  0.00  0.00     0.058 A 
ATOM     10  C   UNL d   1      61.639  44.797  50.234  0.00  0.00     0.005 A 
ATOM     11  C   UNL d   1      62.052  44.085  50.237  0.00  0.00     0.011 A 
ATOM     12  C   UNL d   1      62.108  43.644  50.927  0.00  0.00     0.084 A 
ATOM     13  C   UNL d   1      61.750  43.915  51.618  0.00  0.00     0.011 A 
ATOM     14  C   UNL d   1      61.337  44.628  51.615  0.00  0.00     0.005 A 
BRANCH  12  15
ATOM     15  S   UNL d   1      62.522  42.930  50.930  0.00  0.00     0.191 S 
ATOM     16  O   UNL d   1      62.118  42.699  51.610  0.00  0.00    -0.222 OA
ATOM     17  O   UNL d   1      62.926  43.161  50.249  0.00  0.00    -0.222 OA
ATOM     18  C   UNL d   1      62.935  42.217  50.933  0.00  0.00     0.145 C 
ENDBRANCH  12  15
ENDBRANCH   7   9
ENDBRANCH   1   6
BRANCH   3  19
ATOM     19  C   UNL d   1      59.231  48.577  50.756  0.00  0.00     0.018 A 
ATOM     20  C   UNL d   1      58.580  48.187  50.406  0.00  0.00     0.004 A 
ATOM     21  C   UNL d   1      57.847  48.567  50.388  0.00  0.00     0.024 A 
ATOM     22  C   UNL d   1      57.749  49.329  50.711  0.00  0.00     0.094 A 
ATOM     23  C   UNL d   1      58.396  49.708  51.055  0.00  0.00     0.024 A 
ATOM     24  C   UNL d   1      59.136  49.326  51.074  0.00  0.00     0.004 A 
BRANCH  22  25
ATOM     25  O   UNL d   1      57.006  49.708  50.690  0.00  0.00    -0.328 OA
ATOM     26  C   UNL d   1      56.321  49.276  50.500  0.00  0.00     0.181 C 
ENDBRANCH  22  25
ENDBRANCH   3  19
TORSDOF 5
ENDMDL
