MODEL 1
REMARK VINA RESULT:      35.4      0.000      0.000
REMARK  3 active torsions:
REMARK  status: ('A' for Active; 'I' for Inactive)
REMARK    1  A    between atoms: C_8  and  N_2 
REMARK    2  A    between atoms: C_12  and  C_8 
REMARK    3  A    between atoms: N_11  and  C_12 
ROOT
ATOM      1  C   UNL d   1      46.155 -18.508  42.490  0.00  0.00     0.166 A 
ATOM      2  N   UNL d   1      46.016 -18.201  43.245  0.00  0.00    -0.288 N 
ATOM      3  C   UNL d   1      46.329 -19.313  42.560  0.00  0.00     0.117 A 
ATOM      4  N   UNL d   1      46.143 -18.144  41.751  0.00  0.00    -0.225 NA
ATOM      5  N   UNL d   1      46.491 -19.754  41.887  0.00  0.00    -0.241 NA
ATOM      6  C   UNL d   1      46.296 -19.504  43.363  0.00  0.00     0.037 A 
ATOM      7  C   UNL d   1      46.106 -18.825  43.770  0.00  0.00     0.067 A 
ATOM      8  C   UNL d   1      46.304 -18.580  41.078  0.00  0.00     0.101 A 
ATOM      9  C   UNL d   1      46.478 -19.384  41.146  0.00  0.00     0.099 A 
ATOM     10  C   UNL d   1      46.425 -20.241  43.749  0.00  0.00     0.003 A 
ATOM     11  C   UNL d   1      46.035 -18.857  44.603  0.00  0.00     0.018 A 
ATOM     12  C   UNL d   1      46.291 -18.210  40.337  0.00  0.00     0.021 A 
ATOM     13  C   UNL d   1      46.619 -19.741  40.493  0.00  0.00     0.021 A 
ATOM     14  C   UNL d   1      46.355 -20.266  44.558  0.00  0.00     0.000 A 
ATOM     15  C   UNL d   1      46.166 -19.571  44.911  0.00  0.00     0.002 A 
ATOM     16  C   UNL d   1      46.626 -19.453  39.735  0.00  0.00     0.002 A 
ATOM     17  C   UNL d   1      46.451 -18.645  39.670  0.00  0.00     0.002 A 
ENDROOT
BRANCH   2  18
ATOM     18  C   UNL d   1      45.831 -17.601  43.780  0.00  0.00     0.101 C 
BRANCH  18  19
ATOM     19  C   UNL d   1      46.388 -17.025  43.647  0.00  0.00     0.100 C 
BRANCH  19  20
ATOM     20  N   UNL d   1      46.100 -16.358  44.038  0.00  0.00    -0.298 N 
ATOM     21  C   UNL d   1      46.546 -15.664  44.054  0.00  0.00     0.107 A 
ATOM     22  C   UNL d   1      46.257 -14.998  44.446  0.00  0.00     0.142 A 
ATOM     23  O   UNL d   1      45.519 -15.023  44.823  0.00  0.00    -0.300 OA
ATOM     24  C   UNL d   1      45.073 -15.716  44.807  0.00  0.00     0.142 A 
ATOM     25  C   UNL d   1      45.365 -16.385  44.413  0.00  0.00     0.107 A 
ENDBRANCH  19  20
ENDBRANCH  18  19
ENDBRANCH   2  18
TORSDOF 3
ENDMDL
