MODEL 1
REMARK VINA RESULT:      48.0      0.000      0.000
REMARK  7 active torsions:
REMARK  status: ('A' for Active; 'I' for Inactive)
REMARK    1  A    between atoms: C_2  and  C_1 
REMARK    2  A    between atoms: C_16  and  N_4 
REMARK    3  A    between atoms: C_14  and  C_21 
REMARK    4  A    between atoms: C_22  and  C_16 
REMARK    5  A    between atoms: C_21  and  C_23 
REMARK    6  A    between atoms: C_25  and  C_22 
REMARK    7  A    between atoms: C_23  and  C_25 
ROOT
ATOM      1  C   UNL d   1      45.394 -18.542  41.983  0.00  0.00     0.093 A 
ATOM      2  N   UNL d   1      45.312 -18.216  40.716  0.00  0.00    -0.259 N 
ATOM      3  C   UNL d   1      44.574 -18.131  41.045  0.00  0.00     0.153 A 
ATOM      4  C   UNL d   1      45.814 -18.469  41.296  0.00  0.00     0.272 A 
ATOM      5  S   UNL d   1      44.626 -18.334  41.833  0.00  0.00    -0.053 SA
ATOM      6  S   UNL d   1      43.901 -17.880  40.630  0.00  0.00    -0.052 SA
ATOM      7  O   UNL d   1      46.640 -18.630  41.196  0.00  0.00    -0.266 OA
ENDROOT
BRANCH   1   8
ATOM      8  C   UNL d   1      45.776 -18.796  42.680  0.00  0.00     0.069 A 
ATOM      9  C   UNL d   1      45.991 -19.580  42.824  0.00  0.00     0.265 A 
ATOM     10  N   UNL d   1      46.347 -19.625  43.548  0.00  0.00    -0.272 N 
ATOM     11  O   UNL d   1      45.864 -20.226  42.309  0.00  0.00    -0.267 OA
ATOM     12  C   UNL d   1      46.645 -20.326  43.898  0.00  0.00     0.102 C 
ATOM     13  C   UNL d   1      46.360 -18.872  43.869  0.00  0.00     0.067 A 
ATOM     14  C   UNL d   1      46.002 -18.351  43.324  0.00  0.00     0.021 A 
ATOM     15  C   UNL d   1      46.645 -18.584  44.574  0.00  0.00     0.018 A 
ATOM     16  C   UNL d   1      45.939 -17.549  43.505  0.00  0.00     0.002 A 
ATOM     17  C   UNL d   1      46.220 -17.234  44.213  0.00  0.00     0.000 A 
ATOM     18  C   UNL d   1      46.580 -17.773  44.755  0.00  0.00     0.002 A 
ENDBRANCH   1   8
BRANCH   2  19
ATOM     19  C   UNL d   1      45.506 -18.066  39.916  0.00  0.00     0.084 C 
BRANCH  19  20
ATOM     20  C   UNL d   1      45.264 -17.374  39.573  0.00  0.00     0.019 C 
BRANCH  20  21
ATOM     21  C   UNL d   1      45.267 -17.307  38.740  0.00  0.00     0.002 C 
BRANCH  21  22
ATOM     22  C   UNL d   1      45.431 -16.591  38.401  0.00  0.00     0.006 C 
BRANCH  22  23
ATOM     23  C   UNL d   1      45.130 -16.420  37.640  0.00  0.00     0.070 C 
BRANCH  23  24
ATOM     24  C   UNL d   1      44.901 -15.665  37.457  0.00  0.00     0.211 C 
ATOM     25  O   UNL d   1      45.448 -15.125  37.148  0.00  0.00    -0.644 OA
ATOM     26  O   UNL d   1      44.127 -15.417  37.571  0.00  0.00    -0.644 OA
ENDBRANCH  23  24
ENDBRANCH  22  23
ENDBRANCH  21  22
ENDBRANCH  20  21
ENDBRANCH  19  20
ENDBRANCH   2  19
TORSDOF 7
ENDMDL
