MODEL 1
REMARK VINA RESULT:      15.6      0.000      0.000
REMARK  5 active torsions:
REMARK  status: ('A' for Active; 'I' for Inactive)
REMARK    1  A    between atoms: C_7  and  N_1 
REMARK    2  A    between atoms: C_6  and  C_2 
REMARK    3  A    between atoms: C_8  and  C_6 
REMARK    4  A    between atoms: C_12  and  C_7 
REMARK    5  A    between atoms: C_9  and  C_8 
ROOT
ATOM      1  N   UNL d   1      46.410 -18.388  43.584  0.00  0.00    -0.289 N 
ATOM      2  C   UNL d   1      46.254 -17.501  43.477  0.00  0.00     0.148 A 
ATOM      3  N   UNL d   1      46.217 -17.340  42.578  0.00  0.00    -0.227 NA
ATOM      4  C   UNL d   1      46.472 -18.792  42.748  0.00  0.00     0.083 A 
ATOM      5  C   UNL d   1      46.351 -18.134  42.116  0.00  0.00     0.099 A 
ATOM      6  C   UNL d   1      46.621 -19.658  42.488  0.00  0.00     0.019 A 
ATOM      7  C   UNL d   1      46.381 -18.358  41.240  0.00  0.00     0.021 A 
ATOM      8  C   UNL d   1      46.647 -19.857  41.606  0.00  0.00     0.002 A 
ATOM      9  C   UNL d   1      46.525 -19.199  40.974  0.00  0.00     0.002 A 
ENDROOT
BRANCH   2  10
ATOM     10  C   UNL d   1      46.227 -17.300  44.233  0.00  0.00     0.037 C 
BRANCH  10  11
ATOM     11  C   UNL d   1      46.425 -16.578  44.510  0.00  0.00     0.003 C 
BRANCH  11  12
ATOM     12  C   UNL d   1      45.900 -15.959  44.556  0.00  0.00     0.000 A 
ATOM     13  C   UNL d   1      45.162 -16.085  44.904  0.00  0.00     0.000 A 
ATOM     14  C   UNL d   1      44.628 -15.463  44.954  0.00  0.00     0.000 A 
ATOM     15  C   UNL d   1      44.817 -14.726  44.664  0.00  0.00     0.000 A 
ATOM     16  C   UNL d   1      45.556 -14.601  44.315  0.00  0.00     0.000 A 
ATOM     17  C   UNL d   1      46.079 -15.216  44.269  0.00  0.00     0.000 A 
ENDBRANCH  11  12
ENDBRANCH  10  11
ENDBRANCH   2  10
BRANCH   1  18
ATOM     18  C   UNL d   1      46.547 -19.160  43.746  0.00  0.00     0.082 C 
BRANCH  18  19
ATOM     19  C   UNL d   1      46.158 -19.494  44.398  0.00  0.00     0.018 C 
ATOM     20  C   UNL d   1      46.601 -19.907  44.955  0.00  0.00     0.002 C 
ATOM     21  C   UNL d   1      45.473 -19.635  44.814  0.00  0.00     0.002 C 
ENDBRANCH  18  19
ENDBRANCH   1  18
TORSDOF 5
ENDMDL
