MODEL 1
REMARK VINA RESULT:      -5.2      0.000      0.000
REMARK  4 active torsions:
REMARK  status: ('A' for Active; 'I' for Inactive)
REMARK    1  A    between atoms: N_15  and  C_2 
REMARK    2  A    between atoms: C_3  and  C_9 
REMARK    3  A    between atoms: C_11  and  C_7 
REMARK       I    between atoms: C_9  and  N_14 
REMARK    4  A    between atoms: N_14  and  N_15 
ROOT
ATOM      1  C   UNL d   1     -48.889  13.819  22.106  0.00  0.00     0.062 A 
ATOM      2  N   UNL d   1     -49.903  13.789  23.405  0.00  0.00    -0.245 NA
ATOM      3  C   UNL d   1     -49.734  13.085  22.994  0.00  0.00     0.087 A 
ATOM      4  C   UNL d   1     -49.223  13.112  22.343  0.00  0.00     0.025 A 
ATOM      5  C   UNL d   1     -49.068  14.513  22.527  0.00  0.00     0.022 A 
ATOM      6  C   UNL d   1     -49.569  14.497  23.167  0.00  0.00     0.082 A 
ATOM      7  C   UNL d   1     -48.725  15.222  22.277  0.00  0.00     0.002 A 
ATOM      8  C   UNL d   1     -49.739  15.181  23.574  0.00  0.00     0.019 A 
ATOM      9  C   UNL d   1     -48.897  15.919  22.690  0.00  0.00     0.000 A 
ATOM     10  C   UNL d   1     -49.401  15.896  23.334  0.00  0.00     0.002 A 
ENDROOT
BRANCH   1  11
ATOM     11  C   UNL d   1     -48.385  13.832  21.458  0.00  0.00     0.297 C 
ATOM     12  N   UNL d   1     -47.620  13.594  21.625  0.00  0.00    -0.104 NA
ATOM     13  O   UNL d   1     -48.762  14.087  20.762  0.00  0.00    -0.264 OA
BRANCH  12  14
ATOM     14  N   UNL d   1     -47.424  13.371  22.389  0.00  0.00    -0.118 NA
BRANCH  14  15
ATOM     15  C   UNL d   1     -46.735  12.928  22.534  0.00  0.00     0.215 A 
ATOM     16  N   UNL d   1     -46.694  12.221  22.945  0.00  0.00    -0.219 NA
ATOM     17  C   UNL d   1     -45.915  11.967  22.962  0.00  0.00     0.090 A 
ATOM     18  C   UNL d   1     -45.466  12.532  22.550  0.00  0.00     0.050 A 
ATOM     19  C   UNL d   1     -45.549  11.310  23.288  0.00  0.00     0.018 A 
ATOM     20  C   UNL d   1     -44.650  12.440  22.464  0.00  0.00     0.008 A 
ATOM     21  S   UNL d   1     -45.974  13.121  22.288  0.00  0.00    -0.045 SA
ATOM     22  C   UNL d   1     -44.291  11.769  22.799  0.00  0.00     0.001 A 
ATOM     23  C   UNL d   1     -44.735  11.210  23.207  0.00  0.00     0.002 A 
ATOM     24  C   UNL d   1     -46.000  10.749  23.698  0.00  0.00     0.002 C 
ENDBRANCH  14  15
ENDBRANCH  12  14
ENDBRANCH   1  11
BRANCH   3  25
ATOM     25  C   UNL d   1     -50.074  12.366  23.236  0.00  0.00     0.047 A 
ATOM     26  S   UNL d   1     -50.878  12.228  23.115  0.00  0.00    -0.085 SA
ATOM     27  C   UNL d   1     -51.064  11.477  23.405  0.00  0.00     0.035 A 
ATOM     28  C   UNL d   1     -50.383  11.162  23.698  0.00  0.00     0.007 A 
ATOM     29  C   UNL d   1     -49.757  11.702  23.600  0.00  0.00     0.009 A 
ENDBRANCH   3  25
TORSDOF 4
ENDMDL
MODEL 2
REMARK VINA RESULT:      -4.9      9.020     10.111
REMARK  4 active torsions:
REMARK  status: ('A' for Active; 'I' for Inactive)
REMARK    1  A    between atoms: N_15  and  C_2 
REMARK    2  A    between atoms: C_3  and  C_9 
REMARK    3  A    between atoms: C_11  and  C_7 
REMARK       I    between atoms: C_9  and  N_14 
REMARK    4  A    between atoms: N_14  and  N_15 
ROOT
ATOM      1  C   UNL d   1     -39.026  15.065  17.964  0.00  0.00     0.062 A 
ATOM      2  N   UNL d   1     -40.236  14.192  17.263  0.00  0.00    -0.245 NA
ATOM      3  C   UNL d   1     -40.361  14.991  17.460  0.00  0.00     0.087 A 
ATOM      4  C   UNL d   1     -39.747  15.420  17.812  0.00  0.00     0.025 A 
ATOM      5  C   UNL d   1     -38.917  14.266  17.761  0.00  0.00     0.022 A 
ATOM      6  C   UNL d   1     -39.515  13.837  17.415  0.00  0.00     0.082 A 
ATOM      7  C   UNL d   1     -38.185  13.919  17.920  0.00  0.00     0.002 A 
ATOM      8  C   UNL d   1     -39.399  13.056  17.220  0.00  0.00     0.019 A 
ATOM      9  C   UNL d   1     -38.066  13.123  17.721  0.00  0.00     0.000 A 
ATOM     10  C   UNL d   1     -38.671  12.697  17.374  0.00  0.00     0.002 A 
ENDROOT
BRANCH   1  11
ATOM     11  C   UNL d   1     -38.425  15.502  18.313  0.00  0.00     0.297 C 
ATOM     12  N   UNL d   1     -38.424  15.475  19.131  0.00  0.00    -0.104 NA
ATOM     13  O   UNL d   1     -37.940  15.883  17.755  0.00  0.00    -0.264 OA
BRANCH  12  14
ATOM     14  N   UNL d   1     -38.995  15.036  19.522  0.00  0.00    -0.118 NA
BRANCH  14  15
ATOM     15  C   UNL d   1     -39.006  15.007  20.353  0.00  0.00     0.215 A 
ATOM     16  N   UNL d   1     -38.743  14.387  20.818  0.00  0.00    -0.219 NA
ATOM     17  C   UNL d   1     -38.852  14.580  21.607  0.00  0.00     0.090 A 
ATOM     18  C   UNL d   1     -39.191  15.338  21.628  0.00  0.00     0.050 A 
ATOM     19  C   UNL d   1     -38.694  14.181  22.306  0.00  0.00     0.018 A 
ATOM     20  C   UNL d   1     -39.373  15.698  22.348  0.00  0.00     0.008 A 
ATOM     21  S   UNL d   1     -39.284  15.597  20.854  0.00  0.00    -0.045 SA
ATOM     22  C   UNL d   1     -39.208  15.284  23.050  0.00  0.00     0.001 A 
ATOM     23  C   UNL d   1     -38.872  14.533  23.029  0.00  0.00     0.002 A 
ATOM     24  C   UNL d   1     -38.355  13.425  22.281  0.00  0.00     0.002 C 
ENDBRANCH  14  15
ENDBRANCH  12  14
ENDBRANCH   1  11
BRANCH   3  25
ATOM     25  C   UNL d   1     -41.094  15.352  17.305  0.00  0.00     0.047 A 
ATOM     26  S   UNL d   1     -41.315  15.520  16.528  0.00  0.00    -0.085 SA
ATOM     27  C   UNL d   1     -42.062  15.874  16.537  0.00  0.00     0.035 A 
ATOM     28  C   UNL d   1     -42.291  15.921  17.307  0.00  0.00     0.007 A 
ATOM     29  C   UNL d   1     -41.701  15.601  17.799  0.00  0.00     0.009 A 
ENDBRANCH   3  25
TORSDOF 4
ENDMDL
MODEL 3
REMARK VINA RESULT:      -3.3      1.045      1.296
REMARK  4 active torsions:
REMARK  status: ('A' for Active; 'I' for Inactive)
REMARK    1  A    between atoms: N_15  and  C_2 
REMARK    2  A    between atoms: C_3  and  C_9 
REMARK    3  A    between atoms: C_11  and  C_7 
REMARK       I    between atoms: C_9  and  N_14 
REMARK    4  A    between atoms: N_14  and  N_15 
ROOT
ATOM      1  C   UNL d   1     -49.089  14.156  22.924  0.00  0.00     0.062 A 
ATOM      2  N   UNL d   1     -50.249  13.218  22.223  0.00  0.00    -0.245 NA
ATOM      3  C   UNL d   1     -49.838  12.939  22.891  0.00  0.00     0.087 A 
ATOM      4  C   UNL d   1     -49.257  13.418  23.235  0.00  0.00     0.025 A 
ATOM      5  C   UNL d   1     -49.508  14.419  22.256  0.00  0.00     0.022 A 
ATOM      6  C   UNL d   1     -50.081  13.956  21.912  0.00  0.00     0.082 A 
ATOM      7  C   UNL d   1     -49.329  15.166  21.951  0.00  0.00     0.002 A 
ATOM      8  C   UNL d   1     -50.487  14.222  21.259  0.00  0.00     0.019 A 
ATOM      9  C   UNL d   1     -49.742  15.438  21.287  0.00  0.00     0.000 A 
ATOM     10  C   UNL d   1     -50.316  14.967  20.945  0.00  0.00     0.002 A 
ENDROOT
BRANCH   1  11
ATOM     11  C   UNL d   1     -48.510  14.620  23.274  0.00  0.00     0.297 C 
ATOM     12  N   UNL d   1     -47.746  14.360  23.142  0.00  0.00    -0.104 NA
ATOM     13  O   UNL d   1     -48.827  15.264  23.695  0.00  0.00    -0.264 OA
BRANCH  12  14
ATOM     14  N   UNL d   1     -47.621  13.687  22.691  0.00  0.00    -0.118 NA
BRANCH  14  15
ATOM     15  C   UNL d   1     -46.853  13.382  22.597  0.00  0.00     0.215 A 
ATOM     16  N   UNL d   1     -46.575  12.672  22.898  0.00  0.00    -0.219 NA
ATOM     17  C   UNL d   1     -45.791  12.579  22.681  0.00  0.00     0.090 A 
ATOM     18  C   UNL d   1     -45.580  13.248  22.235  0.00  0.00     0.050 A 
ATOM     19  C   UNL d   1     -45.240  11.988  22.821  0.00  0.00     0.018 A 
ATOM     20  C   UNL d   1     -44.817  13.326  21.929  0.00  0.00     0.008 A 
ATOM     21  S   UNL d   1     -46.236  13.739  22.187  0.00  0.00    -0.045 SA
ATOM     22  C   UNL d   1     -44.268  12.720  22.078  0.00  0.00     0.001 A 
ATOM     23  C   UNL d   1     -44.476  12.058  22.520  0.00  0.00     0.002 A 
ATOM     24  C   UNL d   1     -45.454  11.322  23.266  0.00  0.00     0.002 C 
ENDBRANCH  14  15
ENDBRANCH  12  14
ENDBRANCH   1  11
BRANCH   3  25
ATOM     25  C   UNL d   1     -50.010  12.190  23.207  0.00  0.00     0.047 A 
ATOM     26  S   UNL d   1     -50.787  11.990  23.397  0.00  0.00    -0.085 SA
ATOM     27  C   UNL d   1     -50.796  11.220  23.698  0.00  0.00     0.035 A 
ATOM     28  C   UNL d   1     -50.036  10.956  23.690  0.00  0.00     0.007 A 
ATOM     29  C   UNL d   1     -49.533  11.546  23.388  0.00  0.00     0.009 A 
ENDBRANCH   3  25
TORSDOF 4
ENDMDL
MODEL 4
REMARK VINA RESULT:      -2.9      5.592      8.686
REMARK  4 active torsions:
REMARK  status: ('A' for Active; 'I' for Inactive)
REMARK    1  A    between atoms: N_15  and  C_2 
REMARK    2  A    between atoms: C_3  and  C_9 
REMARK    3  A    between atoms: C_11  and  C_7 
REMARK       I    between atoms: C_9  and  N_14 
REMARK    4  A    between atoms: N_14  and  N_15 
ROOT
ATOM      1  C   UNL d   1     -40.014  14.793  20.539  0.00  0.00     0.062 A 
ATOM      2  N   UNL d   1     -39.298  14.185  19.184  0.00  0.00    -0.245 NA
ATOM      3  C   UNL d   1     -39.966  14.677  19.115  0.00  0.00     0.087 A 
ATOM      4  C   UNL d   1     -40.318  14.977  19.802  0.00  0.00     0.025 A 
ATOM      5  C   UNL d   1     -39.346  14.300  20.590  0.00  0.00     0.022 A 
ATOM      6  C   UNL d   1     -38.994  14.001  19.921  0.00  0.00     0.082 A 
ATOM      7  C   UNL d   1     -39.048  14.122  21.340  0.00  0.00     0.002 A 
ATOM      8  C   UNL d   1     -38.341  13.520  19.981  0.00  0.00     0.019 A 
ATOM      9  C   UNL d   1     -38.383  13.632  21.402  0.00  0.00     0.000 A 
ATOM     10  C   UNL d   1     -38.034  13.334  20.725  0.00  0.00     0.002 A 
ENDROOT
BRANCH   1  11
ATOM     11  C   UNL d   1     -40.372  15.097  21.212  0.00  0.00     0.297 C 
ATOM     12  N   UNL d   1     -41.063  14.715  21.424  0.00  0.00    -0.104 NA
ATOM     13  O   UNL d   1     -39.950  15.736  21.539  0.00  0.00    -0.264 OA
BRANCH  12  14
ATOM     14  N   UNL d   1     -41.335  14.088  20.971  0.00  0.00    -0.118 NA
BRANCH  14  15
ATOM     15  C   UNL d   1     -42.032  13.688  21.184  0.00  0.00     0.215 A 
ATOM     16  N   UNL d   1     -42.077  12.991  21.612  0.00  0.00    -0.219 NA
ATOM     17  C   UNL d   1     -42.865  12.783  21.701  0.00  0.00     0.090 A 
ATOM     18  C   UNL d   1     -43.316  13.368  21.318  0.00  0.00     0.050 A 
ATOM     19  C   UNL d   1     -43.237  12.154  22.071  0.00  0.00     0.018 A 
ATOM     20  C   UNL d   1     -44.140  13.322  21.306  0.00  0.00     0.008 A 
ATOM     21  S   UNL d   1     -42.799  13.921  21.002  0.00  0.00    -0.045 SA
ATOM     22  C   UNL d   1     -44.506  12.678  21.685  0.00  0.00     0.001 A 
ATOM     23  C   UNL d   1     -44.060  12.100  22.063  0.00  0.00     0.002 A 
ATOM     24  C   UNL d   1     -42.784  11.573  22.451  0.00  0.00     0.002 C 
ENDBRANCH  14  15
ENDBRANCH  12  14
ENDBRANCH   1  11
BRANCH   3  25
ATOM     25  C   UNL d   1     -40.275  14.863  18.366  0.00  0.00     0.047 A 
ATOM     26  S   UNL d   1     -40.163  15.617  18.049  0.00  0.00    -0.085 SA
ATOM     27  C   UNL d   1     -40.525  15.648  17.307  0.00  0.00     0.035 A 
ATOM     28  C   UNL d   1     -40.852  14.925  17.174  0.00  0.00     0.007 A 
ATOM     29  C   UNL d   1     -40.707  14.424  17.823  0.00  0.00     0.009 A 
ENDBRANCH   3  25
TORSDOF 4
ENDMDL
