MODEL 1
REMARK VINA RESULT:      -7.5      0.000      0.000
REMARK  4 active torsions:
REMARK  status: ('A' for Active; 'I' for Inactive)
REMARK    1  A    between atoms: S_9  and  C_1 
REMARK       I    between atoms: N_4  and  C_5 
REMARK    2  A    between atoms: C_5  and  C_13 
REMARK    3  A    between atoms: C_8  and  C_10 
REMARK    4  A    between atoms: C_13  and  S_9 
ROOT
ATOM      1  N   UNL d   1      49.617  34.806  52.529  0.00  0.00    -0.272 N 
ATOM      2  C   UNL d   1      50.268  34.396  52.369  0.00  0.00     0.271 C 
ATOM      3  C   UNL d   1      48.284  35.660  52.890  0.00  0.00     0.062 A 
ATOM      4  C   UNL d   1      49.519  35.140  53.244  0.00  0.00     0.083 A 
ATOM      5  C   UNL d   1      48.992  34.928  51.990  0.00  0.00     0.083 A 
ATOM      6  O   UNL d   1      50.356  34.074  51.671  0.00  0.00    -0.266 OA
ATOM      7  C   UNL d   1      48.870  35.565  53.445  0.00  0.00     0.024 A 
ATOM      8  C   UNL d   1      48.324  35.346  52.146  0.00  0.00     0.024 A 
ENDROOT
BRANCH   2   9
ATOM      9  C   UNL d   1      50.871  34.291  52.919  0.00  0.00     0.098 C 
BRANCH   9  10
ATOM     10  S   UNL d   1      51.578  33.921  52.643  0.00  0.00    -0.056 SA
BRANCH  10  11
ATOM     11  C   UNL d   1      52.173  33.790  53.180  0.00  0.00     0.141 A 
ATOM     12  N   UNL d   1      52.487  34.347  53.673  0.00  0.00    -0.232 NA
ATOM     13  C   UNL d   1      53.080  33.896  54.102  0.00  0.00     0.088 A 
ATOM     14  C   UNL d   1      53.612  34.222  54.730  0.00  0.00     0.020 A 
ATOM     15  C   UNL d   1      53.097  33.109  53.855  0.00  0.00     0.049 A 
ATOM     16  C   UNL d   1      54.155  33.700  55.086  0.00  0.00     0.002 A 
ATOM     17  C   UNL d   1      54.184  32.863  54.833  0.00  0.00     0.001 A 
ATOM     18  C   UNL d   1      53.664  32.599  54.238  0.00  0.00     0.008 A 
ATOM     19  S   UNL d   1      52.539  33.046  53.288  0.00  0.00    -0.060 SA
ENDBRANCH  10  11
ENDBRANCH   9  10
ENDBRANCH   2   9
BRANCH   3  20
ATOM     20  C   UNL d   1      47.585  36.118  53.106  0.00  0.00     0.297 C 
ATOM     21  O   UNL d   1      47.252  35.964  53.821  0.00  0.00    -0.264 OA
ATOM     22  N   UNL d   1      47.324  36.660  52.579  0.00  0.00    -0.102 N 
ENDBRANCH   3  20
TORSDOF 4
ENDMDL
MODEL 2
REMARK VINA RESULT:      -7.3      1.625      5.200
REMARK  4 active torsions:
REMARK  status: ('A' for Active; 'I' for Inactive)
REMARK    1  A    between atoms: S_9  and  C_1 
REMARK       I    between atoms: N_4  and  C_5 
REMARK    2  A    between atoms: C_5  and  C_13 
REMARK    3  A    between atoms: C_8  and  C_10 
REMARK    4  A    between atoms: C_13  and  S_9 
ROOT
ATOM      1  N   UNL d   1      52.590  33.515  53.425  0.00  0.00    -0.272 N 
ATOM      2  C   UNL d   1      51.996  33.519  52.911  0.00  0.00     0.271 C 
ATOM      3  C   UNL d   1      53.804  33.530  54.504  0.00  0.00     0.062 A 
ATOM      4  C   UNL d   1      52.569  33.983  54.067  0.00  0.00     0.083 A 
ATOM      5  C   UNL d   1      53.274  33.041  53.352  0.00  0.00     0.083 A 
ATOM      6  O   UNL d   1      52.024  33.060  52.289  0.00  0.00    -0.266 OA
ATOM      7  C   UNL d   1      53.155  34.007  54.613  0.00  0.00     0.024 A 
ATOM      8  C   UNL d   1      53.885  33.031  53.872  0.00  0.00     0.024 A 
ENDROOT
BRANCH   2   9
ATOM      9  C   UNL d   1      51.333  33.996  53.006  0.00  0.00     0.098 C 
BRANCH   9  10
ATOM     10  S   UNL d   1      50.760  33.981  52.385  0.00  0.00    -0.056 SA
BRANCH  10  11
ATOM     11  C   UNL d   1      50.090  34.431  52.475  0.00  0.00     0.141 A 
ATOM     12  N   UNL d   1      49.891  34.844  53.140  0.00  0.00    -0.232 NA
ATOM     13  C   UNL d   1      49.144  35.204  52.914  0.00  0.00     0.088 A 
ATOM     14  C   UNL d   1      48.654  35.730  53.431  0.00  0.00     0.020 A 
ATOM     15  C   UNL d   1      48.931  34.998  52.144  0.00  0.00     0.049 A 
ATOM     16  C   UNL d   1      47.944  36.029  53.115  0.00  0.00     0.002 A 
ATOM     17  C   UNL d   1      47.706  35.818  52.301  0.00  0.00     0.001 A 
ATOM     18  C   UNL d   1      48.198  35.320  51.849  0.00  0.00     0.008 A 
ATOM     19  S   UNL d   1      49.514  34.523  51.876  0.00  0.00    -0.060 SA
ENDBRANCH  10  11
ENDBRANCH   9  10
ENDBRANCH   2   9
BRANCH   3  20
ATOM     20  C   UNL d   1      54.435  33.556  55.092  0.00  0.00     0.297 C 
ATOM     21  O   UNL d   1      54.936  34.184  55.065  0.00  0.00    -0.264 OA
ATOM     22  N   UNL d   1      54.473  32.953  55.617  0.00  0.00    -0.102 N 
ENDBRANCH   3  20
TORSDOF 4
ENDMDL
MODEL 3
REMARK VINA RESULT:      -7.2      2.139      5.526
REMARK  4 active torsions:
REMARK  status: ('A' for Active; 'I' for Inactive)
REMARK    1  A    between atoms: S_9  and  C_1 
REMARK       I    between atoms: N_4  and  C_5 
REMARK    2  A    between atoms: C_5  and  C_13 
REMARK    3  A    between atoms: C_8  and  C_10 
REMARK    4  A    between atoms: C_13  and  S_9 
ROOT
ATOM      1  N   UNL d   1      52.698  32.505  53.266  0.00  0.00    -0.272 N 
ATOM      2  C   UNL d   1      52.413  33.234  53.190  0.00  0.00     0.271 C 
ATOM      3  C   UNL d   1      53.262  30.989  53.407  0.00  0.00     0.062 A 
ATOM      4  C   UNL d   1      52.305  31.886  52.959  0.00  0.00     0.083 A 
ATOM      5  C   UNL d   1      53.410  32.316  53.659  0.00  0.00     0.083 A 
ATOM      6  O   UNL d   1      52.801  33.831  53.493  0.00  0.00    -0.266 OA
ATOM      7  C   UNL d   1      52.564  31.130  53.015  0.00  0.00     0.024 A 
ATOM      8  C   UNL d   1      53.708  31.575  53.741  0.00  0.00     0.024 A 
ENDROOT
BRANCH   2   9
ATOM      9  C   UNL d   1      51.708  33.393  52.798  0.00  0.00     0.098 C 
BRANCH   9  10
ATOM     10  S   UNL d   1      51.373  34.160  52.913  0.00  0.00    -0.056 SA
BRANCH  10  11
ATOM     11  C   UNL d   1      50.674  34.330  52.535  0.00  0.00     0.141 A 
ATOM     12  N   UNL d   1      50.512  34.171  51.760  0.00  0.00    -0.232 NA
ATOM     13  C   UNL d   1      49.709  34.468  51.678  0.00  0.00     0.088 A 
ATOM     14  C   UNL d   1      49.230  34.443  50.934  0.00  0.00     0.020 A 
ATOM     15  C   UNL d   1      49.431  34.784  52.388  0.00  0.00     0.049 A 
ATOM     16  C   UNL d   1      48.460  34.759  50.960  0.00  0.00     0.002 A 
ATOM     17  C   UNL d   1      48.153  35.098  51.705  0.00  0.00     0.001 A 
ATOM     18  C   UNL d   1      48.638  35.100  52.382  0.00  0.00     0.008 A 
ATOM     19  S   UNL d   1      50.026  34.699  52.913  0.00  0.00    -0.060 SA
ENDBRANCH  10  11
ENDBRANCH   9  10
ENDBRANCH   2   9
BRANCH   3  20
ATOM     20  C   UNL d   1      53.540  30.174  53.468  0.00  0.00     0.297 C 
ATOM     21  O   UNL d   1      54.328  30.048  53.373  0.00  0.00    -0.264 OA
ATOM     22  N   UNL d   1      52.993  29.609  53.614  0.00  0.00    -0.102 N 
ENDBRANCH   3  20
TORSDOF 4
ENDMDL
MODEL 4
REMARK VINA RESULT:      -6.6      1.332      1.790
REMARK  4 active torsions:
REMARK  status: ('A' for Active; 'I' for Inactive)
REMARK    1  A    between atoms: S_9  and  C_1 
REMARK       I    between atoms: N_4  and  C_5 
REMARK    2  A    between atoms: C_5  and  C_13 
REMARK    3  A    between atoms: C_8  and  C_10 
REMARK    4  A    between atoms: C_13  and  S_9 
ROOT
ATOM      1  N   UNL d   1      49.699  34.782  52.575  0.00  0.00    -0.272 N 
ATOM      2  C   UNL d   1      50.356  34.636  52.981  0.00  0.00     0.271 C 
ATOM      3  C   UNL d   1      48.351  35.062  51.715  0.00  0.00     0.062 A 
ATOM      4  C   UNL d   1      49.537  34.373  51.913  0.00  0.00     0.083 A 
ATOM      5  C   UNL d   1      49.132  35.357  52.788  0.00  0.00     0.083 A 
ATOM      6  O   UNL d   1      50.507  35.039  53.624  0.00  0.00    -0.266 OA
ATOM      7  C   UNL d   1      48.878  34.493  51.473  0.00  0.00     0.024 A 
ATOM      8  C   UNL d   1      48.459  35.512  52.379  0.00  0.00     0.024 A 
ENDROOT
BRANCH   2   9
ATOM      9  C   UNL d   1      50.900  34.064  52.750  0.00  0.00     0.098 C 
BRANCH   9  10
ATOM     10  S   UNL d   1      51.676  34.119  53.081  0.00  0.00    -0.056 SA
BRANCH  10  11
ATOM     11  C   UNL d   1      52.110  33.436  53.150  0.00  0.00     0.141 A 
ATOM     12  N   UNL d   1      51.913  32.724  52.823  0.00  0.00    -0.232 NA
ATOM     13  C   UNL d   1      52.563  32.222  53.077  0.00  0.00     0.088 A 
ATOM     14  C   UNL d   1      52.650  31.363  52.881  0.00  0.00     0.020 A 
ATOM     15  C   UNL d   1      53.107  32.642  53.533  0.00  0.00     0.049 A 
ATOM     16  C   UNL d   1      53.320  30.966  53.178  0.00  0.00     0.002 A 
ATOM     17  C   UNL d   1      53.904  31.399  53.662  0.00  0.00     0.001 A 
ATOM     18  C   UNL d   1      53.782  32.207  53.822  0.00  0.00     0.008 A 
ATOM     19  S   UNL d   1      52.827  33.388  53.576  0.00  0.00    -0.060 SA
ENDBRANCH  10  11
ENDBRANCH   9  10
ENDBRANCH   2   9
BRANCH   3  20
ATOM     20  C   UNL d   1      47.642  35.192  51.241  0.00  0.00     0.297 C 
ATOM     21  O   UNL d   1      47.476  34.648  50.673  0.00  0.00    -0.264 OA
ATOM     22  N   UNL d   1      47.205  35.842  51.404  0.00  0.00    -0.102 N 
ENDBRANCH   3  20
TORSDOF 4
ENDMDL
MODEL 5
REMARK VINA RESULT:      -6.5      2.328      3.284
REMARK  4 active torsions:
REMARK  status: ('A' for Active; 'I' for Inactive)
REMARK    1  A    between atoms: S_9  and  C_1 
REMARK       I    between atoms: N_4  and  C_5 
REMARK    2  A    between atoms: C_5  and  C_13 
REMARK    3  A    between atoms: C_8  and  C_10 
REMARK    4  A    between atoms: C_13  and  S_9 
ROOT
ATOM      1  N   UNL d   1      51.922  33.447  52.920  0.00  0.00    -0.272 N 
ATOM      2  C   UNL d   1      52.576  33.019  53.006  0.00  0.00     0.271 C 
ATOM      3  C   UNL d   1      50.554  34.306  52.755  0.00  0.00     0.062 A 
ATOM      4  C   UNL d   1      51.218  33.155  53.148  0.00  0.00     0.083 A 
ATOM      5  C   UNL d   1      51.901  34.216  52.595  0.00  0.00     0.083 A 
ATOM      6  O   UNL d   1      53.257  33.310  52.782  0.00  0.00    -0.266 OA
ATOM      7  C   UNL d   1      50.531  33.560  53.076  0.00  0.00     0.024 A 
ATOM      8  C   UNL d   1      51.238  34.659  52.504  0.00  0.00     0.024 A 
ENDROOT
BRANCH   2   9
ATOM      9  C   UNL d   1      52.570  32.263  53.329  0.00  0.00     0.098 C 
BRANCH   9  10
ATOM     10  S   UNL d   1      53.294  31.830  53.300  0.00  0.00    -0.056 SA
BRANCH  10  11
ATOM     11  C   UNL d   1      53.314  31.097  53.650  0.00  0.00     0.141 A 
ATOM     12  N   UNL d   1      53.380  30.961  54.443  0.00  0.00    -0.232 NA
ATOM     13  C   UNL d   1      53.371  30.102  54.482  0.00  0.00     0.088 A 
ATOM     14  C   UNL d   1      53.427  29.624  55.225  0.00  0.00     0.020 A 
ATOM     15  C   UNL d   1      53.301  29.768  53.730  0.00  0.00     0.049 A 
ATOM     16  C   UNL d   1      53.409  28.795  55.153  0.00  0.00     0.002 A 
ATOM     17  C   UNL d   1      53.336  28.427  54.363  0.00  0.00     0.001 A 
ATOM     18  C   UNL d   1      53.286  28.916  53.690  0.00  0.00     0.008 A 
ATOM     19  S   UNL d   1      53.267  30.381  53.221  0.00  0.00    -0.060 SA
ENDBRANCH  10  11
ENDBRANCH   9  10
ENDBRANCH   2   9
BRANCH   3  20
ATOM     20  C   UNL d   1      49.814  34.743  52.678  0.00  0.00     0.297 C 
ATOM     21  O   UNL d   1      49.619  35.244  53.275  0.00  0.00    -0.264 OA
ATOM     22  N   UNL d   1      49.379  34.614  52.018  0.00  0.00    -0.102 N 
ENDBRANCH   3  20
TORSDOF 4
ENDMDL
MODEL 6
REMARK VINA RESULT:      -6.5      3.338      5.549
REMARK  4 active torsions:
REMARK  status: ('A' for Active; 'I' for Inactive)
REMARK    1  A    between atoms: S_9  and  C_1 
REMARK       I    between atoms: N_4  and  C_5 
REMARK    2  A    between atoms: C_5  and  C_13 
REMARK    3  A    between atoms: C_8  and  C_10 
REMARK    4  A    between atoms: C_13  and  S_9 
ROOT
ATOM      1  N   UNL d   1      53.045  30.600  53.415  0.00  0.00    -0.272 N 
ATOM      2  C   UNL d   1      52.949  31.260  52.999  0.00  0.00     0.271 C 
ATOM      3  C   UNL d   1      53.257  29.254  54.298  0.00  0.00     0.062 A 
ATOM      4  C   UNL d   1      53.373  30.626  54.139  0.00  0.00     0.083 A 
ATOM      5  C   UNL d   1      52.823  29.840  53.151  0.00  0.00     0.083 A 
ATOM      6  O   UNL d   1      52.629  31.226  52.295  0.00  0.00    -0.266 OA
ATOM      7  C   UNL d   1      53.487  29.976  54.593  0.00  0.00     0.024 A 
ATOM      8  C   UNL d   1      52.918  29.162  53.570  0.00  0.00     0.024 A 
ENDROOT
BRANCH   2   9
ATOM      9  C   UNL d   1      53.176  31.998  53.282  0.00  0.00     0.098 C 
BRANCH   9  10
ATOM     10  S   UNL d   1      52.812  32.672  52.926  0.00  0.00    -0.056 SA
BRANCH  10  11
ATOM     11  C   UNL d   1      52.859  33.382  53.319  0.00  0.00     0.141 A 
ATOM     12  N   UNL d   1      53.488  33.628  53.762  0.00  0.00    -0.232 NA
ATOM     13  C   UNL d   1      53.226  34.401  54.033  0.00  0.00     0.088 A 
ATOM     14  C   UNL d   1      53.696  34.945  54.551  0.00  0.00     0.020 A 
ATOM     15  C   UNL d   1      52.473  34.581  53.749  0.00  0.00     0.049 A 
ATOM     16  C   UNL d   1      53.350  35.674  54.757  0.00  0.00     0.002 A 
ATOM     17  C   UNL d   1      52.552  35.878  54.463  0.00  0.00     0.001 A 
ATOM     18  C   UNL d   1      52.147  35.335  53.978  0.00  0.00     0.008 A 
ATOM     19  S   UNL d   1      52.249  33.953  53.311  0.00  0.00    -0.060 SA
ENDBRANCH  10  11
ENDBRANCH   9  10
ENDBRANCH   2   9
BRANCH   3  20
ATOM     20  C   UNL d   1      53.380  28.554  54.787  0.00  0.00     0.297 C 
ATOM     21  O   UNL d   1      53.554  27.867  54.408  0.00  0.00    -0.264 OA
ATOM     22  N   UNL d   1      53.311  28.642  55.580  0.00  0.00    -0.102 N 
ENDBRANCH   3  20
TORSDOF 4
ENDMDL
MODEL 7
REMARK VINA RESULT:      -6.3      3.113      4.214
REMARK  4 active torsions:
REMARK  status: ('A' for Active; 'I' for Inactive)
REMARK    1  A    between atoms: S_9  and  C_1 
REMARK       I    between atoms: N_4  and  C_5 
REMARK    2  A    between atoms: C_5  and  C_13 
REMARK    3  A    between atoms: C_8  and  C_10 
REMARK    4  A    between atoms: C_13  and  S_9 
ROOT
ATOM      1  N   UNL d   1      52.797  33.611  53.383  0.00  0.00    -0.272 N 
ATOM      2  C   UNL d   1      52.739  32.901  53.052  0.00  0.00     0.271 C 
ATOM      3  C   UNL d   1      52.935  35.066  54.092  0.00  0.00     0.062 A 
ATOM      4  C   UNL d   1      53.191  33.704  54.067  0.00  0.00     0.083 A 
ATOM      5  C   UNL d   1      52.466  34.308  53.065  0.00  0.00     0.083 A 
ATOM      6  O   UNL d   1      52.353  32.819  52.386  0.00  0.00    -0.266 OA
ATOM      7  C   UNL d   1      53.272  34.411  54.435  0.00  0.00     0.024 A 
ATOM      8  C   UNL d   1      52.521  35.037  53.397  0.00  0.00     0.024 A 
ENDROOT
BRANCH   2   9
ATOM      9  C   UNL d   1      53.074  32.228  53.386  0.00  0.00     0.098 C 
BRANCH   9  10
ATOM     10  S   UNL d   1      52.907  31.491  53.009  0.00  0.00    -0.056 SA
BRANCH  10  11
ATOM     11  C   UNL d   1      53.027  30.810  53.436  0.00  0.00     0.141 A 
ATOM     12  N   UNL d   1      53.223  30.779  54.219  0.00  0.00    -0.232 NA
ATOM     13  C   UNL d   1      53.274  29.932  54.359  0.00  0.00     0.088 A 
ATOM     14  C   UNL d   1      53.474  29.555  55.135  0.00  0.00     0.020 A 
ATOM     15  C   UNL d   1      53.110  29.503  53.674  0.00  0.00     0.049 A 
ATOM     16  C   UNL d   1      53.498  28.723  55.165  0.00  0.00     0.002 A 
ATOM     17  C   UNL d   1      53.327  28.256  54.446  0.00  0.00     0.001 A 
ATOM     18  C   UNL d   1      53.142  28.652  53.737  0.00  0.00     0.008 A 
ATOM     19  S   UNL d   1      52.959  30.044  53.108  0.00  0.00    -0.060 SA
ENDBRANCH  10  11
ENDBRANCH   9  10
ENDBRANCH   2   9
BRANCH   3  20
ATOM     20  C   UNL d   1      53.022  35.827  54.488  0.00  0.00     0.297 C 
ATOM     21  O   UNL d   1      53.703  36.233  54.356  0.00  0.00    -0.264 OA
ATOM     22  N   UNL d   1      52.419  36.069  54.954  0.00  0.00    -0.102 N 
ENDBRANCH   3  20
TORSDOF 4
ENDMDL
MODEL 8
REMARK VINA RESULT:      -5.6      1.693      5.250
REMARK  4 active torsions:
REMARK  status: ('A' for Active; 'I' for Inactive)
REMARK    1  A    between atoms: S_9  and  C_1 
REMARK       I    between atoms: N_4  and  C_5 
REMARK    2  A    between atoms: C_5  and  C_13 
REMARK    3  A    between atoms: C_8  and  C_10 
REMARK    4  A    between atoms: C_13  and  S_9 
ROOT
ATOM      1  N   UNL d   1      50.883  34.130  52.595  0.00  0.00    -0.272 N 
ATOM      2  C   UNL d   1      50.243  34.423  52.244  0.00  0.00     0.271 C 
ATOM      3  C   UNL d   1      52.191  33.533  53.348  0.00  0.00     0.062 A 
ATOM      4  C   UNL d   1      50.939  34.125  53.388  0.00  0.00     0.083 A 
ATOM      5  C   UNL d   1      51.538  33.810  52.189  0.00  0.00     0.083 A 
ATOM      6  O   UNL d   1      50.195  34.424  51.472  0.00  0.00    -0.266 OA
ATOM      7  C   UNL d   1      51.575  33.836  53.781  0.00  0.00     0.024 A 
ATOM      8  C   UNL d   1      52.194  33.509  52.539  0.00  0.00     0.024 A 
ENDROOT
BRANCH   2   9
ATOM      9  C   UNL d   1      49.610  34.733  52.668  0.00  0.00     0.098 C 
BRANCH   9  10
ATOM     10  S   UNL d   1      49.060  35.210  52.238  0.00  0.00    -0.056 SA
BRANCH  10  11
ATOM     11  C   UNL d   1      48.446  35.546  52.650  0.00  0.00     0.141 A 
ATOM     12  N   UNL d   1      48.482  35.802  53.415  0.00  0.00    -0.232 NA
ATOM     13  C   UNL d   1      47.685  36.097  53.545  0.00  0.00     0.088 A 
ATOM     14  C   UNL d   1      47.390  36.453  54.300  0.00  0.00     0.020 A 
ATOM     15  C   UNL d   1      47.217  36.009  52.870  0.00  0.00     0.049 A 
ATOM     16  C   UNL d   1      46.598  36.709  54.322  0.00  0.00     0.002 A 
ATOM     17  C   UNL d   1      46.091  36.622  53.615  0.00  0.00     0.001 A 
ATOM     18  C   UNL d   1      46.411  36.282  52.925  0.00  0.00     0.008 A 
ATOM     19  S   UNL d   1      47.687  35.671  52.322  0.00  0.00    -0.060 SA
ENDBRANCH  10  11
ENDBRANCH   9  10
ENDBRANCH   2   9
BRANCH   3  20
ATOM     20  C   UNL d   1      52.876  33.221  53.771  0.00  0.00     0.297 C 
ATOM     21  O   UNL d   1      53.011  32.431  53.718  0.00  0.00    -0.264 OA
ATOM     22  N   UNL d   1      53.321  33.743  54.183  0.00  0.00    -0.102 N 
ENDBRANCH   3  20
TORSDOF 4
ENDMDL
MODEL 9
REMARK VINA RESULT:      -5.5      9.735     10.215
REMARK  4 active torsions:
REMARK  status: ('A' for Active; 'I' for Inactive)
REMARK    1  A    between atoms: S_9  and  C_1 
REMARK       I    between atoms: N_4  and  C_5 
REMARK    2  A    between atoms: C_5  and  C_13 
REMARK    3  A    between atoms: C_8  and  C_10 
REMARK    4  A    between atoms: C_13  and  S_9 
ROOT
ATOM      1  N   UNL d   1      44.883  29.208  57.521  0.00  0.00    -0.272 N 
ATOM      2  C   UNL d   1      45.026  28.484  57.791  0.00  0.00     0.271 C 
ATOM      3  C   UNL d   1      44.580  30.691  56.935  0.00  0.00     0.062 A 
ATOM      4  C   UNL d   1      44.658  29.318  56.767  0.00  0.00     0.083 A 
ATOM      5  C   UNL d   1      44.949  29.903  57.979  0.00  0.00     0.083 A 
ATOM      6  O   UNL d   1      45.244  28.385  58.527  0.00  0.00    -0.266 OA
ATOM      7  C   UNL d   1      44.504  30.040  56.455  0.00  0.00     0.024 A 
ATOM      8  C   UNL d   1      44.805  30.646  57.710  0.00  0.00     0.024 A 
ENDROOT
BRANCH   2   9
ATOM      9  C   UNL d   1      44.953  27.814  57.320  0.00  0.00     0.098 C 
BRANCH   9  10
ATOM     10  S   UNL d   1      45.135  27.072  57.680  0.00  0.00    -0.056 SA
BRANCH  10  11
ATOM     11  C   UNL d   1      44.984  26.396  57.256  0.00  0.00     0.141 A 
ATOM     12  N   UNL d   1      45.102  26.309  56.462  0.00  0.00    -0.232 NA
ATOM     13  C   UNL d   1      44.851  25.497  56.330  0.00  0.00     0.088 A 
ATOM     14  C   UNL d   1      44.856  25.083  55.547  0.00  0.00     0.020 A 
ATOM     15  C   UNL d   1      44.601  25.141  57.031  0.00  0.00     0.049 A 
ATOM     16  C   UNL d   1      44.592  24.293  55.527  0.00  0.00     0.002 A 
ATOM     17  C   UNL d   1      44.324  23.903  56.262  0.00  0.00     0.001 A 
ATOM     18  C   UNL d   1      44.337  24.331  56.977  0.00  0.00     0.008 A 
ATOM     19  S   UNL d   1      44.684  25.695  57.599  0.00  0.00    -0.060 SA
ENDBRANCH  10  11
ENDBRANCH   9  10
ENDBRANCH   2   9
BRANCH   3  20
ATOM     20  C   UNL d   1      44.414  31.469  56.599  0.00  0.00     0.297 C 
ATOM     21  O   UNL d   1      44.345  31.517  55.800  0.00  0.00    -0.264 OA
ATOM     22  N   UNL d   1      44.340  32.081  57.109  0.00  0.00    -0.102 N 
ENDBRANCH   3  20
TORSDOF 4
ENDMDL
