MODEL 1
REMARK VINA RESULT:      -4.6      0.000      0.000
REMARK  5 active torsions:
REMARK  status: ('A' for Active; 'I' for Inactive)
REMARK       I    between atoms: N_3  and  C_1 
REMARK    1  A    between atoms: C_6  and  C_1 
REMARK    2  A    between atoms: C_2  and  S_4 
REMARK    3  A    between atoms: C_7  and  N_3 
REMARK    4  A    between atoms: S_4  and  C_8 
REMARK    5  A    between atoms: C_15  and  C_6 
ROOT
ATOM      1  C   UNL d   1     -41.613-122.087 -51.079  0.00  0.00     0.085 A 
ATOM      2  C   UNL d   1     -42.147-123.236 -50.059  0.00  0.00     0.034 A 
ATOM      3  C   UNL d   1     -42.371-122.027 -50.759  0.00  0.00     0.020 A 
ATOM      4  C   UNL d   1     -41.123-122.712 -50.895  0.00  0.00     0.020 A 
ATOM      5  C   UNL d   1     -41.383-123.291 -50.385  0.00  0.00     0.008 A 
ATOM      6  C   UNL d   1     -42.637-122.608 -50.245  0.00  0.00     0.008 A 
ENDROOT
BRANCH   1   7
ATOM      7  N   UNL d   1     -41.344-121.504 -51.596  0.00  0.00    -0.208 NA
ATOM      8  C   UNL d   1     -41.385-121.628 -52.413  0.00  0.00     0.279 C 
ATOM      9  O   UNL d   1     -41.123-121.059 -52.925  0.00  0.00    -0.265 OA
BRANCH   8  10
ATOM     10  C   UNL d   1     -41.694-122.330 -52.698  0.00  0.00     0.062 C 
BRANCH  10  11
ATOM     11  C   UNL d   1     -41.761-122.448 -53.490  0.00  0.00     0.005 A 
ATOM     12  C   UNL d   1     -42.241-121.952 -53.951  0.00  0.00     0.000 A 
ATOM     13  C   UNL d   1     -42.313-122.073 -54.779  0.00  0.00     0.000 A 
ATOM     14  C   UNL d   1     -41.893-122.705 -55.139  0.00  0.00     0.000 A 
ATOM     15  C   UNL d   1     -41.407-123.207 -54.677  0.00  0.00     0.000 A 
ATOM     16  C   UNL d   1     -41.346-123.073 -53.854  0.00  0.00     0.000 A 
ENDBRANCH  10  11
ENDBRANCH   8  10
ENDBRANCH   1   7
BRANCH   2  17
ATOM     17  S   UNL d   1     -42.408-123.817 -49.548  0.00  0.00    -0.028 SA
BRANCH  17  18
ATOM     18  C   UNL d   1     -42.447-123.677 -48.742  0.00  0.00     0.309 C 
ATOM     19  F   UNL d   1     -41.764-123.682 -48.298  0.00  0.00    -0.165 F 
ATOM     20  F   UNL d   1     -43.157-123.535 -48.381  0.00  0.00    -0.165 F 
ENDBRANCH  17  18
ENDBRANCH   2  17
TORSDOF 5
ENDMDL
MODEL 2
REMARK VINA RESULT:      -3.9      2.803      4.488
REMARK  5 active torsions:
REMARK  status: ('A' for Active; 'I' for Inactive)
REMARK       I    between atoms: N_3  and  C_1 
REMARK    1  A    between atoms: C_6  and  C_1 
REMARK    2  A    between atoms: C_2  and  S_4 
REMARK    3  A    between atoms: C_7  and  N_3 
REMARK    4  A    between atoms: S_4  and  C_8 
REMARK    5  A    between atoms: C_15  and  C_6 
ROOT
ATOM      1  C   UNL d   1     -41.402-121.901 -52.676  0.00  0.00     0.085 A 
ATOM      2  C   UNL d   1     -41.949-122.496 -54.087  0.00  0.00     0.034 A 
ATOM      3  C   UNL d   1     -41.190-122.664 -52.905  0.00  0.00     0.020 A 
ATOM      4  C   UNL d   1     -41.881-121.435 -53.143  0.00  0.00     0.020 A 
ATOM      5  C   UNL d   1     -42.159-121.727 -53.851  0.00  0.00     0.008 A 
ATOM      6  C   UNL d   1     -41.467-122.962 -53.617  0.00  0.00     0.008 A 
ENDROOT
BRANCH   1   7
ATOM      7  N   UNL d   1     -41.123-121.601 -51.960  0.00  0.00    -0.208 NA
ATOM      8  C   UNL d   1     -41.397-121.918 -51.246  0.00  0.00     0.279 C 
ATOM      9  O   UNL d   1     -41.128-121.627 -50.541  0.00  0.00    -0.265 OA
BRANCH   8  10
ATOM     10  C   UNL d   1     -41.943-122.528 -51.261  0.00  0.00     0.062 C 
BRANCH  10  11
ATOM     11  C   UNL d   1     -42.167-122.883 -50.577  0.00  0.00     0.005 A 
ATOM     12  C   UNL d   1     -41.662-123.420 -50.196  0.00  0.00     0.000 A 
ATOM     13  C   UNL d   1     -41.894-123.794 -49.479  0.00  0.00     0.000 A 
ATOM     14  C   UNL d   1     -42.647-123.618 -49.150  0.00  0.00     0.000 A 
ATOM     15  C   UNL d   1     -43.159-123.076 -49.533  0.00  0.00     0.000 A 
ATOM     16  C   UNL d   1     -42.913-122.713 -50.244  0.00  0.00     0.000 A 
ENDBRANCH  10  11
ENDBRANCH   8  10
ENDBRANCH   1   7
BRANCH   2  17
ATOM     17  S   UNL d   1     -42.228-122.788 -54.797  0.00  0.00    -0.028 SA
BRANCH  17  18
ATOM     18  C   UNL d   1     -42.133-122.363 -55.490  0.00  0.00     0.309 C 
ATOM     19  F   UNL d   1     -41.402-122.332 -55.848  0.00  0.00    -0.165 F 
ATOM     20  F   UNL d   1     -42.759-121.972 -55.823  0.00  0.00    -0.165 F 
ENDBRANCH  17  18
ENDBRANCH   2  17
TORSDOF 5
ENDMDL
MODEL 3
REMARK VINA RESULT:      -3.4      1.429      1.900
REMARK  5 active torsions:
REMARK  status: ('A' for Active; 'I' for Inactive)
REMARK       I    between atoms: N_3  and  C_1 
REMARK    1  A    between atoms: C_6  and  C_1 
REMARK    2  A    between atoms: C_2  and  S_4 
REMARK    3  A    between atoms: C_7  and  N_3 
REMARK    4  A    between atoms: S_4  and  C_8 
REMARK    5  A    between atoms: C_15  and  C_6 
ROOT
ATOM      1  C   UNL d   1     -41.329-123.326 -52.425  0.00  0.00     0.085 A 
ATOM      2  C   UNL d   1     -41.734-122.532 -51.066  0.00  0.00     0.034 A 
ATOM      3  C   UNL d   1     -41.124-122.532 -52.342  0.00  0.00     0.020 A 
ATOM      4  C   UNL d   1     -41.732-123.724 -51.839  0.00  0.00     0.020 A 
ATOM      5  C   UNL d   1     -41.938-123.333 -51.156  0.00  0.00     0.008 A 
ATOM      6  C   UNL d   1     -41.329-122.134 -51.655  0.00  0.00     0.008 A 
ENDROOT
BRANCH   1   7
ATOM      7  N   UNL d   1     -41.123-123.728 -53.116  0.00  0.00    -0.208 NA
ATOM      8  C   UNL d   1     -41.324-123.409 -53.853  0.00  0.00     0.279 C 
ATOM      9  O   UNL d   1     -41.124-123.799 -54.533  0.00  0.00    -0.265 OA
BRANCH   8  10
ATOM     10  C   UNL d   1     -41.727-122.697 -53.886  0.00  0.00     0.062 C 
BRANCH  10  11
ATOM     11  C   UNL d   1     -41.994-122.419 -54.591  0.00  0.00     0.005 A 
ATOM     12  C   UNL d   1     -41.583-121.820 -54.990  0.00  0.00     0.000 A 
ATOM     13  C   UNL d   1     -41.859-121.526 -55.728  0.00  0.00     0.000 A 
ATOM     14  C   UNL d   1     -42.561-121.848 -56.059  0.00  0.00     0.000 A 
ATOM     15  C   UNL d   1     -42.978-122.454 -55.659  0.00  0.00     0.000 A 
ATOM     16  C   UNL d   1     -42.689-122.734 -54.926  0.00  0.00     0.000 A 
ENDBRANCH  10  11
ENDBRANCH   8  10
ENDBRANCH   1   7
BRANCH   2  17
ATOM     17  S   UNL d   1     -41.941-122.139 -50.380  0.00  0.00    -0.028 SA
BRANCH  17  18
ATOM     18  C   UNL d   1     -42.643-122.312 -49.995  0.00  0.00     0.309 C 
ATOM     19  F   UNL d   1     -43.336-121.964 -50.246  0.00  0.00    -0.165 F 
ATOM     20  F   UNL d   1     -42.656-122.823 -49.368  0.00  0.00    -0.165 F 
ENDBRANCH  17  18
ENDBRANCH   2  17
TORSDOF 5
ENDMDL
