MODEL 1
REMARK VINA RESULT:      -8.8      0.000      0.000
REMARK  6 active torsions:
REMARK  status: ('A' for Active; 'I' for Inactive)
REMARK    1  A    between atoms: N_11  and  C_3 
REMARK    2  A    between atoms: C_10  and  C_5 
REMARK    3  A    between atoms: C_17  and  N_11 
REMARK    4  A    between atoms: N_13  and  C_18 
REMARK    5  A    between atoms: C_16  and  C_17 
REMARK    6  A    between atoms: C_18  and  C_16 
ROOT
ATOM      1  N   UNL d   1     -48.141  12.253  23.234  0.00  0.00    -0.184 N 
ATOM      2  C   UNL d   1     -48.671  12.852  23.009  0.00  0.00     0.168 A 
ATOM      3  C   UNL d   1     -47.336  12.413  23.236  0.00  0.00     0.217 A 
ATOM      4  N   UNL d   1     -49.226  11.379  23.442  0.00  0.00    -0.162 NA
ATOM      5  C   UNL d   1     -49.468  12.715  23.000  0.00  0.00     0.055 A 
ATOM      6  N   UNL d   1     -48.382  13.596  22.790  0.00  0.00    -0.227 NA
ATOM      7  C   UNL d   1     -47.049  13.146  23.021  0.00  0.00     0.066 A 
ATOM      8  C   UNL d   1     -49.752  11.973  23.218  0.00  0.00     0.104 A 
ATOM      9  C   UNL d   1     -47.575  13.741  22.797  0.00  0.00     0.087 A 
ATOM     10  C   UNL d   1     -46.233  13.287  23.029  0.00  0.00     0.006 A 
ATOM     11  C   UNL d   1     -50.545  11.824  23.214  0.00  0.00     0.023 C 
ATOM     12  C   UNL d   1     -47.291  14.482  22.579  0.00  0.00     0.019 A 
ATOM     13  C   UNL d   1     -45.947  14.041  22.807  0.00  0.00     0.000 A 
ATOM     14  C   UNL d   1     -46.474  14.635  22.583  0.00  0.00     0.002 A 
ENDROOT
BRANCH   3  15
ATOM     15  N   UNL d   1     -46.795  11.808  23.464  0.00  0.00    -0.380 NA
BRANCH  15  16
ATOM     16  C   UNL d   1     -46.314  11.161  23.698  0.00  0.00     0.164 C 
BRANCH  16  17
ATOM     17  C   UNL d   1     -45.577  11.041  23.309  0.00  0.00     0.054 C 
BRANCH  17  18
ATOM     18  C   UNL d   1     -45.001  10.514  23.648  0.00  0.00     0.083 C 
BRANCH  18  19
ATOM     19  N   UNL d   1     -44.198  10.553  23.398  0.00  0.00    -0.300 N 
ATOM     20  C   UNL d   1     -44.043   9.774  23.654  0.00  0.00     0.100 C 
ATOM     21  C   UNL d   1     -43.571  10.996  23.043  0.00  0.00     0.100 C 
ENDBRANCH  18  19
ENDBRANCH  17  18
ENDBRANCH  16  17
ENDBRANCH  15  16
ENDBRANCH   3  15
BRANCH   5  22
ATOM     22  C   UNL d   1     -49.994  13.309  22.776  0.00  0.00     0.004 A 
ATOM     23  C   UNL d   1     -50.275  13.827  23.338  0.00  0.00     0.000 A 
ATOM     24  C   UNL d   1     -50.801  14.422  23.114  0.00  0.00     0.000 A 
ATOM     25  C   UNL d   1     -51.038  14.489  22.332  0.00  0.00     0.000 A 
ATOM     26  C   UNL d   1     -50.749  13.963  21.774  0.00  0.00     0.000 A 
ATOM     27  C   UNL d   1     -50.223  13.368  21.998  0.00  0.00     0.000 A 
ENDBRANCH   5  22
TORSDOF 6
ENDMDL
MODEL 2
REMARK VINA RESULT:      -7.0      1.461      2.519
REMARK  6 active torsions:
REMARK  status: ('A' for Active; 'I' for Inactive)
REMARK    1  A    between atoms: N_11  and  C_3 
REMARK    2  A    between atoms: C_10  and  C_5 
REMARK    3  A    between atoms: C_17  and  N_11 
REMARK    4  A    between atoms: N_13  and  C_18 
REMARK    5  A    between atoms: C_16  and  C_17 
REMARK    6  A    between atoms: C_18  and  C_16 
ROOT
ATOM      1  N   UNL d   1     -47.486  13.744  22.786  0.00  0.00    -0.184 N 
ATOM      2  C   UNL d   1     -48.306  13.861  22.842  0.00  0.00     0.168 A 
ATOM      3  C   UNL d   1     -47.175  13.007  22.973  0.00  0.00     0.217 A 
ATOM      4  N   UNL d   1     -47.329  15.079  22.365  0.00  0.00    -0.162 NA
ATOM      5  C   UNL d   1     -48.633  14.579  22.662  0.00  0.00     0.055 A 
ATOM      6  N   UNL d   1     -48.796  13.239  23.085  0.00  0.00    -0.227 NA
ATOM      7  C   UNL d   1     -47.656  12.393  23.213  0.00  0.00     0.066 A 
ATOM      8  C   UNL d   1     -48.144  15.196  22.421  0.00  0.00     0.104 A 
ATOM      9  C   UNL d   1     -48.470  12.509  23.269  0.00  0.00     0.087 A 
ATOM     10  C   UNL d   1     -47.321  11.658  23.397  0.00  0.00     0.006 A 
ATOM     11  C   UNL d   1     -48.457  15.916  22.238  0.00  0.00     0.023 C 
ATOM     12  C   UNL d   1     -48.959  11.892  23.510  0.00  0.00     0.019 A 
ATOM     13  C   UNL d   1     -47.821  11.033  23.642  0.00  0.00     0.000 A 
ATOM     14  C   UNL d   1     -48.635  11.150  23.698  0.00  0.00     0.002 A 
ENDROOT
BRANCH   3  15
ATOM     15  N   UNL d   1     -46.343  12.884  22.917  0.00  0.00    -0.380 NA
BRANCH  15  16
ATOM     16  C   UNL d   1     -45.509  12.786  22.930  0.00  0.00     0.164 C 
BRANCH  16  17
ATOM     17  C   UNL d   1     -45.086  12.813  22.203  0.00  0.00     0.054 C 
BRANCH  17  18
ATOM     18  C   UNL d   1     -44.319  12.446  22.145  0.00  0.00     0.083 C 
BRANCH  18  19
ATOM     19  N   UNL d   1     -43.741  12.763  21.623  0.00  0.00    -0.300 N 
ATOM     20  C   UNL d   1     -43.186  12.172  21.821  0.00  0.00     0.100 C 
ATOM     21  C   UNL d   1     -43.520  13.354  21.058  0.00  0.00     0.100 C 
ENDBRANCH  18  19
ENDBRANCH  17  18
ENDBRANCH  16  17
ENDBRANCH  15  16
ENDBRANCH   3  15
BRANCH   5  22
ATOM     22  C   UNL d   1     -49.448  14.695  22.718  0.00  0.00     0.004 A 
ATOM     23  C   UNL d   1     -49.898  14.705  22.040  0.00  0.00     0.000 A 
ATOM     24  C   UNL d   1     -50.713  14.821  22.096  0.00  0.00     0.000 A 
ATOM     25  C   UNL d   1     -51.064  14.927  22.830  0.00  0.00     0.000 A 
ATOM     26  C   UNL d   1     -50.602  14.916  23.507  0.00  0.00     0.000 A 
ATOM     27  C   UNL d   1     -49.787  14.799  23.451  0.00  0.00     0.000 A 
ENDBRANCH   5  22
TORSDOF 6
ENDMDL
