MODEL 1
REMARK VINA RESULT:      -0.5      0.000      0.000
REMARK  4 active torsions:
REMARK  status: ('A' for Active; 'I' for Inactive)
REMARK    1  A    between atoms: N_2  and  C_1 
REMARK    2  A    between atoms: C_16  and  N_6 
REMARK    3  A    between atoms: C_14  and  C_7 
REMARK    4  A    between atoms: N_8  and  C_12 
ROOT
ATOM      1  N   UNL d   1     -41.683-121.572 -51.778  0.00  0.00    -0.288 N 
ATOM      2  C   UNL d   1     -41.923-121.914 -51.092  0.00  0.00     0.196 A 
ATOM      3  S   UNL d   1     -41.822-121.376 -50.476  0.00  0.00    -0.092 SA
ATOM      4  C   UNL d   1     -41.425-120.815 -51.622  0.00  0.00     0.268 A 
ATOM      5  C   UNL d   1     -41.509-120.688 -50.818  0.00  0.00     0.093 A 
ATOM      6  O   UNL d   1     -41.125-120.256 -52.179  0.00  0.00    -0.266 OA
ENDROOT
BRANCH   1   7
ATOM      7  C   UNL d   1     -41.721-121.985 -52.498  0.00  0.00     0.139 A 
ATOM      8  C   UNL d   1     -42.031-121.661 -53.200  0.00  0.00     0.296 A 
ATOM      9  N   UNL d   1     -41.974-122.241 -53.804  0.00  0.00    -0.209 N 
ATOM     10  O   UNL d   1     -42.336-120.885 -53.252  0.00  0.00    -0.264 OA
ATOM     11  N   UNL d   1     -41.635-122.910 -53.479  0.00  0.00    -0.238 N 
ATOM     12  C   UNL d   1     -41.477-122.754 -52.669  0.00  0.00     0.102 A 
ATOM     13  C   UNL d   1     -41.474-123.611 -53.860  0.00  0.00     0.120 C 
ATOM     14  C   UNL d   1     -41.135-123.287 -52.140  0.00  0.00     0.022 C 
BRANCH   9  15
ATOM     15  C   UNL d   1     -42.188-122.236 -54.597  0.00  0.00     0.085 A 
ATOM     16  C   UNL d   1     -41.734-121.865 -55.154  0.00  0.00     0.019 A 
ATOM     17  C   UNL d   1     -41.948-121.860 -55.947  0.00  0.00     0.002 A 
ATOM     18  C   UNL d   1     -42.638-122.238 -56.184  0.00  0.00     0.000 A 
ATOM     19  C   UNL d   1     -43.098-122.611 -55.633  0.00  0.00     0.002 A 
ATOM     20  C   UNL d   1     -42.894-122.625 -54.827  0.00  0.00     0.019 A 
ENDBRANCH   9  15
ENDBRANCH   1   7
BRANCH   2  21
ATOM     21  C   UNL d   1     -42.186-122.328 -50.427  0.00  0.00    -0.001 A 
ATOM     22  C   UNL d   1     -41.646-122.760 -49.963  0.00  0.00    -0.001 A 
ATOM     23  C   UNL d   1     -41.914-123.178 -49.291  0.00  0.00     0.023 A 
ATOM     24  C   UNL d   1     -42.710-123.161 -49.090  0.00  0.00     0.127 A 
ATOM     25  C   UNL d   1     -43.247-122.730 -49.553  0.00  0.00     0.023 A 
ATOM     26  C   UNL d   1     -42.979-122.312 -50.225  0.00  0.00    -0.001 A 
BRANCH  24  27
ATOM     27  N   UNL d   1     -42.956-123.573 -48.432  0.00  0.00    -0.114 N 
ATOM     28  O   UNL d   1     -43.736-123.811 -48.302  0.00  0.00    -0.532 OA
ATOM     29  O   UNL d   1     -42.474-123.810 -47.810  0.00  0.00    -0.532 OA
ENDBRANCH  24  27
ENDBRANCH   2  21
TORSDOF 4
ENDMDL
