MODEL 1
REMARK VINA RESULT:      -7.0      0.000      0.000
REMARK  5 active torsions:
REMARK  status: ('A' for Active; 'I' for Inactive)
REMARK    1  A    between atoms: C_10  and  C_4 
REMARK    2  A    between atoms: N_12  and  C_5 
REMARK    3  A    between atoms: N_11  and  C_22 
REMARK    4  A    between atoms: C_21  and  N_12 
REMARK    5  A    between atoms: C_22  and  C_21 
ROOT
ATOM      1  N   UNL d   1     -47.709  12.797  23.325  0.00  0.00    -0.195 N 
ATOM      2  C   UNL d   1     -47.982  13.551  23.133  0.00  0.00     0.167 A 
ATOM      3  N   UNL d   1     -48.359  12.331  23.499  0.00  0.00    -0.163 NA
ATOM      4  C   UNL d   1     -48.798  13.544  23.190  0.00  0.00     0.055 A 
ATOM      5  C   UNL d   1     -46.901  12.637  23.316  0.00  0.00     0.167 A 
ATOM      6  C   UNL d   1     -49.030  12.801  23.412  0.00  0.00     0.104 A 
ATOM      7  N   UNL d   1     -47.448  14.145  22.931  0.00  0.00    -0.227 NA
ATOM      8  C   UNL d   1     -46.360  13.237  23.112  0.00  0.00     0.058 A 
ATOM      9  C   UNL d   1     -46.631  13.983  22.922  0.00  0.00     0.086 A 
ATOM     10  C   UNL d   1     -49.814  12.561  23.532  0.00  0.00     0.023 C 
ATOM     11  C   UNL d   1     -46.078  14.578  22.718  0.00  0.00     0.021 C 
ENDROOT
BRANCH   5  12
ATOM     12  N   UNL d   1     -46.627  11.883  23.508  0.00  0.00    -0.224 NA
BRANCH  12  13
ATOM     13  C   UNL d   1     -45.860  11.660  23.312  0.00  0.00     0.120 C 
BRANCH  13  14
ATOM     14  C   UNL d   1     -45.602  10.881  23.455  0.00  0.00     0.101 C 
BRANCH  14  15
ATOM     15  N   UNL d   1     -44.803  10.698  23.392  0.00  0.00    -0.298 N 
ATOM     16  C   UNL d   1     -44.521   9.980  23.696  0.00  0.00     0.107 A 
ATOM     17  C   UNL d   1     -43.722   9.797  23.633  0.00  0.00     0.142 A 
ATOM     18  O   UNL d   1     -43.191  10.322  23.268  0.00  0.00    -0.300 OA
ATOM     19  C   UNL d   1     -43.475  11.043  22.962  0.00  0.00     0.142 A 
ATOM     20  C   UNL d   1     -44.279  11.230  23.024  0.00  0.00     0.107 A 
ENDBRANCH  14  15
ENDBRANCH  13  14
ENDBRANCH  12  13
ENDBRANCH   5  12
BRANCH   4  21
ATOM     21  C   UNL d   1     -49.367  14.134  23.063  0.00  0.00     0.004 A 
ATOM     22  C   UNL d   1     -49.681  14.243  22.303  0.00  0.00     0.001 A 
ATOM     23  C   UNL d   1     -50.246  14.831  22.178  0.00  0.00     0.011 A 
ATOM     24  C   UNL d   1     -50.495  15.303  22.806  0.00  0.00     0.058 A 
ATOM     25  C   UNL d   1     -50.187  15.199  23.561  0.00  0.00     0.011 A 
ATOM     26 CL   UNL d   1     -51.064  15.893  22.672  0.00  0.00    -0.082 Cl
ATOM     27  C   UNL d   1     -49.618  14.609  23.688  0.00  0.00     0.001 A 
ENDBRANCH   4  21
TORSDOF 5
ENDMDL
MODEL 2
REMARK VINA RESULT:      -6.3      0.791      1.706
REMARK  5 active torsions:
REMARK  status: ('A' for Active; 'I' for Inactive)
REMARK    1  A    between atoms: C_10  and  C_4 
REMARK    2  A    between atoms: N_12  and  C_5 
REMARK    3  A    between atoms: N_11  and  C_22 
REMARK    4  A    between atoms: C_21  and  N_12 
REMARK    5  A    between atoms: C_22  and  C_21 
ROOT
ATOM      1  N   UNL d   1     -47.079  13.180  22.977  0.00  0.00    -0.195 N 
ATOM      2  C   UNL d   1     -47.899  13.238  23.031  0.00  0.00     0.167 A 
ATOM      3  N   UNL d   1     -46.791  13.905  22.730  0.00  0.00    -0.163 NA
ATOM      4  C   UNL d   1     -48.111  14.000  22.818  0.00  0.00     0.055 A 
ATOM      5  C   UNL d   1     -46.703  12.470  23.161  0.00  0.00     0.167 A 
ATOM      6  C   UNL d   1     -47.437  14.407  22.634  0.00  0.00     0.104 A 
ATOM      7  N   UNL d   1     -48.345  12.588  23.269  0.00  0.00    -0.227 NA
ATOM      8  C   UNL d   1     -47.153  11.812  23.401  0.00  0.00     0.058 A 
ATOM      9  C   UNL d   1     -47.965  11.870  23.455  0.00  0.00     0.086 A 
ATOM     10  C   UNL d   1     -47.410  15.199  22.390  0.00  0.00     0.023 C 
ATOM     11  C   UNL d   1     -48.407  11.202  23.698  0.00  0.00     0.021 C 
ENDROOT
BRANCH   5  12
ATOM     12  N   UNL d   1     -45.883  12.412  23.107  0.00  0.00    -0.224 NA
BRANCH  12  13
ATOM     13  C   UNL d   1     -45.504  11.712  23.316  0.00  0.00     0.120 C 
BRANCH  13  14
ATOM     14  C   UNL d   1     -44.684  11.627  23.194  0.00  0.00     0.101 C 
BRANCH  14  15
ATOM     15  N   UNL d   1     -44.325  10.900  23.326  0.00  0.00    -0.298 N 
ATOM     16  C   UNL d   1     -43.506  10.821  23.221  0.00  0.00     0.107 A 
ATOM     17  C   UNL d   1     -43.147  10.094  23.354  0.00  0.00     0.142 A 
ATOM     18  O   UNL d   1     -43.594   9.434  23.592  0.00  0.00    -0.300 OA
ATOM     19  C   UNL d   1     -44.416   9.514  23.697  0.00  0.00     0.142 A 
ATOM     20  C   UNL d   1     -44.780  10.245  23.565  0.00  0.00     0.107 A 
ENDBRANCH  14  15
ENDBRANCH  13  14
ENDBRANCH  12  13
ENDBRANCH   5  12
BRANCH   4  21
ATOM     21  C   UNL d   1     -48.849  14.375  22.768  0.00  0.00     0.004 A 
ATOM     22  C   UNL d   1     -49.103  14.862  23.389  0.00  0.00     0.001 A 
ATOM     23  C   UNL d   1     -49.837  15.235  23.338  0.00  0.00     0.011 A 
ATOM     24  C   UNL d   1     -50.312  15.121  22.674  0.00  0.00     0.058 A 
ATOM     25  C   UNL d   1     -50.065  14.639  22.056  0.00  0.00     0.011 A 
ATOM     26 CL   UNL d   1     -51.050  15.500  22.630  0.00  0.00    -0.082 Cl
ATOM     27  C   UNL d   1     -49.327  14.264  22.105  0.00  0.00     0.001 A 
ENDBRANCH   4  21
TORSDOF 5
ENDMDL
MODEL 3
REMARK VINA RESULT:      -4.8      2.810      5.784
REMARK  5 active torsions:
REMARK  status: ('A' for Active; 'I' for Inactive)
REMARK    1  A    between atoms: C_10  and  C_4 
REMARK    2  A    between atoms: N_12  and  C_5 
REMARK    3  A    between atoms: N_11  and  C_22 
REMARK    4  A    between atoms: C_21  and  N_12 
REMARK    5  A    between atoms: C_22  and  C_21 
ROOT
ATOM      1  N   UNL d   1     -46.811  12.895  22.668  0.00  0.00    -0.195 N 
ATOM      2  C   UNL d   1     -46.531  12.182  22.973  0.00  0.00     0.167 A 
ATOM      3  N   UNL d   1     -46.171  13.309  22.371  0.00  0.00    -0.163 NA
ATOM      4  C   UNL d   1     -45.720  12.163  22.862  0.00  0.00     0.055 A 
ATOM      5  C   UNL d   1     -47.615  13.071  22.702  0.00  0.00     0.167 A 
ATOM      6  C   UNL d   1     -45.499  12.849  22.495  0.00  0.00     0.104 A 
ATOM      7  N   UNL d   1     -47.054  11.644  23.313  0.00  0.00    -0.227 NA
ATOM      8  C   UNL d   1     -48.145  12.527  23.046  0.00  0.00     0.058 A 
ATOM      9  C   UNL d   1     -47.867  11.822  23.348  0.00  0.00     0.086 A 
ATOM     10  C   UNL d   1     -44.723  13.048  22.282  0.00  0.00     0.023 C 
ATOM     11  C   UNL d   1     -48.409  11.283  23.690  0.00  0.00     0.021 C 
ENDROOT
BRANCH   5  12
ATOM     12  N   UNL d   1     -47.895  13.783  22.397  0.00  0.00    -0.224 NA
BRANCH  12  13
ATOM     13  C   UNL d   1     -48.647  14.051  22.598  0.00  0.00     0.120 C 
BRANCH  13  14
ATOM     14  C   UNL d   1     -48.846  14.853  22.495  0.00  0.00     0.101 C 
BRANCH  14  15
ATOM     15  N   UNL d   1     -49.580  15.127  22.744  0.00  0.00    -0.298 N 
ATOM     16  C   UNL d   1     -50.263  14.904  22.332  0.00  0.00     0.107 A 
ATOM     17  C   UNL d   1     -50.997  15.177  22.580  0.00  0.00     0.142 A 
ATOM     18  O   UNL d   1     -51.064  15.676  23.242  0.00  0.00    -0.300 OA
ATOM     19  C   UNL d   1     -50.377  15.900  23.657  0.00  0.00     0.142 A 
ATOM     20  C   UNL d   1     -49.637  15.626  23.408  0.00  0.00     0.107 A 
ENDBRANCH  14  15
ENDBRANCH  13  14
ENDBRANCH  12  13
ENDBRANCH   5  12
BRANCH   4  21
ATOM     21  C   UNL d   1     -45.149  11.593  23.054  0.00  0.00     0.004 A 
ATOM     22  C   UNL d   1     -44.363  11.703  22.811  0.00  0.00     0.001 A 
ATOM     23  C   UNL d   1     -43.796  11.136  23.002  0.00  0.00     0.011 A 
ATOM     24  C   UNL d   1     -44.012  10.466  23.432  0.00  0.00     0.058 A 
ATOM     25  C   UNL d   1     -44.789  10.353  23.676  0.00  0.00     0.011 A 
ATOM     26 CL   UNL d   1     -43.435   9.899  23.622  0.00  0.00    -0.082 Cl
ATOM     27  C   UNL d   1     -45.361  10.922  23.484  0.00  0.00     0.001 A 
ENDBRANCH   4  21
TORSDOF 5
ENDMDL
MODEL 4
REMARK VINA RESULT:      -4.0      2.080      2.632
REMARK  5 active torsions:
REMARK  status: ('A' for Active; 'I' for Inactive)
REMARK    1  A    between atoms: C_10  and  C_4 
REMARK    2  A    between atoms: N_12  and  C_5 
REMARK    3  A    between atoms: N_11  and  C_22 
REMARK    4  A    between atoms: C_21  and  N_12 
REMARK    5  A    between atoms: C_22  and  C_21 
ROOT
ATOM      1  N   UNL d   1     -46.483  12.708  22.704  0.00  0.00    -0.195 N 
ATOM      2  C   UNL d   1     -47.244  13.024  22.731  0.00  0.00     0.167 A 
ATOM      3  N   UNL d   1     -46.546  11.896  22.784  0.00  0.00    -0.163 NA
ATOM      4  C   UNL d   1     -47.770  12.404  22.827  0.00  0.00     0.055 A 
ATOM      5  C   UNL d   1     -45.833  13.205  22.611  0.00  0.00     0.167 A 
ATOM      6  C   UNL d   1     -47.346  11.716  22.859  0.00  0.00     0.104 A 
ATOM      7  N   UNL d   1     -47.356  13.837  22.664  0.00  0.00    -0.227 NA
ATOM      8  C   UNL d   1     -45.945  14.027  22.544  0.00  0.00     0.058 A 
ATOM      9  C   UNL d   1     -46.698  14.340  22.570  0.00  0.00     0.086 A 
ATOM     10  C   UNL d   1     -47.671  10.959  22.952  0.00  0.00     0.023 C 
ATOM     11  C   UNL d   1     -46.799  15.168  22.501  0.00  0.00     0.021 C 
ENDROOT
BRANCH   5  12
ATOM     12  N   UNL d   1     -45.072  12.889  22.584  0.00  0.00    -0.224 NA
BRANCH  12  13
ATOM     13  C   UNL d   1     -44.584  13.041  21.939  0.00  0.00     0.120 C 
BRANCH  13  14
ATOM     14  C   UNL d   1     -43.943  12.536  21.771  0.00  0.00     0.101 C 
BRANCH  14  15
ATOM     15  N   UNL d   1     -43.245  12.848  21.471  0.00  0.00    -0.298 N 
ATOM     16  C   UNL d   1     -42.581  12.919  21.962  0.00  0.00     0.107 A 
ATOM     17  C   UNL d   1     -41.883  13.231  21.661  0.00  0.00     0.142 A 
ATOM     18  O   UNL d   1     -41.833  13.478  20.868  0.00  0.00    -0.300 OA
ATOM     19  C   UNL d   1     -42.500  13.407  20.375  0.00  0.00     0.142 A 
ATOM     20  C   UNL d   1     -43.204  13.093  20.676  0.00  0.00     0.107 A 
ENDBRANCH  14  15
ENDBRANCH  13  14
ENDBRANCH  12  13
ENDBRANCH   5  12
BRANCH   4  21
ATOM     21  C   UNL d   1     -48.597  12.385  22.889  0.00  0.00     0.004 A 
ATOM     22  C   UNL d   1     -48.952  12.427  23.637  0.00  0.00     0.001 A 
ATOM     23  C   UNL d   1     -49.774  12.408  23.698  0.00  0.00     0.011 A 
ATOM     24  C   UNL d   1     -50.236  12.347  23.018  0.00  0.00     0.058 A 
ATOM     25  C   UNL d   1     -49.889  12.304  22.274  0.00  0.00     0.011 A 
ATOM     26 CL   UNL d   1     -51.064  12.328  23.086  0.00  0.00    -0.082 Cl
ATOM     27  C   UNL d   1     -49.062  12.323  22.211  0.00  0.00     0.001 A 
ENDBRANCH   4  21
TORSDOF 5
ENDMDL
