MODEL 1
REMARK VINA RESULT:      53.5      0.000      0.000
REMARK  5 active torsions:
REMARK  status: ('A' for Active; 'I' for Inactive)
REMARK       I    between atoms: C_3  and  N_1 
REMARK    1  A    between atoms: C_8  and  N_2 
REMARK    2  A    between atoms: C_11  and  C_3 
REMARK    3  A    between atoms: S_10  and  C_11 
REMARK    4  A    between atoms: C_13  and  S_10 
REMARK    5  A    between atoms: C_12  and  C_13 
ROOT
ATOM      1  N   UNL d   1      59.793  49.594  51.390  0.00  0.00    -0.269 N 
ATOM      2  N   UNL d   1      58.288  49.623  50.722  0.00  0.00    -0.301 N 
ATOM      3  C   UNL d   1      60.557  49.579  51.723  0.00  0.00     0.259 C 
ATOM      4  C   UNL d   1      59.705  49.509  50.578  0.00  0.00     0.102 A 
ATOM      5  C   UNL d   1      59.130  49.693  51.870  0.00  0.00     0.102 A 
ATOM      6  C   UNL d   1      58.379  49.707  51.538  0.00  0.00     0.100 A 
ATOM      7  C   UNL d   1      58.952  49.524  50.242  0.00  0.00     0.100 A 
ATOM      8  O   UNL d   1      60.664  49.662  52.539  0.00  0.00    -0.267 OA
ENDROOT
BRANCH   3   9
ATOM      9  C   UNL d   1      61.229  49.478  51.232  0.00  0.00     0.125 C 
BRANCH   9  10
ATOM     10  S   UNL d   1      61.719  48.842  51.351  0.00  0.00    -0.094 SA
BRANCH  10  11
ATOM     11  C   UNL d   1      62.030  48.437  50.704  0.00  0.00     0.035 C 
BRANCH  11  12
ATOM     12  C   UNL d   1      61.780  47.673  50.536  0.00  0.00     0.006 A 
ATOM     13  C   UNL d   1      62.134  47.252  49.921  0.00  0.00     0.001 A 
ATOM     14  C   UNL d   1      61.884  46.484  49.750  0.00  0.00     0.000 A 
ATOM     15  C   UNL d   1      61.282  46.138  50.194  0.00  0.00     0.000 A 
ATOM     16  C   UNL d   1      60.928  46.559  50.808  0.00  0.00     0.000 A 
ATOM     17  C   UNL d   1      61.177  47.327  50.979  0.00  0.00     0.001 A 
ENDBRANCH  11  12
ENDBRANCH  10  11
ENDBRANCH   9  10
ENDBRANCH   3   9
BRANCH   2  18
ATOM     18  C   UNL d   1      57.541  49.637  50.394  0.00  0.00     0.064 A 
ATOM     19  C   UNL d   1      56.874  49.619  50.878  0.00  0.00     0.018 A 
ATOM     20  C   UNL d   1      56.120  49.634  50.542  0.00  0.00     0.002 A 
ATOM     21  C   UNL d   1      56.034  49.667  49.723  0.00  0.00     0.000 A 
ATOM     22  C   UNL d   1      56.701  49.686  49.239  0.00  0.00     0.002 A 
ATOM     23  C   UNL d   1      57.454  49.671  49.574  0.00  0.00     0.018 A 
ENDBRANCH   2  18
TORSDOF 5
ENDMDL
