MODEL 1
REMARK VINA RESULT:     -10.5      0.000      0.000
REMARK  3 active torsions:
REMARK  status: ('A' for Active; 'I' for Inactive)
REMARK    1  A    between atoms: C_7  and  C_8 
REMARK       I    between atoms: N_10  and  C_7 
REMARK    2  A    between atoms: C_19  and  N_10 
REMARK    3  A    between atoms: C_11  and  C_19 
ROOT
ATOM      1  C   UNL d   1      52.369  34.323  53.672  0.00  0.00     0.039 A 
ATOM      2  C   UNL d   1      52.994  34.704  54.054  0.00  0.00     0.196 A 
ATOM      3  C   UNL d   1      52.468  33.510  53.769  0.00  0.00     0.003 A 
ATOM      4  C   UNL d   1      53.481  34.123  54.388  0.00  0.00     0.039 A 
ATOM      5  C   UNL d   1      53.154  33.388  54.211  0.00  0.00     0.003 A 
ATOM      6  C   UNL d   1      51.727  34.606  53.251  0.00  0.00     0.008 A 
ATOM      7  C   UNL d   1      51.183  34.088  52.926  0.00  0.00     0.058 A 
ATOM      8  C   UNL d   1      51.922  32.977  53.444  0.00  0.00     0.000 A 
ATOM      9  O   UNL d   1      53.117  35.519  54.097  0.00  0.00    -0.287 OA
ATOM     10  C   UNL d   1      51.275  33.273  53.019  0.00  0.00     0.005 A 
ATOM     11  C   UNL d   1      54.172  34.173  54.826  0.00  0.00     0.003 A 
ATOM     12  C   UNL d   1      53.522  32.699  54.474  0.00  0.00     0.000 A 
ATOM     13  C   UNL d   1      54.541  33.487  55.090  0.00  0.00     0.000 A 
ATOM     14  C   UNL d   1      54.218  32.748  54.915  0.00  0.00     0.000 A 
ENDROOT
BRANCH   7  15
ATOM     15  C   UNL d   1      50.536  34.376  52.502  0.00  0.00     0.279 C 
ATOM     16  N   UNL d   1      49.929  34.765  52.894  0.00  0.00    -0.204 NA
ATOM     17  O   UNL d   1      50.500  34.273  51.686  0.00  0.00    -0.265 OA
BRANCH  16  18
ATOM     18  C   UNL d   1      49.277  35.057  52.475  0.00  0.00     0.127 C 
BRANCH  18  19
ATOM     19  C   UNL d   1      48.711  35.512  52.855  0.00  0.00     0.119 A 
ATOM     20  O   UNL d   1      48.820  35.926  53.557  0.00  0.00    -0.304 OA
ATOM     21  C   UNL d   1      48.113  36.309  53.743  0.00  0.00     0.123 A 
ATOM     22  C   UNL d   1      47.566  36.127  53.149  0.00  0.00     0.029 A 
ATOM     23  C   UNL d   1      47.937  35.633  52.599  0.00  0.00     0.028 A 
ENDBRANCH  18  19
ENDBRANCH  16  18
ENDBRANCH   7  15
TORSDOF 3
ENDMDL
MODEL 2
REMARK VINA RESULT:      -9.4      2.979      4.993
REMARK  3 active torsions:
REMARK  status: ('A' for Active; 'I' for Inactive)
REMARK    1  A    between atoms: C_7  and  C_8 
REMARK       I    between atoms: N_10  and  C_7 
REMARK    2  A    between atoms: C_19  and  N_10 
REMARK    3  A    between atoms: C_11  and  C_19 
ROOT
ATOM      1  C   UNL d   1      53.383  33.047  54.030  0.00  0.00     0.039 A 
ATOM      2  C   UNL d   1      53.777  33.541  54.562  0.00  0.00     0.196 A 
ATOM      3  C   UNL d   1      52.834  33.504  53.617  0.00  0.00     0.003 A 
ATOM      4  C   UNL d   1      53.470  34.305  54.476  0.00  0.00     0.039 A 
ATOM      5  C   UNL d   1      52.889  34.279  53.893  0.00  0.00     0.003 A 
ATOM      6  C   UNL d   1      53.450  32.248  53.868  0.00  0.00     0.008 A 
ATOM      7  C   UNL d   1      52.977  31.899  53.299  0.00  0.00     0.058 A 
ATOM      8  C   UNL d   1      52.349  33.159  53.039  0.00  0.00     0.000 A 
ATOM      9  O   UNL d   1      54.373  33.317  55.087  0.00  0.00    -0.287 OA
ATOM     10  C   UNL d   1      52.425  32.349  52.881  0.00  0.00     0.005 A 
ATOM     11  C   UNL d   1      53.646  35.012  54.853  0.00  0.00     0.003 A 
ATOM     12  C   UNL d   1      52.481  34.965  53.686  0.00  0.00     0.000 A 
ATOM     13  C   UNL d   1      53.241  35.698  54.648  0.00  0.00     0.000 A 
ATOM     14  C   UNL d   1      52.657  35.677  54.065  0.00  0.00     0.000 A 
ENDROOT
BRANCH   7  15
ATOM     15  C   UNL d   1      53.047  31.092  53.137  0.00  0.00     0.279 C 
ATOM     16  N   UNL d   1      53.114  30.555  53.753  0.00  0.00    -0.204 NA
ATOM     17  O   UNL d   1      53.048  30.828  52.357  0.00  0.00    -0.265 OA
BRANCH  16  18
ATOM     18  C   UNL d   1      53.185  29.744  53.599  0.00  0.00     0.127 C 
BRANCH  18  19
ATOM     19  C   UNL d   1      53.284  29.213  54.215  0.00  0.00     0.119 A 
ATOM     20  O   UNL d   1      52.894  29.236  54.938  0.00  0.00    -0.304 OA
ATOM     21  C   UNL d   1      53.157  28.601  55.394  0.00  0.00     0.123 A 
ATOM     22  C   UNL d   1      53.714  28.185  54.945  0.00  0.00     0.029 A 
ATOM     23  C   UNL d   1      53.793  28.564  54.214  0.00  0.00     0.028 A 
ENDBRANCH  18  19
ENDBRANCH  16  18
ENDBRANCH   7  15
TORSDOF 3
ENDMDL
MODEL 3
REMARK VINA RESULT:      -8.8      2.852      5.091
REMARK  3 active torsions:
REMARK  status: ('A' for Active; 'I' for Inactive)
REMARK    1  A    between atoms: C_7  and  C_8 
REMARK       I    between atoms: N_10  and  C_7 
REMARK    2  A    between atoms: C_19  and  N_10 
REMARK    3  A    between atoms: C_11  and  C_19 
ROOT
ATOM      1  C   UNL d   1      52.590  33.165  53.529  0.00  0.00     0.039 A 
ATOM      2  C   UNL d   1      52.028  33.770  53.509  0.00  0.00     0.196 A 
ATOM      3  C   UNL d   1      53.303  33.489  53.787  0.00  0.00     0.003 A 
ATOM      4  C   UNL d   1      52.397  34.469  53.757  0.00  0.00     0.039 A 
ATOM      5  C   UNL d   1      53.183  34.292  53.927  0.00  0.00     0.003 A 
ATOM      6  C   UNL d   1      52.547  32.369  53.347  0.00  0.00     0.008 A 
ATOM      7  C   UNL d   1      53.207  31.891  53.420  0.00  0.00     0.058 A 
ATOM      8  C   UNL d   1      53.978  33.012  53.864  0.00  0.00     0.000 A 
ATOM      9  O   UNL d   1      51.237  33.696  53.284  0.00  0.00    -0.287 OA
ATOM     10  C   UNL d   1      53.925  32.207  53.678  0.00  0.00     0.005 A 
ATOM     11  C   UNL d   1      52.116  35.235  53.846  0.00  0.00     0.003 A 
ATOM     12  C   UNL d   1      53.691  34.886  54.189  0.00  0.00     0.000 A 
ATOM     13  C   UNL d   1      52.621  35.829  54.107  0.00  0.00     0.000 A 
ATOM     14  C   UNL d   1      53.410  35.657  54.280  0.00  0.00     0.000 A 
ENDROOT
BRANCH   7  15
ATOM     15  C   UNL d   1      53.162  31.087  53.236  0.00  0.00     0.279 C 
ATOM     16  N   UNL d   1      53.267  30.525  53.825  0.00  0.00    -0.204 NA
ATOM     17  O   UNL d   1      53.012  30.850  52.462  0.00  0.00    -0.265 OA
BRANCH  16  18
ATOM     18  C   UNL d   1      53.223  29.718  53.648  0.00  0.00     0.127 C 
BRANCH  18  19
ATOM     19  C   UNL d   1      53.309  29.159  54.241  0.00  0.00     0.119 A 
ATOM     20  O   UNL d   1      52.881  29.133  54.943  0.00  0.00    -0.304 OA
ATOM     21  C   UNL d   1      53.142  28.484  55.381  0.00  0.00     0.123 A 
ATOM     22  C   UNL d   1      53.736  28.109  54.942  0.00  0.00     0.029 A 
ATOM     23  C   UNL d   1      53.839  28.527  54.237  0.00  0.00     0.028 A 
ENDBRANCH  18  19
ENDBRANCH  16  18
ENDBRANCH   7  15
TORSDOF 3
ENDMDL
MODEL 4
REMARK VINA RESULT:      -8.4      1.704      5.108
REMARK  3 active torsions:
REMARK  status: ('A' for Active; 'I' for Inactive)
REMARK    1  A    between atoms: C_7  and  C_8 
REMARK       I    between atoms: N_10  and  C_7 
REMARK    2  A    between atoms: C_19  and  N_10 
REMARK    3  A    between atoms: C_11  and  C_19 
ROOT
ATOM      1  C   UNL d   1      50.049  34.440  52.030  0.00  0.00     0.039 A 
ATOM      2  C   UNL d   1      49.471  34.508  51.444  0.00  0.00     0.196 A 
ATOM      3  C   UNL d   1      49.764  34.803  52.713  0.00  0.00     0.003 A 
ATOM      4  C   UNL d   1      48.827  34.915  51.769  0.00  0.00     0.039 A 
ATOM      5  C   UNL d   1      49.011  35.095  52.551  0.00  0.00     0.003 A 
ATOM      6  C   UNL d   1      50.792  34.097  52.032  0.00  0.00     0.008 A 
ATOM      7  C   UNL d   1      51.254  34.113  52.707  0.00  0.00     0.058 A 
ATOM      8  C   UNL d   1      50.225  34.823  53.403  0.00  0.00     0.000 A 
ATOM      9  O   UNL d   1      49.522  34.223  50.672  0.00  0.00    -0.287 OA
ATOM     10  C   UNL d   1      50.976  34.474  53.395  0.00  0.00     0.005 A 
ATOM     11  C   UNL d   1      48.105  35.141  51.451  0.00  0.00     0.003 A 
ATOM     12  C   UNL d   1      48.468  35.504  53.018  0.00  0.00     0.000 A 
ATOM     13  C   UNL d   1      47.562  35.548  51.915  0.00  0.00     0.000 A 
ATOM     14  C   UNL d   1      47.741  35.732  52.700  0.00  0.00     0.000 A 
ENDROOT
BRANCH   7  15
ATOM     15  C   UNL d   1      52.004  33.766  52.706  0.00  0.00     0.279 C 
ATOM     16  N   UNL d   1      52.088  32.969  52.883  0.00  0.00    -0.204 NA
ATOM     17  O   UNL d   1      52.667  34.221  52.529  0.00  0.00    -0.265 OA
BRANCH  16  18
ATOM     18  C   UNL d   1      52.836  32.615  52.884  0.00  0.00     0.127 C 
BRANCH  18  19
ATOM     19  C   UNL d   1      52.912  31.810  53.016  0.00  0.00     0.119 A 
ATOM     20  O   UNL d   1      52.588  31.214  52.551  0.00  0.00    -0.304 OA
ATOM     21  C   UNL d   1      52.799  30.487  52.879  0.00  0.00     0.123 A 
ATOM     22  C   UNL d   1      53.257  30.640  53.552  0.00  0.00     0.029 A 
ATOM     23  C   UNL d   1      53.327  31.459  53.636  0.00  0.00     0.028 A 
ENDBRANCH  18  19
ENDBRANCH  16  18
ENDBRANCH   7  15
TORSDOF 3
ENDMDL
MODEL 5
REMARK VINA RESULT:      -8.3      1.185      1.611
REMARK  3 active torsions:
REMARK  status: ('A' for Active; 'I' for Inactive)
REMARK    1  A    between atoms: C_7  and  C_8 
REMARK       I    between atoms: N_10  and  C_7 
REMARK    2  A    between atoms: C_19  and  N_10 
REMARK    3  A    between atoms: C_11  and  C_19 
ROOT
ATOM      1  C   UNL d   1      52.397  33.555  53.364  0.00  0.00     0.039 A 
ATOM      2  C   UNL d   1      53.192  33.573  53.586  0.00  0.00     0.196 A 
ATOM      3  C   UNL d   1      52.202  32.776  53.178  0.00  0.00     0.003 A 
ATOM      4  C   UNL d   1      53.488  32.801  53.537  0.00  0.00     0.039 A 
ATOM      5  C   UNL d   1      52.875  32.312  53.286  0.00  0.00     0.003 A 
ATOM      6  C   UNL d   1      51.829  34.141  53.306  0.00  0.00     0.008 A 
ATOM      7  C   UNL d   1      51.069  33.959  53.066  0.00  0.00     0.058 A 
ATOM      8  C   UNL d   1      51.433  32.581  52.934  0.00  0.00     0.000 A 
ATOM      9  O   UNL d   1      53.621  34.240  53.816  0.00  0.00    -0.287 OA
ATOM     10  C   UNL d   1      50.865  33.181  52.878  0.00  0.00     0.005 A 
ATOM     11  C   UNL d   1      54.231  32.488  53.689  0.00  0.00     0.003 A 
ATOM     12  C   UNL d   1      53.007  31.504  53.186  0.00  0.00     0.000 A 
ATOM     13  C   UNL d   1      54.365  31.683  53.590  0.00  0.00     0.000 A 
ATOM     14  C   UNL d   1      53.754  31.188  53.338  0.00  0.00     0.000 A 
ENDROOT
BRANCH   7  15
ATOM     15  C   UNL d   1      50.496  34.552  53.008  0.00  0.00     0.279 C 
ATOM     16  N   UNL d   1      49.865  34.463  52.492  0.00  0.00    -0.204 NA
ATOM     17  O   UNL d   1      50.561  35.232  53.468  0.00  0.00    -0.265 OA
BRANCH  16  18
ATOM     18  C   UNL d   1      49.287  35.053  52.429  0.00  0.00     0.127 C 
BRANCH  18  19
ATOM     19  C   UNL d   1      48.714  35.010  51.844  0.00  0.00     0.119 A 
ATOM     20  O   UNL d   1      48.834  34.754  51.073  0.00  0.00    -0.304 OA
ATOM     21  C   UNL d   1      48.114  34.799  50.672  0.00  0.00     0.123 A 
ATOM     22  C   UNL d   1      47.548  35.086  51.205  0.00  0.00     0.029 A 
ATOM     23  C   UNL d   1      47.921  35.217  51.931  0.00  0.00     0.028 A 
ENDBRANCH  18  19
ENDBRANCH  16  18
ENDBRANCH   7  15
TORSDOF 3
ENDMDL
MODEL 6
REMARK VINA RESULT:      -8.0      2.462      3.617
REMARK  3 active torsions:
REMARK  status: ('A' for Active; 'I' for Inactive)
REMARK    1  A    between atoms: C_7  and  C_8 
REMARK       I    between atoms: N_10  and  C_7 
REMARK    2  A    between atoms: C_19  and  N_10 
REMARK    3  A    between atoms: C_11  and  C_19 
ROOT
ATOM      1  C   UNL d   1      53.017  30.887  53.385  0.00  0.00     0.039 A 
ATOM      2  C   UNL d   1      52.929  30.111  53.114  0.00  0.00     0.196 A 
ATOM      3  C   UNL d   1      53.307  30.856  54.156  0.00  0.00     0.003 A 
ATOM      4  C   UNL d   1      53.167  29.601  53.722  0.00  0.00     0.039 A 
ATOM      5  C   UNL d   1      53.399  30.063  54.363  0.00  0.00     0.003 A 
ATOM      6  C   UNL d   1      52.872  31.611  53.034  0.00  0.00     0.008 A 
ATOM      7  C   UNL d   1      53.013  32.305  53.443  0.00  0.00     0.058 A 
ATOM      8  C   UNL d   1      53.453  31.555  54.580  0.00  0.00     0.000 A 
ATOM      9  O   UNL d   1      52.654  29.881  52.371  0.00  0.00    -0.287 OA
ATOM     10  C   UNL d   1      53.303  32.284  54.216  0.00  0.00     0.005 A 
ATOM     11  C   UNL d   1      53.199  28.783  53.769  0.00  0.00     0.003 A 
ATOM     12  C   UNL d   1      53.666  29.703  55.055  0.00  0.00     0.000 A 
ATOM     13  C   UNL d   1      53.465  28.422  54.458  0.00  0.00     0.000 A 
ATOM     14  C   UNL d   1      53.699  28.880  55.104  0.00  0.00     0.000 A 
ENDROOT
BRANCH   7  15
ATOM     15  C   UNL d   1      52.865  33.037  53.087  0.00  0.00     0.279 C 
ATOM     16  N   UNL d   1      52.093  33.291  52.977  0.00  0.00    -0.204 NA
ATOM     17  O   UNL d   1      53.494  33.509  52.842  0.00  0.00    -0.265 OA
BRANCH  16  18
ATOM     18  C   UNL d   1      51.938  34.022  52.621  0.00  0.00     0.127 C 
BRANCH  18  19
ATOM     19  C   UNL d   1      51.169  34.236  52.435  0.00  0.00     0.119 A 
ATOM     20  O   UNL d   1      50.840  34.239  51.682  0.00  0.00    -0.304 OA
ATOM     21  C   UNL d   1      50.056  34.490  51.743  0.00  0.00     0.123 A 
ATOM     22  C   UNL d   1      49.905  34.643  52.543  0.00  0.00     0.029 A 
ATOM     23  C   UNL d   1      50.594  34.486  52.971  0.00  0.00     0.028 A 
ENDBRANCH  18  19
ENDBRANCH  16  18
ENDBRANCH   7  15
TORSDOF 3
ENDMDL
