MODEL 1
REMARK VINA RESULT:      57.2      0.000      0.000
REMARK  2 active torsions:
REMARK  status: ('A' for Active; 'I' for Inactive)
REMARK    1  A    between atoms: C_5  and  C_1 
REMARK    2  A    between atoms: C_7  and  C_3 
REMARK       I    between atoms: N_8  and  C_7 
ROOT
ATOM      1  C   UNL d   1     -52.605  23.841  33.854  0.00  0.00     0.086 A 
ATOM      2  S   UNL d   1     -52.348  24.627  33.929  0.00  0.00    -0.080 SA
ATOM      3  C   UNL d   1     -51.596  24.677  33.589  0.00  0.00     0.053 A 
ATOM      4  C   UNL d   1     -52.014  23.413  33.470  0.00  0.00     0.012 A 
ATOM      5  C   UNL d   1     -51.389  23.931  33.307  0.00  0.00     0.009 A 
ENDROOT
BRANCH   3   6
ATOM      6  C   UNL d   1     -51.133  25.358  33.542  0.00  0.00     0.117 A 
ATOM      7  N   UNL d   1     -50.312  25.384  33.610  0.00  0.00    -0.238 NA
ATOM      8  C   UNL d   1     -50.083  26.177  33.528  0.00  0.00     0.088 A 
ATOM      9  C   UNL d   1     -49.343  26.538  33.546  0.00  0.00     0.020 A 
ATOM     10  C   UNL d   1     -50.762  26.631  33.411  0.00  0.00     0.049 A 
ATOM     11  C   UNL d   1     -49.286  27.350  33.447  0.00  0.00     0.002 A 
ATOM     12  C   UNL d   1     -49.965  27.803  33.330  0.00  0.00     0.001 A 
ATOM     13  C   UNL d   1     -50.701  27.445  33.312  0.00  0.00     0.008 A 
ATOM     14  S   UNL d   1     -51.413  26.120  33.420  0.00  0.00    -0.066 SA
ENDBRANCH   3   6
BRANCH   1  15
ATOM     15  C   UNL d   1     -53.329  23.544  34.119  0.00  0.00     0.271 C 
ATOM     16  N   UNL d   1     -53.485  23.516  34.926  0.00  0.00    -0.267 N 
ATOM     17  C   UNL d   1     -54.207  23.220  35.187  0.00  0.00     0.110 A 
ATOM     18  C   UNL d   1     -52.927  23.780  35.460  0.00  0.00     0.110 A 
ATOM     19  C   UNL d   1     -54.368  23.189  35.990  0.00  0.00     0.142 A 
ATOM     20  O   UNL d   1     -53.807  23.455  36.533  0.00  0.00    -0.300 OA
ATOM     21  C   UNL d   1     -53.085  23.751  36.271  0.00  0.00     0.142 A 
ATOM     22  O   UNL d   1     -53.890  23.278  33.576  0.00  0.00    -0.266 OA
ENDBRANCH   1  15
TORSDOF 2
ENDMDL
MODEL 2
REMARK VINA RESULT:      59.1      1.632      2.452
REMARK  2 active torsions:
REMARK  status: ('A' for Active; 'I' for Inactive)
REMARK    1  A    between atoms: C_5  and  C_1 
REMARK    2  A    between atoms: C_7  and  C_3 
REMARK       I    between atoms: N_8  and  C_7 
ROOT
ATOM      1  C   UNL d   1     -50.270  24.701  33.465  0.00  0.00     0.086 A 
ATOM      2  S   UNL d   1     -50.613  25.453  33.526  0.00  0.00    -0.080 SA
ATOM      3  C   UNL d   1     -50.011  26.011  33.430  0.00  0.00     0.053 A 
ATOM      4  C   UNL d   1     -49.461  24.797  33.333  0.00  0.00     0.012 A 
ATOM      5  C   UNL d   1     -49.302  25.609  33.311  0.00  0.00     0.009 A 
ENDROOT
BRANCH   3   6
ATOM      6  C   UNL d   1     -50.105  26.830  33.450  0.00  0.00     0.117 A 
ATOM      7  N   UNL d   1     -49.494  27.381  33.512  0.00  0.00    -0.238 NA
ATOM      8  C   UNL d   1     -49.841  28.135  33.512  0.00  0.00     0.088 A 
ATOM      9  C   UNL d   1     -49.512  28.888  33.560  0.00  0.00     0.020 A 
ATOM     10  C   UNL d   1     -50.658  28.043  33.450  0.00  0.00     0.049 A 
ATOM     11  C   UNL d   1     -50.002  29.545  33.546  0.00  0.00     0.002 A 
ATOM     12  C   UNL d   1     -50.820  29.453  33.485  0.00  0.00     0.001 A 
ATOM     13  C   UNL d   1     -51.148  28.704  33.437  0.00  0.00     0.008 A 
ATOM     14  S   UNL d   1     -50.820  27.232  33.412  0.00  0.00    -0.066 SA
ENDBRANCH   3   6
BRANCH   1  15
ATOM     15  C   UNL d   1     -50.672  23.981  33.527  0.00  0.00     0.271 C 
ATOM     16  N   UNL d   1     -51.493  23.970  33.479  0.00  0.00    -0.267 N 
ATOM     17  C   UNL d   1     -51.891  23.253  33.541  0.00  0.00     0.110 A 
ATOM     18  C   UNL d   1     -51.906  24.666  33.371  0.00  0.00     0.110 A 
ATOM     19  C   UNL d   1     -52.709  23.235  33.494  0.00  0.00     0.142 A 
ATOM     20  O   UNL d   1     -53.130  23.936  33.385  0.00  0.00    -0.300 OA
ATOM     21  C   UNL d   1     -52.731  24.653  33.323  0.00  0.00     0.142 A 
ATOM     22  O   UNL d   1     -50.251  23.281  33.637  0.00  0.00    -0.266 OA
ENDBRANCH   1  15
TORSDOF 2
ENDMDL
