MODEL 1
REMARK VINA RESULT:      69.8      0.000      0.000
REMARK  6 active torsions:
REMARK  status: ('A' for Active; 'I' for Inactive)
REMARK    1  A    between atoms: N_5  and  S_1 
REMARK    2  A    between atoms: C_6  and  S_1 
REMARK    3  A    between atoms: C_2  and  C_11 
REMARK    4  A    between atoms: C_9  and  N_5 
REMARK    5  A    between atoms: C_10  and  C_9 
REMARK       I    between atoms: N_15  and  C_10 
REMARK    6  A    between atoms: C_19  and  N_15 
ROOT
ATOM      1  C   UNL d   1     -49.834  26.876  33.954  0.00  0.00     0.024 A 
ATOM      2  C   UNL d   1     -49.529  26.976  34.714  0.00  0.00     0.004 A 
ATOM      3  C   UNL d   1     -49.540  27.325  33.332  0.00  0.00     0.004 A 
ATOM      4  C   UNL d   1     -48.628  27.982  34.229  0.00  0.00     0.085 A 
ATOM      5  C   UNL d   1     -48.934  27.881  33.472  0.00  0.00     0.019 A 
ATOM      6  C   UNL d   1     -48.929  27.525  34.858  0.00  0.00     0.019 A 
ENDROOT
BRANCH   4   7
ATOM      7  N   UNL d   1     -48.029  28.536  34.352  0.00  0.00    -0.207 NA
ATOM      8  C   UNL d   1     -48.061  29.031  35.005  0.00  0.00     0.299 C 
ATOM      9  O   UNL d   1     -48.687  28.978  35.536  0.00  0.00    -0.263 OA
BRANCH   8  10
ATOM     10  C   UNL d   1     -47.455  29.590  35.129  0.00  0.00     0.174 C 
BRANCH  10  11
ATOM     11  N   UNL d   1     -47.627  30.312  35.483  0.00  0.00    -0.152 NA
BRANCH  11  12
ATOM     12  S   UNL d   1     -47.576  31.008  35.044  0.00  0.00     0.285 S 
ATOM     13  O   UNL d   1     -48.229  31.307  35.451  0.00  0.00    -0.198 OA
ATOM     14  O   UNL d   1     -46.923  30.702  34.643  0.00  0.00    -0.198 OA
BRANCH  12  15
ATOM     15  C   UNL d   1     -47.522  31.696  34.608  0.00  0.00     0.106 A 
ATOM     16  C   UNL d   1     -48.181  31.971  34.190  0.00  0.00     0.024 A 
ATOM     17  C   UNL d   1     -48.127  32.666  33.750  0.00  0.00     0.059 A 
ATOM     18 CL   UNL d   1     -48.794  32.950  33.323  0.00  0.00    -0.082 Cl
ATOM     19  C   UNL d   1     -47.424  33.093  33.719  0.00  0.00     0.011 A 
ATOM     20  C   UNL d   1     -46.764  32.818  34.137  0.00  0.00     0.002 A 
ATOM     21  C   UNL d   1     -46.820  32.116  34.582  0.00  0.00     0.013 A 
ENDBRANCH  12  15
ENDBRANCH  11  12
ENDBRANCH  10  11
ENDBRANCH   8  10
ENDBRANCH   4   7
BRANCH   1  22
ATOM     22  C   UNL d   1     -50.437  26.326  33.802  0.00  0.00     0.111 A 
ATOM     23  N   UNL d   1     -50.297  25.523  33.710  0.00  0.00    -0.239 NA
ATOM     24  C   UNL d   1     -51.017  25.146  33.567  0.00  0.00     0.088 A 
ATOM     25  C   UNL d   1     -51.212  24.357  33.435  0.00  0.00     0.020 A 
ATOM     26  C   UNL d   1     -51.606  25.722  33.571  0.00  0.00     0.049 A 
ATOM     27  C   UNL d   1     -51.998  24.145  33.306  0.00  0.00     0.002 A 
ATOM     28  C   UNL d   1     -52.587  24.722  33.309  0.00  0.00     0.001 A 
ATOM     29  C   UNL d   1     -52.391  25.511  33.442  0.00  0.00     0.008 A 
ATOM     30  S   UNL d   1     -51.247  26.453  33.716  0.00  0.00    -0.066 SA
ENDBRANCH   1  22
TORSDOF 6
ENDMDL
