MODEL 1
REMARK VINA RESULT:      -8.7      0.000      0.000
REMARK  5 active torsions:
REMARK  status: ('A' for Active; 'I' for Inactive)
REMARK    1  A    between atoms: S_12  and  C_4 
REMARK    2  A    between atoms: C_7  and  C_5 
REMARK    3  A    between atoms: C_20  and  S_12 
REMARK    4  A    between atoms: C_14  and  C_20 
REMARK    5  A    between atoms: O_21  and  C_14 
ROOT
ATOM      1  C   UNL d   1      52.676  33.596  53.703  0.00  0.00     0.095 A 
ATOM      2  C   UNL d   1      53.146  32.245  53.531  0.00  0.00     0.108 A 
ATOM      3  N   UNL d   1      51.892  32.648  52.949  0.00  0.00    -0.217 NA
ATOM      4  C   UNL d   1      51.996  33.416  53.258  0.00  0.00     0.122 A 
ATOM      5  C   UNL d   1      53.249  33.007  53.837  0.00  0.00     0.047 A 
ATOM      6  C   UNL d   1      52.466  32.065  53.086  0.00  0.00     0.194 A 
ATOM      7  C   UNL d   1      53.709  31.684  53.669  0.00  0.00     0.104 C 
ATOM      8  C   UNL d   1      52.786  34.355  54.012  0.00  0.00     0.103 C 
ATOM      9  N   UNL d   1      52.894  35.100  54.316  0.00  0.00    -0.191 NA
ATOM     10  N   UNL d   1      54.260  31.128  53.801  0.00  0.00    -0.191 NA
ATOM     11  N   UNL d   1      52.362  31.297  52.777  0.00  0.00    -0.126 N 
ENDROOT
BRANCH   5  12
ATOM     12  C   UNL d   1      53.909  33.182  54.269  0.00  0.00     0.102 A 
ATOM     13  O   UNL d   1      54.610  33.454  53.967  0.00  0.00    -0.305 OA
ATOM     14  C   UNL d   1      55.140  33.561  54.613  0.00  0.00     0.123 A 
ATOM     15  C   UNL d   1      54.748  33.353  55.267  0.00  0.00     0.029 A 
ATOM     16  C   UNL d   1      54.003  33.121  55.086  0.00  0.00     0.027 A 
ENDBRANCH   5  12
BRANCH   4  17
ATOM     17  S   UNL d   1      51.422  33.998  53.121  0.00  0.00    -0.061 SA
BRANCH  17  18
ATOM     18  C   UNL d   1      50.752  33.822  52.726  0.00  0.00     0.105 C 
BRANCH  18  19
ATOM     19  C   UNL d   1      50.193  34.372  52.623  0.00  0.00     0.303 C 
ATOM     20  O   UNL d   1      50.000  34.707  53.019  0.00  0.00    -0.259 OA
BRANCH  19  21
ATOM     21  O   UNL d   1      49.863  34.473  51.897  0.00  0.00    -0.295 OA
ATOM     22  C   UNL d   1      49.121  34.767  51.831  0.00  0.00     0.185 C 
ENDBRANCH  19  21
ENDBRANCH  18  19
ENDBRANCH  17  18
ENDBRANCH   4  17
TORSDOF 5
ENDMDL
MODEL 2
REMARK VINA RESULT:      -8.5      1.982      3.951
REMARK  5 active torsions:
REMARK  status: ('A' for Active; 'I' for Inactive)
REMARK    1  A    between atoms: S_12  and  C_4 
REMARK    2  A    between atoms: C_7  and  C_5 
REMARK    3  A    between atoms: C_20  and  S_12 
REMARK    4  A    between atoms: C_14  and  C_20 
REMARK    5  A    between atoms: O_21  and  C_14 
ROOT
ATOM      1  C   UNL d   1      53.017  32.514  53.613  0.00  0.00     0.095 A 
ATOM      2  C   UNL d   1      53.564  33.462  54.550  0.00  0.00     0.108 A 
ATOM      3  N   UNL d   1      53.978  32.083  54.600  0.00  0.00    -0.217 NA
ATOM      4  C   UNL d   1      53.475  31.909  53.958  0.00  0.00     0.122 A 
ATOM      5  C   UNL d   1      53.065  33.289  53.913  0.00  0.00     0.047 A 
ATOM      6  C   UNL d   1      54.022  32.857  54.895  0.00  0.00     0.194 A 
ATOM      7  C   UNL d   1      53.601  34.217  54.830  0.00  0.00     0.104 C 
ATOM      8  C   UNL d   1      52.517  32.350  52.976  0.00  0.00     0.103 C 
ATOM      9  N   UNL d   1      52.025  32.188  52.350  0.00  0.00    -0.191 NA
ATOM     10  N   UNL d   1      53.642  34.959  55.111  0.00  0.00    -0.191 NA
ATOM     11  N   UNL d   1      54.524  33.031  55.537  0.00  0.00    -0.126 N 
ENDROOT
BRANCH   5  12
ATOM     12  C   UNL d   1      52.622  33.875  53.578  0.00  0.00     0.102 A 
ATOM     13  O   UNL d   1      51.861  34.064  53.783  0.00  0.00    -0.305 OA
ATOM     14  C   UNL d   1      51.618  34.706  53.295  0.00  0.00     0.123 A 
ATOM     15  C   UNL d   1      52.228  34.877  52.823  0.00  0.00     0.029 A 
ATOM     16  C   UNL d   1      52.846  34.389  52.974  0.00  0.00     0.027 A 
ENDBRANCH   5  12
BRANCH   4  17
ATOM     17  S   UNL d   1      53.431  31.136  53.664  0.00  0.00    -0.061 SA
BRANCH  17  18
ATOM     18  C   UNL d   1      53.587  30.513  54.136  0.00  0.00     0.105 C 
BRANCH  18  19
ATOM     19  C   UNL d   1      53.489  29.775  53.870  0.00  0.00     0.303 C 
ATOM     20  O   UNL d   1      53.701  29.576  53.399  0.00  0.00    -0.259 OA
BRANCH  19  21
ATOM     21  O   UNL d   1      53.053  29.251  54.296  0.00  0.00    -0.295 OA
ATOM     22  C   UNL d   1      53.412  28.645  54.676  0.00  0.00     0.185 C 
ENDBRANCH  19  21
ENDBRANCH  18  19
ENDBRANCH  17  18
ENDBRANCH   4  17
TORSDOF 5
ENDMDL
MODEL 3
REMARK VINA RESULT:      -7.8      1.024      2.112
REMARK  5 active torsions:
REMARK  status: ('A' for Active; 'I' for Inactive)
REMARK    1  A    between atoms: S_12  and  C_4 
REMARK    2  A    between atoms: C_7  and  C_5 
REMARK    3  A    between atoms: C_20  and  S_12 
REMARK    4  A    between atoms: C_14  and  C_20 
REMARK    5  A    between atoms: O_21  and  C_14 
ROOT
ATOM      1  C   UNL d   1      52.368  33.493  53.293  0.00  0.00     0.095 A 
ATOM      2  C   UNL d   1      53.159  34.301  54.187  0.00  0.00     0.108 A 
ATOM      3  N   UNL d   1      51.985  34.858  53.566  0.00  0.00    -0.217 NA
ATOM      4  C   UNL d   1      51.847  34.133  53.176  0.00  0.00     0.122 A 
ATOM      5  C   UNL d   1      53.023  33.582  53.800  0.00  0.00     0.047 A 
ATOM      6  C   UNL d   1      52.639  34.941  54.070  0.00  0.00     0.194 A 
ATOM      7  C   UNL d   1      53.797  34.373  54.675  0.00  0.00     0.104 C 
ATOM      8  C   UNL d   1      52.239  32.773  52.911  0.00  0.00     0.103 C 
ATOM      9  N   UNL d   1      52.112  32.064  52.535  0.00  0.00    -0.191 NA
ATOM     10  N   UNL d   1      54.424  34.450  55.156  0.00  0.00    -0.191 NA
ATOM     11  N   UNL d   1      52.776  35.665  54.460  0.00  0.00    -0.126 N 
ENDROOT
BRANCH   5  12
ATOM     12  C   UNL d   1      53.527  32.962  53.913  0.00  0.00     0.102 A 
ATOM     13  O   UNL d   1      53.451  32.392  54.485  0.00  0.00    -0.305 OA
ATOM     14  C   UNL d   1      54.097  31.859  54.399  0.00  0.00     0.123 A 
ATOM     15  C   UNL d   1      54.530  32.120  53.792  0.00  0.00     0.029 A 
ATOM     16  C   UNL d   1      54.207  32.785  53.482  0.00  0.00     0.027 A 
ENDBRANCH   5  12
BRANCH   4  17
ATOM     17  S   UNL d   1      51.194  34.052  52.674  0.00  0.00    -0.061 SA
BRANCH  17  18
ATOM     18  C   UNL d   1      50.581  34.559  52.719  0.00  0.00     0.105 C 
BRANCH  18  19
ATOM     19  C   UNL d   1      49.987  34.515  52.200  0.00  0.00     0.303 C 
ATOM     20  O   UNL d   1      50.039  34.373  51.667  0.00  0.00    -0.259 OA
BRANCH  19  21
ATOM     21  O   UNL d   1      49.237  34.684  52.436  0.00  0.00    -0.295 OA
ATOM     22  C   UNL d   1      48.690  34.918  51.901  0.00  0.00     0.185 C 
ENDBRANCH  19  21
ENDBRANCH  18  19
ENDBRANCH  17  18
ENDBRANCH   4  17
TORSDOF 5
ENDMDL
MODEL 4
REMARK VINA RESULT:      -7.5      1.821      3.529
REMARK  5 active torsions:
REMARK  status: ('A' for Active; 'I' for Inactive)
REMARK    1  A    between atoms: S_12  and  C_4 
REMARK    2  A    between atoms: C_7  and  C_5 
REMARK    3  A    between atoms: C_20  and  S_12 
REMARK    4  A    between atoms: C_14  and  C_20 
REMARK    5  A    between atoms: O_21  and  C_14 
ROOT
ATOM      1  C   UNL d   1      53.064  32.937  53.715  0.00  0.00     0.095 A 
ATOM      2  C   UNL d   1      51.835  33.578  53.319  0.00  0.00     0.108 A 
ATOM      3  N   UNL d   1      52.025  32.172  53.069  0.00  0.00    -0.217 NA
ATOM      4  C   UNL d   1      52.782  32.212  53.416  0.00  0.00     0.122 A 
ATOM      5  C   UNL d   1      52.587  33.617  53.664  0.00  0.00     0.047 A 
ATOM      6  C   UNL d   1      51.553  32.853  53.020  0.00  0.00     0.194 A 
ATOM      7  C   UNL d   1      51.384  34.245  53.276  0.00  0.00     0.104 C 
ATOM      8  C   UNL d   1      53.813  32.985  54.060  0.00  0.00     0.103 C 
ATOM      9  N   UNL d   1      54.549  33.032  54.400  0.00  0.00    -0.191 NA
ATOM     10  N   UNL d   1      50.935  34.898  53.231  0.00  0.00    -0.191 NA
ATOM     11  N   UNL d   1      50.796  32.813  52.673  0.00  0.00    -0.126 N 
ENDROOT
BRANCH   5  12
ATOM     12  C   UNL d   1      52.860  34.320  53.953  0.00  0.00     0.102 A 
ATOM     13  O   UNL d   1      52.812  34.561  54.725  0.00  0.00    -0.305 OA
ATOM     14  C   UNL d   1      53.165  35.324  54.776  0.00  0.00     0.123 A 
ATOM     15  C   UNL d   1      53.408  35.512  54.048  0.00  0.00     0.029 A 
ATOM     16  C   UNL d   1      53.235  34.922  53.533  0.00  0.00     0.027 A 
ENDBRANCH   5  12
BRANCH   4  17
ATOM     17  S   UNL d   1      53.251  31.532  53.464  0.00  0.00    -0.061 SA
BRANCH  17  18
ATOM     18  C   UNL d   1      52.946  30.815  53.297  0.00  0.00     0.105 C 
BRANCH  18  19
ATOM     19  C   UNL d   1      53.333  30.157  53.503  0.00  0.00     0.303 C 
ATOM     20  O   UNL d   1      53.840  30.019  53.330  0.00  0.00    -0.259 OA
BRANCH  19  21
ATOM     21  O   UNL d   1      52.986  29.630  54.002  0.00  0.00    -0.295 OA
ATOM     22  C   UNL d   1      53.397  28.995  54.265  0.00  0.00     0.185 C 
ENDBRANCH  19  21
ENDBRANCH  18  19
ENDBRANCH  17  18
ENDBRANCH   4  17
TORSDOF 5
ENDMDL
