MODEL 1
REMARK VINA RESULT:      -0.4      0.000      0.000
REMARK  8 active torsions:
REMARK  status: ('A' for Active; 'I' for Inactive)
REMARK    1  A    between atoms: C_4  and  C_1 
REMARK    2  A    between atoms: N_6  and  C_3 
REMARK    3  A    between atoms: O_18  and  C_4 
REMARK       I    between atoms: C_7  and  N_6 
REMARK    4  A    between atoms: C_16  and  C_7 
REMARK    5  A    between atoms: C_10  and  C_8 
REMARK    6  A    between atoms: C_9  and  S_11 
REMARK    7  A    between atoms: S_11  and  C_16 
REMARK    8  A    between atoms: C_24  and  O_18 
ROOT
ATOM      1  N   UNL d   1     -42.223-123.596 -49.828  0.00  0.00    -0.207 NA
ATOM      2  C   UNL d   1     -41.628-123.174 -50.214  0.00  0.00     0.286 C 
ATOM      3  O   UNL d   1     -41.123-122.687 -49.780  0.00  0.00    -0.265 OA
ENDROOT
BRANCH   2   4
ATOM      4  C   UNL d   1     -41.538-123.239 -51.029  0.00  0.00     0.099 C 
BRANCH   4   5
ATOM      5  S   UNL d   1     -41.174-122.634 -51.446  0.00  0.00    -0.061 SA
BRANCH   5   6
ATOM      6  C   UNL d   1     -41.361-122.501 -52.238  0.00  0.00     0.133 A 
ATOM      7  N   UNL d   1     -41.779-121.833 -52.462  0.00  0.00    -0.141 NA
ATOM      8  N   UNL d   1     -41.966-121.701 -53.254  0.00  0.00    -0.148 NA
ATOM      9  C   UNL d   1     -41.731-122.245 -53.833  0.00  0.00     0.104 A 
ATOM     10  C   UNL d   1     -41.308-122.921 -53.610  0.00  0.00     0.023 A 
ATOM     11  C   UNL d   1     -41.123-123.050 -52.819  0.00  0.00     0.029 A 
BRANCH   9  12
ATOM     12  C   UNL d   1     -41.918-122.113 -54.626  0.00  0.00     0.039 A 
ATOM     13  C   UNL d   1     -42.622-121.753 -54.819  0.00  0.00     0.101 A 
ATOM     14  N   UNL d   1     -42.811-121.619 -55.604  0.00  0.00    -0.242 NA
ATOM     15  C   UNL d   1     -42.283-121.853 -56.203  0.00  0.00     0.099 A 
ATOM     16  C   UNL d   1     -41.576-122.215 -56.003  0.00  0.00     0.021 A 
ATOM     17  C   UNL d   1     -41.381-122.351 -55.213  0.00  0.00     0.005 A 
ENDBRANCH   9  12
ENDBRANCH   5   6
ENDBRANCH   4   5
ENDBRANCH   2   4
BRANCH   1  18
ATOM     18  C   UNL d   1     -42.312-123.531 -49.017  0.00  0.00     0.090 A 
ATOM     19  C   UNL d   1     -43.044-123.325 -48.697  0.00  0.00     0.081 A 
ATOM     20  C   UNL d   1     -43.134-123.260 -47.882  0.00  0.00     0.007 A 
ATOM     21  C   UNL d   1     -42.496-123.400 -47.384  0.00  0.00     0.000 A 
ATOM     22  C   UNL d   1     -41.752-123.609 -47.698  0.00  0.00     0.002 A 
ATOM     23  C   UNL d   1     -41.670-123.672 -48.518  0.00  0.00     0.019 A 
BRANCH  19  24
ATOM     24  C   UNL d   1     -43.677-123.187 -49.199  0.00  0.00     0.302 C 
ATOM     25  O   UNL d   1     -44.041-123.817 -49.578  0.00  0.00    -0.259 OA
BRANCH  24  26
ATOM     26  O   UNL d   1     -43.949-122.422 -49.325  0.00  0.00    -0.271 OA
BRANCH  26  27
ATOM     27  C   UNL d   1     -44.506-122.276 -49.916  0.00  0.00     0.126 C 
ATOM     28  C   UNL d   1     -44.550-121.524 -50.258  0.00  0.00     0.029 C 
ENDBRANCH  26  27
ENDBRANCH  24  26
ENDBRANCH  19  24
ENDBRANCH   1  18
TORSDOF 8
ENDMDL
