MODEL 1
REMARK VINA RESULT:      -7.8      0.000      0.000
REMARK  5 active torsions:
REMARK  status: ('A' for Active; 'I' for Inactive)
REMARK    1  A    between atoms: N_2  and  S_1 
REMARK    2  A    between atoms: C_3  and  S_1 
REMARK    3  A    between atoms: C_8  and  N_2 
REMARK    4  A    between atoms: C_12  and  C_8 
REMARK    5  A    between atoms: O_13  and  C_9 
ROOT
ATOM      1  S   UNL d   1      51.837  33.993  52.936  0.00  0.00     0.285 S 
ATOM      2  O   UNL d   1      52.101  34.757  52.767  0.00  0.00    -0.198 OA
ATOM      3  O   UNL d   1      51.571  33.221  53.106  0.00  0.00    -0.198 OA
ENDROOT
BRANCH   1   4
ATOM      4  N   UNL d   1      52.568  33.815  53.274  0.00  0.00    -0.157 NA
BRANCH   4   5
ATOM      5  C   UNL d   1      52.621  33.653  54.079  0.00  0.00     0.112 C 
BRANCH   5   6
ATOM      6  C   UNL d   1      53.359  33.534  54.428  0.00  0.00     0.020 A 
ATOM      7  C   UNL d   1      53.744  34.160  54.794  0.00  0.00     0.002 A 
ATOM      8  C   UNL d   1      54.482  34.041  55.144  0.00  0.00     0.000 A 
ATOM      9  C   UNL d   1      54.831  33.296  55.126  0.00  0.00     0.000 A 
ATOM     10  C   UNL d   1      54.435  32.671  54.755  0.00  0.00     0.000 A 
ATOM     11  C   UNL d   1      53.697  32.790  54.405  0.00  0.00     0.002 A 
ENDBRANCH   5   6
ENDBRANCH   4   5
ENDBRANCH   1   4
BRANCH   1  12
ATOM     12  C   UNL d   1      51.106  34.171  52.598  0.00  0.00     0.105 A 
ATOM     13  C   UNL d   1      50.997  34.096  51.785  0.00  0.00     0.015 A 
ATOM     14  C   UNL d   1      50.263  34.274  51.445  0.00  0.00     0.025 A 
ATOM     15  C   UNL d   1      49.640  34.528  51.920  0.00  0.00     0.094 A 
ATOM     16  C   UNL d   1      49.744  34.605  52.740  0.00  0.00     0.025 A 
ATOM     17  C   UNL d   1      50.479  34.427  53.080  0.00  0.00     0.015 A 
BRANCH  15  18
ATOM     18  O   UNL d   1      48.909  34.705  51.581  0.00  0.00    -0.328 OA
ATOM     19  C   UNL d   1      48.777  34.548  50.776  0.00  0.00     0.181 C 
ENDBRANCH  15  18
ENDBRANCH   1  12
TORSDOF 5
ENDMDL
MODEL 2
REMARK VINA RESULT:      -7.6      2.325      3.649
REMARK  5 active torsions:
REMARK  status: ('A' for Active; 'I' for Inactive)
REMARK    1  A    between atoms: N_2  and  S_1 
REMARK    2  A    between atoms: C_3  and  S_1 
REMARK    3  A    between atoms: C_8  and  N_2 
REMARK    4  A    between atoms: C_12  and  C_8 
REMARK    5  A    between atoms: O_13  and  C_9 
ROOT
ATOM      1  S   UNL d   1      52.929  32.880  53.463  0.00  0.00     0.285 S 
ATOM      2  O   UNL d   1      52.129  32.879  53.663  0.00  0.00    -0.198 OA
ATOM      3  O   UNL d   1      53.739  32.880  53.261  0.00  0.00    -0.198 OA
ENDROOT
BRANCH   1   4
ATOM      4  N   UNL d   1      52.876  32.085  53.248  0.00  0.00    -0.157 NA
BRANCH   4   5
ATOM      5  C   UNL d   1      53.433  31.545  53.524  0.00  0.00     0.112 C 
BRANCH   5   6
ATOM      6  C   UNL d   1      53.268  30.737  53.509  0.00  0.00     0.020 A 
ATOM      7  C   UNL d   1      52.894  30.408  52.856  0.00  0.00     0.002 A 
ATOM      8  C   UNL d   1      52.729  29.600  52.841  0.00  0.00     0.000 A 
ATOM      9  C   UNL d   1      52.938  29.125  53.479  0.00  0.00     0.000 A 
ATOM     10  C   UNL d   1      53.314  29.466  54.134  0.00  0.00     0.000 A 
ATOM     11  C   UNL d   1      53.479  30.274  54.148  0.00  0.00     0.002 A 
ENDBRANCH   5   6
ENDBRANCH   4   5
ENDBRANCH   1   4
BRANCH   1  12
ATOM     12  C   UNL d   1      52.983  33.674  53.678  0.00  0.00     0.105 A 
ATOM     13  C   UNL d   1      53.290  33.884  54.413  0.00  0.00     0.015 A 
ATOM     14  C   UNL d   1      53.343  34.682  54.629  0.00  0.00     0.025 A 
ATOM     15  C   UNL d   1      53.090  35.268  54.109  0.00  0.00     0.094 A 
ATOM     16  C   UNL d   1      52.779  35.061  53.367  0.00  0.00     0.025 A 
ATOM     17  C   UNL d   1      52.725  34.263  53.151  0.00  0.00     0.015 A 
BRANCH  15  18
ATOM     18  O   UNL d   1      53.143  36.062  54.324  0.00  0.00    -0.328 OA
ATOM     19  C   UNL d   1      52.922  36.299  55.089  0.00  0.00     0.181 C 
ENDBRANCH  15  18
ENDBRANCH   1  12
TORSDOF 5
ENDMDL
MODEL 3
REMARK VINA RESULT:      -7.2      1.073      4.676
REMARK  5 active torsions:
REMARK  status: ('A' for Active; 'I' for Inactive)
REMARK    1  A    between atoms: N_2  and  S_1 
REMARK    2  A    between atoms: C_3  and  S_1 
REMARK    3  A    between atoms: C_8  and  N_2 
REMARK    4  A    between atoms: C_12  and  C_8 
REMARK    5  A    between atoms: O_13  and  C_9 
ROOT
ATOM      1  S   UNL d   1      52.108  34.013  53.164  0.00  0.00     0.285 S 
ATOM      2  O   UNL d   1      51.731  33.303  53.351  0.00  0.00    -0.198 OA
ATOM      3  O   UNL d   1      52.488  34.730  52.975  0.00  0.00    -0.198 OA
ENDROOT
BRANCH   1   4
ATOM      4  N   UNL d   1      51.465  34.230  52.695  0.00  0.00    -0.157 NA
BRANCH   4   5
ATOM      5  C   UNL d   1      50.698  34.085  52.954  0.00  0.00     0.112 C 
BRANCH   5   6
ATOM      6  C   UNL d   1      50.055  34.391  52.536  0.00  0.00     0.020 A 
ATOM      7  C   UNL d   1      49.948  34.189  51.747  0.00  0.00     0.002 A 
ATOM      8  C   UNL d   1      49.305  34.495  51.329  0.00  0.00     0.000 A 
ATOM      9  C   UNL d   1      48.774  35.000  51.701  0.00  0.00     0.000 A 
ATOM     10  C   UNL d   1      48.891  35.198  52.497  0.00  0.00     0.000 A 
ATOM     11  C   UNL d   1      49.533  34.892  52.915  0.00  0.00     0.002 A 
ENDBRANCH   5   6
ENDBRANCH   4   5
ENDBRANCH   1   4
BRANCH   1  12
ATOM     12  C   UNL d   1      52.750  33.795  53.633  0.00  0.00     0.105 A 
ATOM     13  C   UNL d   1      52.936  34.230  54.306  0.00  0.00     0.015 A 
ATOM     14  C   UNL d   1      53.582  34.012  54.778  0.00  0.00     0.025 A 
ATOM     15  C   UNL d   1      54.039  33.359  54.573  0.00  0.00     0.094 A 
ATOM     16  C   UNL d   1      53.856  32.917  53.895  0.00  0.00     0.025 A 
ATOM     17  C   UNL d   1      53.210  33.135  53.423  0.00  0.00     0.015 A 
BRANCH  15  18
ATOM     18  O   UNL d   1      54.682  33.141  55.042  0.00  0.00    -0.328 OA
ATOM     19  C   UNL d   1      55.255  33.707  55.246  0.00  0.00     0.181 C 
ENDBRANCH  15  18
ENDBRANCH   1  12
TORSDOF 5
ENDMDL
MODEL 4
REMARK VINA RESULT:      -7.2      2.520      4.341
REMARK  5 active torsions:
REMARK  status: ('A' for Active; 'I' for Inactive)
REMARK    1  A    between atoms: N_2  and  S_1 
REMARK    2  A    between atoms: C_3  and  S_1 
REMARK    3  A    between atoms: C_8  and  N_2 
REMARK    4  A    between atoms: C_12  and  C_8 
REMARK    5  A    between atoms: O_13  and  C_9 
ROOT
ATOM      1  S   UNL d   1      53.173  31.955  53.429  0.00  0.00     0.285 S 
ATOM      2  O   UNL d   1      53.979  31.987  53.604  0.00  0.00    -0.198 OA
ATOM      3  O   UNL d   1      52.359  31.922  53.251  0.00  0.00    -0.198 OA
ENDROOT
BRANCH   1   4
ATOM      4  N   UNL d   1      53.167  32.771  53.306  0.00  0.00    -0.157 NA
BRANCH   4   5
ATOM      5  C   UNL d   1      52.654  33.248  53.737  0.00  0.00     0.112 C 
BRANCH   5   6
ATOM      6  C   UNL d   1      52.811  34.053  53.821  0.00  0.00     0.020 A 
ATOM      7  C   UNL d   1      52.750  34.552  53.172  0.00  0.00     0.002 A 
ATOM      8  C   UNL d   1      52.907  35.358  53.256  0.00  0.00     0.000 A 
ATOM      9  C   UNL d   1      53.125  35.660  53.989  0.00  0.00     0.000 A 
ATOM     10  C   UNL d   1      53.184  35.150  54.639  0.00  0.00     0.000 A 
ATOM     11  C   UNL d   1      53.026  34.344  54.554  0.00  0.00     0.002 A 
ENDBRANCH   5   6
ENDBRANCH   4   5
ENDBRANCH   1   4
BRANCH   1  12
ATOM     12  C   UNL d   1      53.179  31.139  53.551  0.00  0.00     0.105 A 
ATOM     13  C   UNL d   1      53.602  30.819  54.180  0.00  0.00     0.015 A 
ATOM     14  C   UNL d   1      53.608  29.999  54.303  0.00  0.00     0.025 A 
ATOM     15  C   UNL d   1      53.191  29.503  53.796  0.00  0.00     0.094 A 
ATOM     16  C   UNL d   1      52.763  29.821  53.159  0.00  0.00     0.025 A 
ATOM     17  C   UNL d   1      52.757  30.641  53.036  0.00  0.00     0.015 A 
BRANCH  15  18
ATOM     18  O   UNL d   1      53.197  28.687  53.918  0.00  0.00    -0.328 OA
ATOM     19  C   UNL d   1      53.401  28.383  54.663  0.00  0.00     0.181 C 
ENDBRANCH  15  18
ENDBRANCH   1  12
TORSDOF 5
ENDMDL
