MODEL 1
REMARK VINA RESULT:     192.7      0.000      0.000
REMARK  6 active torsions:
REMARK  status: ('A' for Active; 'I' for Inactive)
REMARK    1  A    between atoms: N_7  and  C_1 
REMARK    2  A    between atoms: C_6  and  C_4 
REMARK    3  A    between atoms: C_20  and  N_9 
REMARK    4  A    between atoms: C_23  and  C_13 
REMARK    5  A    between atoms: O_19  and  C_23 
REMARK    6  A    between atoms: C_21  and  O_19 
ROOT
ATOM      1  C   UNL d   1     -56.127-100.525 -41.809  0.00  0.00     0.198 A 
ATOM      2  C   UNL d   1     -56.272-101.109 -42.380  0.00  0.00     0.191 A 
ATOM      3  O   UNL d   1     -56.200 -99.789 -42.158  0.00  0.00    -0.268 OA
ATOM      4  C   UNL d   1     -56.387 -99.900 -42.930  0.00  0.00     0.208 A 
ATOM      5  N   UNL d   1     -56.436-100.712 -43.084  0.00  0.00    -0.206 NA
ATOM      6  C   UNL d   1     -56.262-101.946 -42.288  0.00  0.00     0.124 C 
ATOM      7  N   UNL d   1     -56.250-102.779 -42.189  0.00  0.00    -0.190 NA
ENDROOT
BRANCH   1   8
ATOM      8  N   UNL d   1     -55.944-100.758 -41.033  0.00  0.00    -0.280 N 
ATOM      9  C   UNL d   1     -55.297-101.226 -40.901  0.00  0.00     0.101 A 
ATOM     10  C   UNL d   1     -55.116-101.457 -40.131  0.00  0.00     0.100 A 
ATOM     11  N   UNL d   1     -55.585-101.215 -39.512  0.00  0.00    -0.301 N 
ATOM     12  C   UNL d   1     -56.255-100.731 -39.644  0.00  0.00     0.100 A 
ATOM     13  C   UNL d   1     -56.436-100.499 -40.415  0.00  0.00     0.101 A 
BRANCH  11  14
ATOM     14  C   UNL d   1     -55.404-101.445 -38.745  0.00  0.00     0.064 A 
ATOM     15  C   UNL d   1     -55.057-100.915 -38.238  0.00  0.00     0.018 A 
ATOM     16  C   UNL d   1     -54.875-101.148 -37.463  0.00  0.00     0.002 A 
ATOM     17  C   UNL d   1     -55.046-101.902 -37.224  0.00  0.00     0.000 A 
ATOM     18  C   UNL d   1     -55.399-102.452 -37.730  0.00  0.00     0.002 A 
ATOM     19  C   UNL d   1     -55.582-102.219 -38.506  0.00  0.00     0.018 A 
ENDBRANCH  11  14
ENDBRANCH   1   8
BRANCH   4  20
ATOM     20  C   UNL d   1     -56.576 -99.737 -43.725  0.00  0.00     0.141 A 
ATOM     21  O   UNL d   1     -57.102 -99.720 -44.352  0.00  0.00    -0.301 OA
ATOM     22  C   UNL d   1     -56.691 -99.423 -44.991  0.00  0.00     0.125 A 
ATOM     23  C   UNL d   1     -55.938 -99.250 -44.806  0.00  0.00     0.029 A 
ATOM     24  C   UNL d   1     -55.850 -99.442 -44.016  0.00  0.00     0.030 A 
BRANCH  22  25
ATOM     25  C   UNL d   1     -56.993 -99.302 -45.756  0.00  0.00     0.147 C 
BRANCH  25  26
ATOM     26  O   UNL d   1     -57.609 -99.754 -46.069  0.00  0.00    -0.303 OA
BRANCH  26  27
ATOM     27  C   UNL d   1     -58.356 -99.472 -46.105  0.00  0.00     0.100 A 
ATOM     28  C   UNL d   1     -58.765 -99.440 -46.819  0.00  0.00     0.023 A 
ATOM     29  C   UNL d   1     -58.389 -99.713 -47.537  0.00  0.00     0.002 C 
ATOM     30  C   UNL d   1     -59.523 -99.158 -46.881  0.00  0.00     0.002 A 
ATOM     31  C   UNL d   1     -59.900 -98.890 -46.188  0.00  0.00     0.000 A 
ATOM     32  C   UNL d   1     -59.511 -98.911 -45.464  0.00  0.00     0.002 A 
ATOM     33  C   UNL d   1     -58.745 -99.203 -45.438  0.00  0.00     0.025 A 
ENDBRANCH  26  27
ENDBRANCH  25  26
ENDBRANCH  22  25
ENDBRANCH   4  20
TORSDOF 6
ENDMDL
