MODEL 1
REMARK VINA RESULT:      -1.8      0.000      0.000
REMARK  3 active torsions:
REMARK  status: ('A' for Active; 'I' for Inactive)
REMARK    1  A    between atoms: C_7  and  N_1 
REMARK    2  A    between atoms: N_3  and  C_8 
REMARK    3  A    between atoms: C_11  and  C_4 
ROOT
ATOM      1  N   UNL d   1      31.775  17.860 -24.540  0.00  0.00    -0.230 N 
ATOM      2  N   UNL d   1      31.841  18.617 -24.840  0.00  0.00    -0.165 NA
ATOM      3  C   UNL d   1      32.538  17.599 -24.320  0.00  0.00     0.084 A 
ATOM      4  C   UNL d   1      32.634  18.838 -24.811  0.00  0.00     0.103 A 
ATOM      5  C   UNL d   1      33.062  18.216 -24.494  0.00  0.00     0.040 A 
ATOM      6  C   UNL d   1      32.867  19.602 -25.089  0.00  0.00     0.022 C 
ENDROOT
BRANCH   1   7
ATOM      7  C   UNL d   1      31.077  17.439 -24.473  0.00  0.00     0.083 A 
ATOM      8  C   UNL d   1      30.637  17.486 -23.781  0.00  0.00     0.021 A 
ATOM      9  C   UNL d   1      29.933  17.062 -23.712  0.00  0.00     0.025 A 
ATOM     10  C   UNL d   1      29.663  16.588 -24.330  0.00  0.00     0.127 A 
ATOM     11  C   UNL d   1      30.106  16.540 -25.024  0.00  0.00     0.025 A 
ATOM     12  C   UNL d   1      30.813  16.968 -25.091  0.00  0.00     0.021 A 
BRANCH  10  13
ATOM     13  N   UNL d   1      28.947  16.159 -24.253  0.00  0.00    -0.114 N 
ATOM     14  O   UNL d   1      28.350  16.303 -23.660  0.00  0.00    -0.532 OA
ATOM     15  O   UNL d   1      28.716  15.525 -24.751  0.00  0.00    -0.532 OA
ENDBRANCH  10  13
ENDBRANCH   1   7
BRANCH   3  16
ATOM     16  C   UNL d   1      32.775  16.876 -23.990  0.00  0.00     0.018 A 
ATOM     17  C   UNL d   1      32.776  16.802 -23.159  0.00  0.00     0.002 A 
ATOM     18  C   UNL d   1      33.012  16.081 -22.808  0.00  0.00     0.000 A 
ATOM     19  C   UNL d   1      33.241  15.453 -23.288  0.00  0.00     0.000 A 
ATOM     20  C   UNL d   1      33.238  15.531 -24.105  0.00  0.00     0.000 A 
ATOM     21  C   UNL d   1      33.009  16.233 -24.468  0.00  0.00     0.002 A 
ENDBRANCH   3  16
TORSDOF 3
ENDMDL
MODEL 2
REMARK VINA RESULT:      -1.6      1.207      2.283
REMARK  3 active torsions:
REMARK  status: ('A' for Active; 'I' for Inactive)
REMARK    1  A    between atoms: C_7  and  N_1 
REMARK    2  A    between atoms: N_3  and  C_8 
REMARK    3  A    between atoms: C_11  and  C_4 
ROOT
ATOM      1  N   UNL d   1      31.799  16.907 -24.508  0.00  0.00    -0.230 N 
ATOM      2  N   UNL d   1      32.027  16.191 -24.829  0.00  0.00    -0.165 NA
ATOM      3  C   UNL d   1      32.487  17.315 -24.264  0.00  0.00     0.084 A 
ATOM      4  C   UNL d   1      32.848  16.142 -24.793  0.00  0.00     0.103 A 
ATOM      5  C   UNL d   1      33.132  16.829 -24.447  0.00  0.00     0.040 A 
ATOM      6  C   UNL d   1      33.241  15.454 -25.089  0.00  0.00     0.022 C 
ENDROOT
BRANCH   1   7
ATOM      7  C   UNL d   1      31.027  17.169 -24.440  0.00  0.00     0.083 A 
ATOM      8  C   UNL d   1      30.573  16.940 -23.795  0.00  0.00     0.021 A 
ATOM      9  C   UNL d   1      29.794  17.204 -23.726  0.00  0.00     0.025 A 
ATOM     10  C   UNL d   1      29.464  17.696 -24.298  0.00  0.00     0.127 A 
ATOM     11  C   UNL d   1      29.919  17.925 -24.946  0.00  0.00     0.025 A 
ATOM     12  C   UNL d   1      30.702  17.659 -25.013  0.00  0.00     0.021 A 
BRANCH  10  13
ATOM     13  N   UNL d   1      28.672  17.961 -24.222  0.00  0.00    -0.114 N 
ATOM     14  O   UNL d   1      28.032  17.505 -23.887  0.00  0.00    -0.532 OA
ATOM     15  O   UNL d   1      28.396  18.714 -24.467  0.00  0.00    -0.532 OA
ENDBRANCH  10  13
ENDBRANCH   1   7
BRANCH   3  16
ATOM     16  C   UNL d   1      32.562  18.059 -23.907  0.00  0.00     0.018 A 
ATOM     17  C   UNL d   1      32.743  18.715 -24.391  0.00  0.00     0.002 A 
ATOM     18  C   UNL d   1      32.823  19.473 -24.049  0.00  0.00     0.000 A 
ATOM     19  C   UNL d   1      32.721  19.563 -23.237  0.00  0.00     0.000 A 
ATOM     20  C   UNL d   1      32.543  18.916 -22.766  0.00  0.00     0.000 A 
ATOM     21  C   UNL d   1      32.460  18.161 -23.085  0.00  0.00     0.002 A 
ENDBRANCH   3  16
TORSDOF 3
ENDMDL
