MODEL 1
REMARK VINA RESULT:      -2.1      0.000      0.000
REMARK  7 active torsions:
REMARK  status: ('A' for Active; 'I' for Inactive)
REMARK    1  A    between atoms: C_3  and  C_1 
REMARK    2  A    between atoms: C_6  and  C_2 
REMARK       I    between atoms: N_5  and  C_3 
REMARK    3  A    between atoms: C_9  and  N_5 
REMARK    4  A    between atoms: N_10  and  C_9 
REMARK    5  A    between atoms: C_15  and  N_10 
REMARK    6  A    between atoms: C_13  and  C_15 
REMARK    7  A    between atoms: C_17  and  C_13 
ROOT
ATOM      1  C   UNL d   1      31.958  18.195 -24.510  0.00  0.00     0.285 C 
ATOM      2  N   UNL d   1      32.047  18.707 -23.871  0.00  0.00    -0.179 NA
ATOM      3  O   UNL d   1      32.537  18.156 -25.097  0.00  0.00    -0.265 OA
ENDROOT
BRANCH   1   4
ATOM      4  C   UNL d   1      31.276  17.717 -24.558  0.00  0.00     0.103 A 
ATOM      5  C   UNL d   1      31.226  16.926 -24.350  0.00  0.00     0.116 A 
ATOM      6  N   UNL d   1      30.456  16.674 -24.484  0.00  0.00    -0.126 NA
ATOM      7  O   UNL d   1      30.030  17.317 -24.778  0.00  0.00    -0.211 OA
ATOM      8  C   UNL d   1      30.537  17.958 -24.822  0.00  0.00     0.131 A 
ATOM      9  C   UNL d   1      30.329  18.713 -25.089  0.00  0.00     0.029 C 
BRANCH   5  10
ATOM     10  C   UNL d   1      31.818  16.435 -24.054  0.00  0.00     0.031 A 
ATOM     11  C   UNL d   1      31.725  16.064 -23.326  0.00  0.00     0.059 A 
ATOM     12 CL   UNL d   1      31.029  16.181 -22.880  0.00  0.00    -0.082 Cl
ATOM     13  C   UNL d   1      32.310  15.578 -23.033  0.00  0.00     0.011 A 
ATOM     14  C   UNL d   1      32.998  15.459 -23.471  0.00  0.00     0.001 A 
ATOM     15  C   UNL d   1      33.096  15.824 -24.194  0.00  0.00     0.000 A 
ATOM     16  C   UNL d   1      32.507  16.316 -24.493  0.00  0.00     0.002 A 
ENDBRANCH   5  10
ENDBRANCH   1   4
BRANCH   2  17
ATOM     17  C   UNL d   1      32.718  19.182 -23.817  0.00  0.00     0.224 C 
ATOM     18  S   UNL d   1      33.099  19.433 -24.504  0.00  0.00    -0.037 SA
BRANCH  17  19
ATOM     19  N   UNL d   1      33.004  19.405 -23.077  0.00  0.00    -0.212 NA
BRANCH  19  20
ATOM     20  C   UNL d   1      32.557  19.912 -22.603  0.00  0.00     0.143 C 
BRANCH  20  21
ATOM     21  C   UNL d   1      32.809  20.098 -21.836  0.00  0.00     0.215 C 
ATOM     22  O   UNL d   1      33.166  19.528 -21.366  0.00  0.00    -0.285 OA
BRANCH  21  23
ATOM     23  C   UNL d   1      32.699  20.863 -21.544  0.00  0.00     0.041 A 
ATOM     24  C   UNL d   1      33.033  21.506 -21.928  0.00  0.00     0.003 A 
ATOM     25  C   UNL d   1      32.924  22.271 -21.637  0.00  0.00     0.000 A 
ATOM     26  C   UNL d   1      32.473  22.388 -20.954  0.00  0.00     0.000 A 
ATOM     27  C   UNL d   1      32.139  21.744 -20.570  0.00  0.00     0.000 A 
ATOM     28  C   UNL d   1      32.249  20.979 -20.861  0.00  0.00     0.003 A 
ENDBRANCH  21  23
ENDBRANCH  20  21
ENDBRANCH  19  20
ENDBRANCH  17  19
ENDBRANCH   2  17
TORSDOF 7
ENDMDL
