MODEL 1
REMARK VINA RESULT:      -7.5      0.000      0.000
REMARK  5 active torsions:
REMARK  status: ('A' for Active; 'I' for Inactive)
REMARK    1  A    between atoms: C_18  and  N_1 
REMARK    2  A    between atoms: C_13  and  C_6 
REMARK    3  A    between atoms: C_12  and  C_7 
REMARK    4  A    between atoms: C_23  and  C_14 
REMARK    5  A    between atoms: C_19  and  C_18 
ROOT
ATOM      1  C   UNL d   1     -46.252  10.812  23.611  0.00  0.00     0.121 A 
ATOM      2  C   UNL d   1     -45.983  11.566  23.398  0.00  0.00     0.058 A 
ATOM      3  N   UNL d   1     -45.590  10.328  23.698  0.00  0.00    -0.195 NA
ATOM      4  S   UNL d   1     -47.058  10.673  23.697  0.00  0.00    -0.068 SA
ATOM      5  C   UNL d   1     -47.603  11.282  23.570  0.00  0.00     0.026 A 
ATOM      6  C   UNL d   1     -47.334  12.036  23.356  0.00  0.00    -0.001 A 
ATOM      7  C   UNL d   1     -48.516  11.507  23.566  0.00  0.00    -0.011 A 
ATOM      8  C   UNL d   1     -48.108  12.306  23.333  0.00  0.00    -0.027 A 
ATOM      9  C   UNL d   1     -46.521  12.177  23.270  0.00  0.00     0.008 A 
ATOM     10  C   UNL d   1     -44.917  10.780  23.539  0.00  0.00     0.311 A 
ATOM     11  S   UNL d   1     -45.158  11.541  23.354  0.00  0.00    -0.024 SA
ATOM     12  C   UNL d   1     -49.258  11.177  23.698  0.00  0.00     0.049 A 
ATOM     13  O   UNL d   1     -44.138  10.510  23.563  0.00  0.00    -0.258 OA
ENDROOT
BRANCH   9  14
ATOM     14  C   UNL d   1     -46.255  12.924  23.059  0.00  0.00     0.001 A 
ATOM     15  C   UNL d   1     -46.031  13.084  22.282  0.00  0.00     0.000 A 
ATOM     16  C   UNL d   1     -45.763  13.834  22.070  0.00  0.00     0.000 A 
ATOM     17  C   UNL d   1     -45.716  14.436  22.631  0.00  0.00     0.000 A 
ATOM     18  C   UNL d   1     -45.942  14.278  23.414  0.00  0.00     0.000 A 
ATOM     19  C   UNL d   1     -46.209  13.528  23.626  0.00  0.00     0.000 A 
ENDBRANCH   9  14
BRANCH   8  20
ATOM     20  C   UNL d   1     -48.384  13.057  23.153  0.00  0.00     0.125 A 
ATOM     21  C   UNL d   1     -48.877  13.488  22.651  0.00  0.00     0.251 A 
ATOM     22  N   UNL d   1     -49.228  12.953  22.127  0.00  0.00    -0.239 N 
ATOM     23  O   UNL d   1     -49.002  14.309  22.667  0.00  0.00    -0.271 OA
ATOM     24  C   UNL d   1     -48.957  12.203  22.300  0.00  0.00     0.263 A 
ATOM     25  C   UNL d   1     -48.428  12.265  22.942  0.00  0.00     0.044 A 
ATOM     26  O   UNL d   1     -49.173  11.509  21.904  0.00  0.00    -0.267 OA
BRANCH  22  27
ATOM     27  C   UNL d   1     -49.776  13.148  21.512  0.00  0.00     0.134 C 
ATOM     28  C   UNL d   1     -49.498  13.373  20.747  0.00  0.00     0.026 C 
BRANCH  27  29
ATOM     29  C   UNL d   1     -50.613  13.117  21.665  0.00  0.00     0.228 C 
ATOM     30  O   UNL d   1     -50.984  13.739  22.105  0.00  0.00    -0.643 OA
ATOM     31  O   UNL d   1     -51.064  12.469  21.378  0.00  0.00    -0.643 OA
ENDBRANCH  27  29
ENDBRANCH  22  27
ENDBRANCH   8  20
TORSDOF 5
ENDMDL
MODEL 2
REMARK VINA RESULT:      -6.6      1.981      4.670
REMARK  5 active torsions:
REMARK  status: ('A' for Active; 'I' for Inactive)
REMARK    1  A    between atoms: C_18  and  N_1 
REMARK    2  A    between atoms: C_13  and  C_6 
REMARK    3  A    between atoms: C_12  and  C_7 
REMARK    4  A    between atoms: C_23  and  C_14 
REMARK    5  A    between atoms: C_19  and  C_18 
ROOT
ATOM      1  C   UNL d   1     -48.991  14.969  22.431  0.00  0.00     0.121 A 
ATOM      2  C   UNL d   1     -49.227  14.180  22.526  0.00  0.00     0.058 A 
ATOM      3  N   UNL d   1     -49.654  15.399  22.197  0.00  0.00    -0.195 NA
ATOM      4  S   UNL d   1     -48.210  15.184  22.571  0.00  0.00    -0.068 SA
ATOM      5  C   UNL d   1     -47.656  14.617  22.806  0.00  0.00     0.026 A 
ATOM      6  C   UNL d   1     -47.891  13.827  22.901  0.00  0.00    -0.001 A 
ATOM      7  C   UNL d   1     -46.757  14.471  23.041  0.00  0.00    -0.011 A 
ATOM      8  C   UNL d   1     -47.126  13.625  23.116  0.00  0.00    -0.027 A 
ATOM      9  C   UNL d   1     -48.679  13.610  22.760  0.00  0.00     0.008 A 
ATOM     10  C   UNL d   1     -50.295  14.879  22.148  0.00  0.00     0.311 A 
ATOM     11  S   UNL d   1     -50.033  14.130  22.350  0.00  0.00    -0.024 SA
ATOM     12  C   UNL d   1     -46.044  14.874  23.130  0.00  0.00     0.049 A 
ATOM     13  O   UNL d   1     -51.064  15.083  21.931  0.00  0.00    -0.258 OA
ENDROOT
BRANCH   9  14
ATOM     14  C   UNL d   1     -48.912  12.830  22.854  0.00  0.00     0.001 A 
ATOM     15  C   UNL d   1     -49.142  12.547  23.594  0.00  0.00     0.000 A 
ATOM     16  C   UNL d   1     -49.376  11.763  23.688  0.00  0.00     0.000 A 
ATOM     17  C   UNL d   1     -49.383  11.247  23.044  0.00  0.00     0.000 A 
ATOM     18  C   UNL d   1     -49.151  11.529  22.298  0.00  0.00     0.000 A 
ATOM     19  C   UNL d   1     -48.918  12.313  22.204  0.00  0.00     0.000 A 
ENDBRANCH   9  14
BRANCH   8  20
ATOM     20  C   UNL d   1     -46.829  12.889  23.324  0.00  0.00     0.125 A 
ATOM     21  C   UNL d   1     -46.201  12.365  23.218  0.00  0.00     0.251 A 
ATOM     22  N   UNL d   1     -45.663  12.723  22.701  0.00  0.00    -0.239 N 
ATOM     23  O   UNL d   1     -46.120  11.615  23.565  0.00  0.00    -0.271 OA
ATOM     24  C   UNL d   1     -45.952  13.456  22.491  0.00  0.00     0.263 A 
ATOM     25  C   UNL d   1     -46.683  13.563  22.879  0.00  0.00     0.044 A 
ATOM     26  O   UNL d   1     -45.581  13.992  21.981  0.00  0.00    -0.267 OA
BRANCH  22  27
ATOM     27  C   UNL d   1     -44.933  12.387  22.435  0.00  0.00     0.134 C 
ATOM     28  C   UNL d   1     -44.546  11.791  22.890  0.00  0.00     0.026 C 
BRANCH  27  29
ATOM     29  C   UNL d   1     -44.587  12.650  21.703  0.00  0.00     0.228 C 
ATOM     30  O   UNL d   1     -44.963  12.462  20.968  0.00  0.00    -0.643 OA
ATOM     31  O   UNL d   1     -43.875  13.096  21.717  0.00  0.00    -0.643 OA
ENDBRANCH  27  29
ENDBRANCH  22  27
ENDBRANCH   8  20
TORSDOF 5
ENDMDL
MODEL 3
REMARK VINA RESULT:      -6.0      1.725      3.940
REMARK  5 active torsions:
REMARK  status: ('A' for Active; 'I' for Inactive)
REMARK    1  A    between atoms: C_18  and  N_1 
REMARK    2  A    between atoms: C_13  and  C_6 
REMARK    3  A    between atoms: C_12  and  C_7 
REMARK    4  A    between atoms: C_23  and  C_14 
REMARK    5  A    between atoms: C_19  and  C_18 
ROOT
ATOM      1  C   UNL d   1     -48.823  11.599  23.555  0.00  0.00     0.121 A 
ATOM      2  C   UNL d   1     -48.928  12.366  23.256  0.00  0.00     0.058 A 
ATOM      3  N   UNL d   1     -49.571  11.273  23.670  0.00  0.00    -0.195 NA
ATOM      4  S   UNL d   1     -48.063  11.309  23.678  0.00  0.00    -0.068 SA
ATOM      5  C   UNL d   1     -47.403  11.776  23.507  0.00  0.00     0.026 A 
ATOM      6  C   UNL d   1     -47.509  12.543  23.209  0.00  0.00    -0.001 A 
ATOM      7  C   UNL d   1     -46.464  11.809  23.508  0.00  0.00    -0.011 A 
ATOM      8  C   UNL d   1     -46.696  12.644  23.181  0.00  0.00    -0.027 A 
ATOM      9  C   UNL d   1     -48.274  12.837  23.084  0.00  0.00     0.008 A 
ATOM     10  C   UNL d   1     -50.134  11.834  23.445  0.00  0.00     0.311 A 
ATOM     11  S   UNL d   1     -49.740  12.505  23.190  0.00  0.00    -0.024 SA
ATOM     12  C   UNL d   1     -45.806  11.349  23.696  0.00  0.00     0.049 A 
ATOM     13  O   UNL d   1     -50.952  11.731  23.472  0.00  0.00    -0.258 OA
ENDROOT
BRANCH   9  14
ATOM     14  C   UNL d   1     -48.378  13.594  22.789  0.00  0.00     0.001 A 
ATOM     15  C   UNL d   1     -48.520  13.716  21.986  0.00  0.00     0.000 A 
ATOM     16  C   UNL d   1     -48.625  14.477  21.689  0.00  0.00     0.000 A 
ATOM     17  C   UNL d   1     -48.590  15.131  22.191  0.00  0.00     0.000 A 
ATOM     18  C   UNL d   1     -48.448  15.012  23.000  0.00  0.00     0.000 A 
ATOM     19  C   UNL d   1     -48.343  14.250  23.297  0.00  0.00     0.000 A 
ENDBRANCH   9  14
BRANCH   8  20
ATOM     20  C   UNL d   1     -46.269  13.299  22.934  0.00  0.00     0.125 A 
ATOM     21  C   UNL d   1     -45.639  13.551  22.464  0.00  0.00     0.251 A 
ATOM     22  N   UNL d   1     -45.314  12.881  22.104  0.00  0.00    -0.239 N 
ATOM     23  O   UNL d   1     -45.376  14.334  22.368  0.00  0.00    -0.271 OA
ATOM     24  C   UNL d   1     -45.734  12.226  22.345  0.00  0.00     0.263 A 
ATOM     25  C   UNL d   1     -46.333  12.484  22.866  0.00  0.00     0.044 A 
ATOM     26  O   UNL d   1     -45.587  11.445  22.112  0.00  0.00    -0.267 OA
BRANCH  22  27
ATOM     27  C   UNL d   1     -44.655  12.875  21.572  0.00  0.00     0.134 C 
ATOM     28  C   UNL d   1     -44.779  12.881  20.737  0.00  0.00     0.026 C 
BRANCH  27  29
ATOM     29  C   UNL d   1     -43.862  12.863  21.881  0.00  0.00     0.228 C 
ATOM     30  O   UNL d   1     -43.504  12.125  22.095  0.00  0.00    -0.643 OA
ATOM     31  O   UNL d   1     -43.440  13.584  21.972  0.00  0.00    -0.643 OA
ENDBRANCH  27  29
ENDBRANCH  22  27
ENDBRANCH   8  20
TORSDOF 5
ENDMDL
MODEL 4
REMARK VINA RESULT:      -5.7      8.049      9.758
REMARK  5 active torsions:
REMARK  status: ('A' for Active; 'I' for Inactive)
REMARK    1  A    between atoms: C_18  and  N_1 
REMARK    2  A    between atoms: C_13  and  C_6 
REMARK    3  A    between atoms: C_12  and  C_7 
REMARK    4  A    between atoms: C_23  and  C_14 
REMARK    5  A    between atoms: C_19  and  C_18 
ROOT
ATOM      1  C   UNL d   1     -41.580  15.745  17.864  0.00  0.00     0.121 A 
ATOM      2  C   UNL d   1     -40.828  15.561  17.569  0.00  0.00     0.058 A 
ATOM      3  N   UNL d   1     -42.093  15.799  17.221  0.00  0.00    -0.195 NA
ATOM      4  S   UNL d   1     -41.692  15.838  18.674  0.00  0.00    -0.068 SA
ATOM      5  C   UNL d   1     -41.057  15.748  19.196  0.00  0.00     0.026 A 
ATOM      6  C   UNL d   1     -40.305  15.563  18.901  0.00  0.00    -0.001 A 
ATOM      7  C   UNL d   1     -40.796  15.770  20.099  0.00  0.00    -0.011 A 
ATOM      8  C   UNL d   1     -40.005  15.565  19.664  0.00  0.00    -0.027 A 
ATOM      9  C   UNL d   1     -40.192  15.470  18.085  0.00  0.00     0.008 A 
ATOM     10  C   UNL d   1     -41.660  15.649  16.533  0.00  0.00     0.311 A 
ATOM     11  S   UNL d   1     -40.883  15.502  16.746  0.00  0.00    -0.024 SA
ATOM     12  C   UNL d   1     -41.103  15.900  20.852  0.00  0.00     0.049 A 
ATOM     13  O   UNL d   1     -41.962  15.647  15.766  0.00  0.00    -0.258 OA
ENDROOT
BRANCH   9  14
ATOM     14  C   UNL d   1     -39.448  15.287  17.793  0.00  0.00     0.001 A 
ATOM     15  C   UNL d   1     -39.246  14.507  17.619  0.00  0.00     0.000 A 
ATOM     16  C   UNL d   1     -38.498  14.323  17.325  0.00  0.00     0.000 A 
ATOM     17  C   UNL d   1     -37.940  14.916  17.201  0.00  0.00     0.000 A 
ATOM     18  C   UNL d   1     -38.140  15.703  17.375  0.00  0.00     0.000 A 
ATOM     19  C   UNL d   1     -38.887  15.887  17.668  0.00  0.00     0.000 A 
ENDBRANCH   9  14
BRANCH   8  20
ATOM     20  C   UNL d   1     -39.236  15.423  19.913  0.00  0.00     0.125 A 
ATOM     21  C   UNL d   1     -38.770  14.980  20.429  0.00  0.00     0.251 A 
ATOM     22  N   UNL d   1     -39.275  14.489  20.862  0.00  0.00    -0.239 N 
ATOM     23  O   UNL d   1     -37.943  15.018  20.503  0.00  0.00    -0.271 OA
ATOM     24  C   UNL d   1     -40.041  14.625  20.619  0.00  0.00     0.263 A 
ATOM     25  C   UNL d   1     -40.021  15.209  20.025  0.00  0.00     0.044 A 
ATOM     26  O   UNL d   1     -40.715  14.245  20.914  0.00  0.00    -0.267 OA
BRANCH  22  27
ATOM     27  C   UNL d   1     -39.038  13.936  21.458  0.00  0.00     0.134 C 
ATOM     28  C   UNL d   1     -38.729  13.181  21.242  0.00  0.00     0.026 C 
BRANCH  27  29
ATOM     29  C   UNL d   1     -39.112  14.143  22.281  0.00  0.00     0.228 C 
ATOM     30  O   UNL d   1     -39.589  13.667  22.793  0.00  0.00    -0.643 OA
ATOM     31  O   UNL d   1     -38.710  14.819  22.577  0.00  0.00    -0.643 OA
ENDBRANCH  27  29
ENDBRANCH  22  27
ENDBRANCH   8  20
TORSDOF 5
ENDMDL
