MODEL 1
REMARK VINA RESULT:      -4.2      0.000      0.000
REMARK  7 active torsions:
REMARK  status: ('A' for Active; 'I' for Inactive)
REMARK    1  A    between atoms: N_3  and  C_2 
REMARK       I    between atoms: C_6  and  N_3 
REMARK    2  A    between atoms: C_11  and  C_4 
REMARK    3  A    between atoms: C_5  and  C_6 
REMARK    4  A    between atoms: C_15  and  C_11 
REMARK    5  A    between atoms: C_18  and  C_12 
REMARK    6  A    between atoms: O_17  and  C_18 
REMARK    7  A    between atoms: C_19  and  O_17 
ROOT
ATOM      1  C   UNL d   1     -41.433-122.657 -51.540  0.00  0.00     0.158 A 
ATOM      2  O   UNL d   1     -41.418-123.164 -50.892  0.00  0.00    -0.300 OA
ATOM      3  C   UNL d   1     -41.302-121.891 -51.266  0.00  0.00     0.032 A 
ATOM      4  C   UNL d   1     -41.278-122.716 -50.216  0.00  0.00     0.125 A 
ATOM      5  C   UNL d   1     -41.206-121.927 -50.442  0.00  0.00     0.029 A 
ENDROOT
BRANCH   1   6
ATOM      6  C   UNL d   1     -41.558-122.876 -52.330  0.00  0.00     0.304 C 
ATOM      7  N   UNL d   1     -41.123-122.513 -52.930  0.00  0.00    -0.180 NA
ATOM      8  O   UNL d   1     -42.116-123.453 -52.507  0.00  0.00    -0.263 OA
BRANCH   7   9
ATOM      9  C   UNL d   1     -41.246-122.729 -53.717  0.00  0.00     0.216 A 
ATOM     10  N   UNL d   1     -41.395-122.204 -54.351  0.00  0.00    -0.200 NA
ATOM     11  C   UNL d   1     -41.482-122.654 -55.025  0.00  0.00     0.175 A 
ATOM     12  N   UNL d   1     -41.389-123.449 -54.824  0.00  0.00    -0.187 NA
ATOM     13  S   UNL d   1     -41.242-123.491 -54.008  0.00  0.00     0.054 SA
BRANCH  11  14
ATOM     14  C   UNL d   1     -41.635-122.371 -55.780  0.00  0.00     0.082 C 
BRANCH  14  15
ATOM     15  C   UNL d   1     -42.298-121.889 -55.913  0.00  0.00     0.199 C 
ATOM     16  O   UNL d   1     -43.059-122.194 -55.807  0.00  0.00    -0.286 OA
ATOM     17  C   UNL d   1     -42.199-121.104 -56.150  0.00  0.00     0.045 C 
ENDBRANCH  14  15
ENDBRANCH  11  14
ENDBRANCH   7   9
ENDBRANCH   1   6
BRANCH   4  18
ATOM     18  C   UNL d   1     -41.221-123.006 -49.448  0.00  0.00     0.147 C 
BRANCH  18  19
ATOM     19  O   UNL d   1     -41.868-123.396 -49.109  0.00  0.00    -0.303 OA
BRANCH  19  20
ATOM     20  C   UNL d   1     -41.883-123.536 -48.298  0.00  0.00     0.100 A 
ATOM     21  C   UNL d   1     -41.173-123.630 -47.878  0.00  0.00     0.025 A 
ATOM     22  C   UNL d   1     -41.188-123.771 -47.067  0.00  0.00     0.002 A 
ATOM     23  C   UNL d   1     -41.913-123.817 -46.676  0.00  0.00     0.000 A 
ATOM     24  C   UNL d   1     -42.621-123.723 -47.093  0.00  0.00     0.002 A 
ATOM     25  C   UNL d   1     -42.606-123.583 -47.903  0.00  0.00     0.025 A 
ENDBRANCH  19  20
ENDBRANCH  18  19
ENDBRANCH   4  18
TORSDOF 7
ENDMDL
MODEL 2
REMARK VINA RESULT:      -3.6      2.045      6.287
REMARK  7 active torsions:
REMARK  status: ('A' for Active; 'I' for Inactive)
REMARK    1  A    between atoms: N_3  and  C_2 
REMARK       I    between atoms: C_6  and  N_3 
REMARK    2  A    between atoms: C_11  and  C_4 
REMARK    3  A    between atoms: C_5  and  C_6 
REMARK    4  A    between atoms: C_15  and  C_11 
REMARK    5  A    between atoms: C_18  and  C_12 
REMARK    6  A    between atoms: O_17  and  C_18 
REMARK    7  A    between atoms: C_19  and  O_17 
ROOT
ATOM      1  C   UNL d   1     -41.638-123.190 -51.437  0.00  0.00     0.158 A 
ATOM      2  O   UNL d   1     -41.957-122.577 -51.883  0.00  0.00    -0.300 OA
ATOM      3  C   UNL d   1     -41.140-123.628 -51.926  0.00  0.00     0.032 A 
ATOM      4  C   UNL d   1     -41.660-122.630 -52.648  0.00  0.00     0.125 A 
ATOM      5  C   UNL d   1     -41.153-123.280 -52.681  0.00  0.00     0.029 A 
ENDROOT
BRANCH   1   6
ATOM      6  C   UNL d   1     -41.789-123.344 -50.636  0.00  0.00     0.304 C 
ATOM      7  N   UNL d   1     -42.459-123.022 -50.275  0.00  0.00    -0.180 NA
ATOM      8  O   UNL d   1     -41.270-123.816 -50.209  0.00  0.00    -0.263 OA
BRANCH   7   9
ATOM      9  C   UNL d   1     -42.610-123.174 -49.479  0.00  0.00     0.216 A 
ATOM     10  N   UNL d   1     -42.375-122.693 -48.836  0.00  0.00    -0.200 NA
ATOM     11  C   UNL d   1     -42.640-123.051 -48.153  0.00  0.00     0.175 A 
ATOM     12  N   UNL d   1     -43.035-123.745 -48.358  0.00  0.00    -0.187 NA
ATOM     13  S   UNL d   1     -43.015-123.817 -49.184  0.00  0.00     0.054 SA
BRANCH  11  14
ATOM     14  C   UNL d   1     -42.534-122.773 -47.388  0.00  0.00     0.082 C 
BRANCH  14  15
ATOM     15  C   UNL d   1     -41.855-122.988 -46.962  0.00  0.00     0.199 C 
ATOM     16  O   UNL d   1     -41.325-122.406 -46.708  0.00  0.00    -0.286 OA
ATOM     17  C   UNL d   1     -41.706-123.782 -46.790  0.00  0.00     0.045 C 
ENDBRANCH  14  15
ENDBRANCH  11  14
ENDBRANCH   7   9
ENDBRANCH   1   6
BRANCH   4  18
ATOM     18  C   UNL d   1     -41.837-122.124 -53.272  0.00  0.00     0.147 C 
BRANCH  18  19
ATOM     19  O   UNL d   1     -41.389-122.159 -53.966  0.00  0.00    -0.303 OA
BRANCH  19  20
ATOM     20  C   UNL d   1     -41.754-122.049 -54.696  0.00  0.00     0.100 A 
ATOM     21  C   UNL d   1     -41.300-122.046 -55.392  0.00  0.00     0.025 A 
ATOM     22  C   UNL d   1     -41.664-121.936 -56.122  0.00  0.00     0.002 A 
ATOM     23  C   UNL d   1     -42.482-121.829 -56.157  0.00  0.00     0.000 A 
ATOM     24  C   UNL d   1     -42.934-121.832 -55.465  0.00  0.00     0.002 A 
ATOM     25  C   UNL d   1     -42.571-121.942 -54.735  0.00  0.00     0.025 A 
ENDBRANCH  19  20
ENDBRANCH  18  19
ENDBRANCH   4  18
TORSDOF 7
ENDMDL
