MODEL 1
REMARK VINA RESULT:      -5.0      0.000      0.000
REMARK  2 active torsions:
REMARK  status: ('A' for Active; 'I' for Inactive)
REMARK    1  A    between atoms: C_2  and  C_1 
REMARK    2  A    between atoms: N_6  and  C_2 
ROOT
ATOM      1  C   UNL d   1      57.137  -0.303  31.769  0.00  0.00     0.047 A 
ATOM      2  C   UNL d   1      56.998  -1.093  31.569  0.00  0.00     0.101 A 
ATOM      3  C   UNL d   1      56.588  -0.090  32.347  0.00  0.00     0.021 A 
ATOM      4  N   UNL d   1      56.365  -1.366  32.023  0.00  0.00    -0.244 NA
ATOM      5  C   UNL d   1      56.113  -0.743  32.504  0.00  0.00     0.082 A 
ATOM      6  C   UNL d   1      56.462   0.612  32.749  0.00  0.00     0.002 A 
ATOM      7  C   UNL d   1      55.512  -0.694  33.061  0.00  0.00     0.019 A 
ATOM      8  C   UNL d   1      55.860   0.664  33.308  0.00  0.00     0.000 A 
ATOM      9  C   UNL d   1      55.383   0.006  33.464  0.00  0.00     0.002 A 
ENDROOT
BRANCH   1  10
ATOM     10  C   UNL d   1      57.718   0.190  31.452  0.00  0.00     0.122 C 
ATOM     11  S   UNL d   1      58.159   0.682  31.944  0.00  0.00    -0.059 SA
BRANCH  10  12
ATOM     12  N   UNL d   1      57.853   0.186  30.636  0.00  0.00    -0.292 N 
ATOM     13  C   UNL d   1      58.429  -0.317  30.315  0.00  0.00     0.108 A 
ATOM     14  C   UNL d   1      58.564  -0.321  29.500  0.00  0.00     0.142 A 
ATOM     15  O   UNL d   1      58.125   0.176  29.008  0.00  0.00    -0.300 OA
ATOM     16  C   UNL d   1      57.551   0.678  29.331  0.00  0.00     0.142 A 
ATOM     17  C   UNL d   1      57.416   0.681  30.145  0.00  0.00     0.108 A 
ENDBRANCH  10  12
ENDBRANCH   1  10
TORSDOF 2
ENDMDL
MODEL 2
REMARK VINA RESULT:      -4.2      2.093      3.753
REMARK  2 active torsions:
REMARK  status: ('A' for Active; 'I' for Inactive)
REMARK    1  A    between atoms: C_2  and  C_1 
REMARK    2  A    between atoms: N_6  and  C_2 
ROOT
ATOM      1  C   UNL d   1      56.441  -0.282  33.062  0.00  0.00     0.047 A 
ATOM      2  C   UNL d   1      56.119  -1.044  33.067  0.00  0.00     0.101 A 
ATOM      3  C   UNL d   1      56.804  -0.169  32.329  0.00  0.00     0.021 A 
ATOM      4  N   UNL d   1      56.283  -1.399  32.340  0.00  0.00    -0.244 NA
ATOM      5  C   UNL d   1      56.708  -0.854  31.884  0.00  0.00     0.082 A 
ATOM      6  C   UNL d   1      57.208   0.469  32.013  0.00  0.00     0.002 A 
ATOM      7  C   UNL d   1      57.014  -0.902  31.125  0.00  0.00     0.019 A 
ATOM      8  C   UNL d   1      57.516   0.423  31.251  0.00  0.00     0.000 A 
ATOM      9  C   UNL d   1      57.419  -0.267  30.805  0.00  0.00     0.002 A 
ENDROOT
BRANCH   1  10
ATOM     10  C   UNL d   1      56.409   0.270  33.674  0.00  0.00     0.122 C 
ATOM     11  S   UNL d   1      57.087   0.681  33.898  0.00  0.00    -0.059 SA
BRANCH  10  12
ATOM     12  N   UNL d   1      55.691   0.407  34.060  0.00  0.00    -0.292 N 
ATOM     13  C   UNL d   1      54.999   0.527  33.618  0.00  0.00     0.108 A 
ATOM     14  C   UNL d   1      54.282   0.664  34.004  0.00  0.00     0.142 A 
ATOM     15  O   UNL d   1      54.256   0.682  34.830  0.00  0.00    -0.300 OA
ATOM     16  C   UNL d   1      54.948   0.562  35.269  0.00  0.00     0.142 A 
ATOM     17  C   UNL d   1      55.664   0.425  34.883  0.00  0.00     0.108 A 
ENDBRANCH  10  12
ENDBRANCH   1  10
TORSDOF 2
ENDMDL
MODEL 3
REMARK VINA RESULT:      -3.8      1.308      1.793
REMARK  2 active torsions:
REMARK  status: ('A' for Active; 'I' for Inactive)
REMARK    1  A    between atoms: C_2  and  C_1 
REMARK    2  A    between atoms: N_6  and  C_2 
ROOT
ATOM      1  C   UNL d   1      57.780  -0.400  30.481  0.00  0.00     0.047 A 
ATOM      2  C   UNL d   1      57.761  -1.227  30.468  0.00  0.00     0.101 A 
ATOM      3  C   UNL d   1      57.332  -0.150  31.127  0.00  0.00     0.021 A 
ATOM      4  N   UNL d   1      57.303  -1.485  31.104  0.00  0.00    -0.244 NA
ATOM      5  C   UNL d   1      57.038  -0.816  31.511  0.00  0.00     0.082 A 
ATOM      6  C   UNL d   1      57.154   0.597  31.413  0.00  0.00     0.002 A 
ATOM      7  C   UNL d   1      56.569  -0.736  32.179  0.00  0.00     0.019 A 
ATOM      8  C   UNL d   1      56.684   0.679  32.084  0.00  0.00     0.000 A 
ATOM      9  C   UNL d   1      56.390   0.008  32.468  0.00  0.00     0.002 A 
ENDROOT
BRANCH   1  10
ATOM     10  C   UNL d   1      58.172   0.092  29.948  0.00  0.00     0.122 C 
ATOM     11  S   UNL d   1      57.760   0.682  29.546  0.00  0.00    -0.059 SA
BRANCH  10  12
ATOM     12  N   UNL d   1      58.983  -0.011  29.821  0.00  0.00    -0.292 N 
ATOM     13  C   UNL d   1      59.527   0.501  30.181  0.00  0.00     0.108 A 
ATOM     14  C   UNL d   1      60.337   0.397  30.053  0.00  0.00     0.142 A 
ATOM     15  O   UNL d   1      60.602  -0.216  29.568  0.00  0.00    -0.300 OA
ATOM     16  C   UNL d   1      60.056  -0.727  29.210  0.00  0.00     0.142 A 
ATOM     17  C   UNL d   1      59.248  -0.623  29.337  0.00  0.00     0.108 A 
ENDBRANCH  10  12
ENDBRANCH   1  10
TORSDOF 2
ENDMDL
MODEL 4
REMARK VINA RESULT:      -3.1      1.567      3.472
REMARK  2 active torsions:
REMARK  status: ('A' for Active; 'I' for Inactive)
REMARK    1  A    between atoms: C_2  and  C_1 
REMARK    2  A    between atoms: N_6  and  C_2 
ROOT
ATOM      1  C   UNL d   1      57.422   0.503  31.574  0.00  0.00     0.047 A 
ATOM      2  C   UNL d   1      56.780   0.595  31.060  0.00  0.00     0.101 A 
ATOM      3  C   UNL d   1      58.111   0.528  31.121  0.00  0.00     0.021 A 
ATOM      4  N   UNL d   1      57.074   0.677  30.293  0.00  0.00    -0.244 NA
ATOM      5  C   UNL d   1      57.899   0.635  30.333  0.00  0.00     0.082 A 
ATOM      6  C   UNL d   1      58.902   0.467  31.325  0.00  0.00     0.002 A 
ATOM      7  C   UNL d   1      58.475   0.682  29.751  0.00  0.00     0.019 A 
ATOM      8  C   UNL d   1      59.482   0.514  30.743  0.00  0.00     0.000 A 
ATOM      9  C   UNL d   1      59.266   0.622  29.952  0.00  0.00     0.002 A 
ENDROOT
BRANCH   1  10
ATOM     10  C   UNL d   1      57.387   0.402  32.392  0.00  0.00     0.122 C 
ATOM     11  S   UNL d   1      57.997   0.680  32.871  0.00  0.00    -0.059 SA
BRANCH  10  12
ATOM     12  N   UNL d   1      56.733   0.021  32.727  0.00  0.00    -0.292 N 
ATOM     13  C   UNL d   1      56.152   0.465  33.118  0.00  0.00     0.108 A 
ATOM     14  C   UNL d   1      55.499   0.084  33.453  0.00  0.00     0.142 A 
ATOM     15  O   UNL d   1      55.429  -0.737  33.397  0.00  0.00    -0.300 OA
ATOM     16  C   UNL d   1      56.011  -1.178  33.006  0.00  0.00     0.142 A 
ATOM     17  C   UNL d   1      56.663  -0.797  32.671  0.00  0.00     0.108 A 
ENDBRANCH  10  12
ENDBRANCH   1  10
TORSDOF 2
ENDMDL
MODEL 5
REMARK VINA RESULT:      -2.5      1.797      4.090
REMARK  2 active torsions:
REMARK  status: ('A' for Active; 'I' for Inactive)
REMARK    1  A    between atoms: C_2  and  C_1 
REMARK    2  A    between atoms: N_6  and  C_2 
ROOT
ATOM      1  C   UNL d   1      58.787  -0.625  29.525  0.00  0.00     0.047 A 
ATOM      2  C   UNL d   1      58.501  -1.401  29.561  0.00  0.00     0.101 A 
ATOM      3  C   UNL d   1      59.550  -0.653  29.213  0.00  0.00     0.021 A 
ATOM      4  N   UNL d   1      59.088  -1.905  29.272  0.00  0.00    -0.244 NA
ATOM      5  C   UNL d   1      59.737  -1.439  29.057  0.00  0.00     0.082 A 
ATOM      6  C   UNL d   1      60.097  -0.065  29.052  0.00  0.00     0.002 A 
ATOM      7  C   UNL d   1      60.467  -1.637  28.742  0.00  0.00     0.019 A 
ATOM      8  C   UNL d   1      60.831  -0.262  28.735  0.00  0.00     0.000 A 
ATOM      9  C   UNL d   1      61.016  -1.053  28.580  0.00  0.00     0.002 A 
ENDROOT
BRANCH   1  10
ATOM     10  C   UNL d   1      58.386   0.058  29.756  0.00  0.00     0.122 C 
ATOM     11  S   UNL d   1      58.243   0.660  29.212  0.00  0.00    -0.059 SA
BRANCH  10  12
ATOM     12  N   UNL d   1      58.130   0.134  30.539  0.00  0.00    -0.292 N 
ATOM     13  C   UNL d   1      58.571   0.585  31.077  0.00  0.00     0.108 A 
ATOM     14  C   UNL d   1      58.315   0.659  31.859  0.00  0.00     0.142 A 
ATOM     15  O   UNL d   1      57.620   0.285  32.102  0.00  0.00    -0.300 OA
ATOM     16  C   UNL d   1      57.181  -0.165  31.563  0.00  0.00     0.142 A 
ATOM     17  C   UNL d   1      57.438  -0.240  30.782  0.00  0.00     0.108 A 
ENDBRANCH  10  12
ENDBRANCH   1  10
TORSDOF 2
ENDMDL
MODEL 6
REMARK VINA RESULT:      -2.0      9.165     10.115
REMARK  2 active torsions:
REMARK  status: ('A' for Active; 'I' for Inactive)
REMARK    1  A    between atoms: C_2  and  C_1 
REMARK    2  A    between atoms: N_6  and  C_2 
ROOT
ATOM      1  C   UNL d   1      59.825  -9.139  34.670  0.00  0.00     0.047 A 
ATOM      2  C   UNL d   1      59.010  -9.263  34.593  0.00  0.00     0.101 A 
ATOM      3  C   UNL d   1      60.170  -9.292  33.936  0.00  0.00     0.021 A 
ATOM      4  N   UNL d   1      58.856  -9.491  33.815  0.00  0.00    -0.244 NA
ATOM      5  C   UNL d   1      59.576  -9.509  33.410  0.00  0.00     0.082 A 
ATOM      6  C   UNL d   1      60.948  -9.261  33.682  0.00  0.00     0.002 A 
ATOM      7  C   UNL d   1      59.758  -9.694  32.632  0.00  0.00     0.019 A 
ATOM      8  C   UNL d   1      61.134  -9.447  32.902  0.00  0.00     0.000 A 
ATOM      9  C   UNL d   1      60.535  -9.665  32.375  0.00  0.00     0.002 A 
ENDROOT
BRANCH   1  10
ATOM     10  C   UNL d   1      60.225  -8.905  35.352  0.00  0.00     0.122 C 
ATOM     11  S   UNL d   1      60.737  -9.427  35.732  0.00  0.00    -0.059 SA
BRANCH  10  12
ATOM     12  N   UNL d   1      60.108  -8.142  35.650  0.00  0.00    -0.292 N 
ATOM     13  C   UNL d   1      59.369  -7.928  35.959  0.00  0.00     0.108 A 
ATOM     14  C   UNL d   1      59.253  -7.166  36.257  0.00  0.00     0.142 A 
ATOM     15  O   UNL d   1      59.873  -6.621  36.246  0.00  0.00    -0.300 OA
ATOM     16  C   UNL d   1      60.610  -6.838  35.937  0.00  0.00     0.142 A 
ATOM     17  C   UNL d   1      60.726  -7.599  35.639  0.00  0.00     0.108 A 
ENDBRANCH  10  12
ENDBRANCH   1  10
TORSDOF 2
ENDMDL
