MODEL 1
REMARK VINA RESULT:      -8.0      0.000      0.000
REMARK  2 active torsions:
REMARK  status: ('A' for Active; 'I' for Inactive)
REMARK    1  A    between atoms: C_6  and  C_2 
REMARK    2  A    between atoms: O_13  and  C_10 
ROOT
ATOM      1  C   UNL d   1      53.753  32.198  53.889  0.00  0.00     0.026 A 
ATOM      2  C   UNL d   1      53.657  32.266  54.710  0.00  0.00     0.004 A 
ATOM      3  C   UNL d   1      54.222  32.741  53.500  0.00  0.00     0.004 A 
ATOM      4  C   UNL d   1      54.495  33.408  54.721  0.00  0.00     0.094 A 
ATOM      5  C   UNL d   1      54.022  32.864  55.131  0.00  0.00     0.024 A 
ATOM      6  C   UNL d   1      54.600  33.357  53.921  0.00  0.00     0.024 A 
ENDROOT
BRANCH   1   7
ATOM      7  C   UNL d   1      53.382  31.591  53.471  0.00  0.00     0.135 A 
ATOM      8  S   UNL d   1      53.420  30.788  53.644  0.00  0.00    -0.024 SA
ATOM      9  C   UNL d   1      52.974  30.386  53.094  0.00  0.00     0.236 A 
ATOM     10  N   UNL d   1      52.648  30.934  52.567  0.00  0.00    -0.119 NA
ATOM     11  N   UNL d   1      52.864  29.569  53.065  0.00  0.00    -0.118 N 
ATOM     12  N   UNL d   1      52.902  31.686  52.802  0.00  0.00    -0.139 NA
ENDBRANCH   1   7
BRANCH   4  13
ATOM     13  O   UNL d   1      54.861  34.009  55.145  0.00  0.00    -0.328 OA
ATOM     14  C   UNL d   1      55.680  34.021  55.227  0.00  0.00     0.181 C 
ENDBRANCH   4  13
TORSDOF 2
ENDMDL
MODEL 2
REMARK VINA RESULT:      -7.8      2.557      3.599
REMARK  2 active torsions:
REMARK  status: ('A' for Active; 'I' for Inactive)
REMARK    1  A    between atoms: C_6  and  C_2 
REMARK    2  A    between atoms: O_13  and  C_10 
ROOT
ATOM      1  C   UNL d   1      53.256  32.820  53.832  0.00  0.00     0.026 A 
ATOM      2  C   UNL d   1      52.655  32.683  53.277  0.00  0.00     0.004 A 
ATOM      3  C   UNL d   1      53.757  32.206  54.033  0.00  0.00     0.004 A 
ATOM      4  C   UNL d   1      53.073  31.336  53.146  0.00  0.00     0.094 A 
ATOM      5  C   UNL d   1      52.557  31.948  52.932  0.00  0.00     0.024 A 
ATOM      6  C   UNL d   1      53.664  31.452  53.685  0.00  0.00     0.024 A 
ENDROOT
BRANCH   1   7
ATOM      7  C   UNL d   1      53.349  33.564  54.176  0.00  0.00     0.135 A 
ATOM      8  S   UNL d   1      52.949  34.250  53.963  0.00  0.00    -0.024 SA
ATOM      9  C   UNL d   1      53.207  34.856  54.443  0.00  0.00     0.236 A 
ATOM     10  N   UNL d   1      53.774  34.557  54.965  0.00  0.00    -0.119 NA
ATOM     11  N   UNL d   1      52.947  35.639  54.415  0.00  0.00    -0.118 N 
ATOM     12  N   UNL d   1      53.863  33.751  54.798  0.00  0.00    -0.139 NA
ENDBRANCH   1   7
BRANCH   4  13
ATOM     13  O   UNL d   1      52.973  30.598  52.799  0.00  0.00    -0.328 OA
ATOM     14  C   UNL d   1      52.913  29.923  53.265  0.00  0.00     0.181 C 
ENDBRANCH   4  13
TORSDOF 2
ENDMDL
MODEL 3
REMARK VINA RESULT:      -7.5      2.901      3.555
REMARK  2 active torsions:
REMARK  status: ('A' for Active; 'I' for Inactive)
REMARK    1  A    between atoms: C_6  and  C_2 
REMARK    2  A    between atoms: O_13  and  C_10 
ROOT
ATOM      1  C   UNL d   1      52.787  33.625  53.473  0.00  0.00     0.026 A 
ATOM      2  C   UNL d   1      52.203  33.043  53.374  0.00  0.00     0.004 A 
ATOM      3  C   UNL d   1      52.634  34.386  53.217  0.00  0.00     0.004 A 
ATOM      4  C   UNL d   1      51.345  33.996  52.773  0.00  0.00     0.094 A 
ATOM      5  C   UNL d   1      51.485  33.220  53.027  0.00  0.00     0.024 A 
ATOM      6  C   UNL d   1      51.901  34.575  52.862  0.00  0.00     0.024 A 
ENDROOT
BRANCH   1   7
ATOM      7  C   UNL d   1      53.510  33.439  53.824  0.00  0.00     0.135 A 
ATOM      8  S   UNL d   1      53.765  33.680  54.567  0.00  0.00    -0.024 SA
ATOM      9  C   UNL d   1      54.509  33.374  54.695  0.00  0.00     0.236 A 
ATOM     10  N   UNL d   1      54.732  32.935  54.030  0.00  0.00    -0.119 NA
ATOM     11  N   UNL d   1      54.966  33.482  55.373  0.00  0.00    -0.118 N 
ATOM     12  N   UNL d   1      54.108  32.976  53.487  0.00  0.00    -0.139 NA
ENDBRANCH   1   7
BRANCH   4  13
ATOM     13  O   UNL d   1      50.621  34.172  52.425  0.00  0.00    -0.328 OA
ATOM     14  C   UNL d   1      50.047  34.586  52.844  0.00  0.00     0.181 C 
ENDBRANCH   4  13
TORSDOF 2
ENDMDL
MODEL 4
REMARK VINA RESULT:      -7.2      2.324      2.730
REMARK  2 active torsions:
REMARK  status: ('A' for Active; 'I' for Inactive)
REMARK    1  A    between atoms: C_6  and  C_2 
REMARK    2  A    between atoms: O_13  and  C_10 
ROOT
ATOM      1  C   UNL d   1      52.713  33.739  53.717  0.00  0.00     0.026 A 
ATOM      2  C   UNL d   1      53.047  32.980  53.707  0.00  0.00     0.004 A 
ATOM      3  C   UNL d   1      53.010  34.294  54.237  0.00  0.00     0.004 A 
ATOM      4  C   UNL d   1      53.954  33.357  54.727  0.00  0.00     0.094 A 
ATOM      5  C   UNL d   1      53.664  32.782  54.205  0.00  0.00     0.024 A 
ATOM      6  C   UNL d   1      53.640  34.101  54.751  0.00  0.00     0.024 A 
ENDROOT
BRANCH   1   7
ATOM      7  C   UNL d   1      52.091  33.931  53.210  0.00  0.00     0.135 A 
ATOM      8  S   UNL d   1      51.291  33.922  53.399  0.00  0.00    -0.024 SA
ATOM      9  C   UNL d   1      50.869  34.149  52.740  0.00  0.00     0.236 A 
ATOM     10  N   UNL d   1      51.401  34.303  52.126  0.00  0.00    -0.119 NA
ATOM     11  N   UNL d   1      50.048  34.214  52.690  0.00  0.00    -0.118 N 
ATOM     12  N   UNL d   1      52.164  34.167  52.420  0.00  0.00    -0.139 NA
ENDBRANCH   1   7
BRANCH   4  13
ATOM     13  O   UNL d   1      54.574  33.157  55.228  0.00  0.00    -0.328 OA
ATOM     14  C   UNL d   1      55.215  33.664  55.320  0.00  0.00     0.181 C 
ENDBRANCH   4  13
TORSDOF 2
ENDMDL
