MODEL 1
REMARK VINA RESULT:      37.1      0.000      0.000
REMARK  3 active torsions:
REMARK  status: ('A' for Active; 'I' for Inactive)
REMARK    1  A    between atoms: C_8  and  C_1 
REMARK    2  A    between atoms: C_9  and  C_8 
REMARK    3  A    between atoms: O_16  and  C_13 
ROOT
ATOM      1  C   UNL d   1      60.660  49.194  51.287  0.00  0.00     0.013 A 
ATOM      2  C   UNL d   1      59.796  49.516  50.184  0.00  0.00     0.105 A 
ATOM      3  O   UNL d   1      60.449  49.596  49.700  0.00  0.00    -0.273 OA
ATOM      4  C   UNL d   1      59.897  49.312  50.989  0.00  0.00     0.023 A 
ATOM      5  C   UNL d   1      61.209  49.477  50.001  0.00  0.00     0.300 A 
ATOM      6  C   UNL d   1      61.313  49.277  50.793  0.00  0.00     0.069 A 
ATOM      7  C   UNL d   1      59.045  49.632  49.892  0.00  0.00     0.049 A 
ATOM      8  C   UNL d   1      59.244  49.231  51.478  0.00  0.00     0.004 A 
ATOM      9  O   UNL d   1      61.874  49.562  49.496  0.00  0.00    -0.259 OA
ATOM     10  C   UNL d   1      58.381  49.550  50.387  0.00  0.00     0.096 A 
ATOM     11  C   UNL d   1      58.481  49.350  51.175  0.00  0.00     0.024 A 
ENDROOT
BRANCH   1  12
ATOM     12  C   UNL d   1      60.755  48.994  52.081  0.00  0.00     0.070 C 
BRANCH  12  13
ATOM     13  C   UNL d   1      61.424  49.260  52.487  0.00  0.00     0.211 C 
ATOM     14  O   UNL d   1      61.334  49.699  53.191  0.00  0.00    -0.644 OA
ATOM     15  O   UNL d   1      62.181  49.096  52.203  0.00  0.00    -0.644 OA
ENDBRANCH  12  13
ENDBRANCH   1  12
BRANCH  10  16
ATOM     16  O   UNL d   1      57.624  49.669  50.083  0.00  0.00    -0.328 OA
ATOM     17  C   UNL d   1      57.201  49.033  49.761  0.00  0.00     0.181 C 
ENDBRANCH  10  16
TORSDOF 3
ENDMDL
MODEL 2
REMARK VINA RESULT:      39.9      1.127      1.872
REMARK  3 active torsions:
REMARK  status: ('A' for Active; 'I' for Inactive)
REMARK    1  A    between atoms: C_8  and  C_1 
REMARK    2  A    between atoms: C_9  and  C_8 
REMARK    3  A    between atoms: O_16  and  C_13 
ROOT
ATOM      1  C   UNL d   1      60.740  48.762  50.782  0.00  0.00     0.013 A 
ATOM      2  C   UNL d   1      59.637  49.466  51.379  0.00  0.00     0.105 A 
ATOM      3  O   UNL d   1      60.122  49.695  51.995  0.00  0.00    -0.273 OA
ATOM      4  C   UNL d   1      59.945  48.994  50.761  0.00  0.00     0.023 A 
ATOM      5  C   UNL d   1      60.914  49.462  52.013  0.00  0.00     0.300 A 
ATOM      6  C   UNL d   1      61.221  48.997  51.407  0.00  0.00     0.069 A 
ATOM      7  C   UNL d   1      58.856  49.693  51.357  0.00  0.00     0.049 A 
ATOM      8  C   UNL d   1      59.463  48.763  50.140  0.00  0.00     0.004 A 
ATOM      9  O   UNL d   1      61.403  49.702  52.651  0.00  0.00    -0.259 OA
ATOM     10  C   UNL d   1      58.364  49.460  50.728  0.00  0.00     0.096 A 
ATOM     11  C   UNL d   1      58.667  48.997  50.123  0.00  0.00     0.024 A 
ENDROOT
BRANCH   1  12
ATOM     12  C   UNL d   1      61.039  48.297  50.171  0.00  0.00     0.070 C 
BRANCH  12  13
ATOM     13  C   UNL d   1      61.506  47.639  50.356  0.00  0.00     0.211 C 
ATOM     14  O   UNL d   1      61.941  47.628  51.068  0.00  0.00    -0.644 OA
ATOM     15  O   UNL d   1      61.544  46.995  49.843  0.00  0.00    -0.644 OA
ENDBRANCH  12  13
ENDBRANCH   1  12
BRANCH  10  16
ATOM     16  O   UNL d   1      57.574  49.694  50.714  0.00  0.00    -0.328 OA
ATOM     17  C   UNL d   1      57.101  49.516  50.057  0.00  0.00     0.181 C 
ENDBRANCH  10  16
TORSDOF 3
ENDMDL
