MODEL 1
REMARK VINA RESULT:      47.8      0.000      0.000
REMARK  5 active torsions:
REMARK  status: ('A' for Active; 'I' for Inactive)
REMARK    1  A    between atoms: C_4  and  S_1 
REMARK    2  A    between atoms: C_12  and  S_1 
REMARK    3  A    between atoms: C_3  and  C_6 
REMARK       I    between atoms: N_8  and  C_3 
REMARK    4  A    between atoms: C_6  and  C_4 
REMARK    5  A    between atoms: C_14  and  N_8 
ROOT
ATOM      1  C   UNL d   1     -49.933  26.895  34.033  0.00  0.00     0.280 C 
ATOM      2  N   UNL d   1     -50.192  26.567  33.318  0.00  0.00    -0.208 NA
ATOM      3  O   UNL d   1     -50.253  26.613  34.751  0.00  0.00    -0.265 OA
ENDROOT
BRANCH   1   4
ATOM      4  C   UNL d   1     -49.375  27.486  34.043  0.00  0.00     0.075 C 
BRANCH   4   5
ATOM      5  C   UNL d   1     -48.984  27.616  34.662  0.00  0.00     0.104 C 
BRANCH   5   6
ATOM      6  S   UNL d   1     -48.579  28.311  34.892  0.00  0.00     0.211 S 
ATOM      7  O   UNL d   1     -49.229  28.776  34.660  0.00  0.00    -0.217 OA
ATOM      8  O   UNL d   1     -47.921  27.836  35.126  0.00  0.00    -0.217 OA
BRANCH   6   9
ATOM      9  C   UNL d   1     -48.173  28.994  35.122  0.00  0.00     0.088 A 
ATOM     10  C   UNL d   1     -47.764  29.012  35.838  0.00  0.00     0.011 A 
ATOM     11  C   UNL d   1     -47.356  29.696  36.070  0.00  0.00     0.001 A 
ATOM     12  C   UNL d   1     -47.362  30.358  35.580  0.00  0.00     0.000 A 
ATOM     13  C   UNL d   1     -47.768  30.352  34.861  0.00  0.00     0.001 A 
ATOM     14  C   UNL d   1     -48.176  29.665  34.631  0.00  0.00     0.011 A 
ENDBRANCH   6   9
ENDBRANCH   5   6
ENDBRANCH   4   5
ENDBRANCH   1   4
BRANCH   2  15
ATOM     15  C   UNL d   1     -50.761  25.966  33.315  0.00  0.00     0.087 A 
ATOM     16  C   UNL d   1     -50.518  25.181  33.317  0.00  0.00     0.045 A 
ATOM     17  C   UNL d   1     -51.082  24.584  33.314  0.00  0.00     0.121 A 
ATOM     18  O   UNL d   1     -51.005  23.755  33.315  0.00  0.00    -0.299 OA
ATOM     19  C   UNL d   1     -51.885  24.779  33.308  0.00  0.00     0.119 A 
ATOM     20  C   UNL d   1     -51.777  23.455  33.310  0.00  0.00     0.304 A 
ATOM     21  O   UNL d   1     -52.308  24.067  33.306  0.00  0.00    -0.300 OA
ATOM     22  C   UNL d   1     -52.124  25.559  33.306  0.00  0.00     0.028 A 
ATOM     23  C   UNL d   1     -51.562  26.152  33.309  0.00  0.00     0.021 A 
ENDBRANCH   2  15
TORSDOF 5
ENDMDL
