MODEL 1
REMARK VINA RESULT:      42.2      0.000      0.000
REMARK  4 active torsions:
REMARK  status: ('A' for Active; 'I' for Inactive)
REMARK    1  A    between atoms: S_3  and  N_1 
REMARK    2  A    between atoms: C_9  and  S_3 
REMARK    3  A    between atoms: C_10  and  N_5 
REMARK    4  A    between atoms: C_15  and  C_10 
ROOT
ATOM      1  N   UNL d   1      46.151 -16.713  43.389  0.00  0.00    -0.195 N 
ATOM      2  C   UNL d   1      46.274 -17.517  43.429  0.00  0.00     0.193 A 
ATOM      3  C   UNL d   1      46.464 -17.940  42.747  0.00  0.00     0.185 A 
ATOM      4  N   UNL d   1      46.481 -17.387  42.145  0.00  0.00    -0.269 N 
ATOM      5  C   UNL d   1      46.302 -16.681  42.510  0.00  0.00     0.179 A 
ATOM      6  N   UNL d   1      46.209 -17.904  44.152  0.00  0.00    -0.223 NA
ATOM      7  N   UNL d   1      46.589 -18.753  42.790  0.00  0.00    -0.224 NA
ATOM      8  C   UNL d   1      46.334 -18.716  44.192  0.00  0.00     0.101 A 
ATOM      9  C   UNL d   1      46.523 -19.139  43.514  0.00  0.00     0.101 A 
ATOM     10  C   UNL d   1      46.647 -19.953  43.562  0.00  0.00     0.021 A 
ATOM     11  C   UNL d   1      46.268 -19.098  44.915  0.00  0.00     0.021 A 
ATOM     12  C   UNL d   1      46.393 -19.910  44.955  0.00  0.00     0.002 A 
ATOM     13  C   UNL d   1      46.581 -20.329  44.276  0.00  0.00     0.002 A 
ENDROOT
BRANCH   1  14
ATOM     14  S   UNL d   1      45.947 -16.285  44.148  0.00  0.00     0.274 S 
ATOM     15  O   UNL d   1      45.887 -16.781  44.885  0.00  0.00    -0.200 OA
ATOM     16  O   UNL d   1      46.031 -17.093  44.359  0.00  0.00    -0.200 OA
BRANCH  14  17
ATOM     17  C   UNL d   1      45.794 -15.498  44.328  0.00  0.00     0.104 A 
ATOM     18  C   UNL d   1      46.348 -14.912  44.123  0.00  0.00     0.013 A 
ATOM     19  C   UNL d   1      46.187 -14.117  44.309  0.00  0.00     0.001 A 
ATOM     20  C   UNL d   1      45.485 -13.912  44.692  0.00  0.00     0.000 A 
ATOM     21  C   UNL d   1      44.936 -14.506  44.893  0.00  0.00     0.001 A 
ATOM     22  C   UNL d   1      45.329 -13.124  44.874  0.00  0.00     0.000 C 
ATOM     23  C   UNL d   1      45.092 -15.292  44.712  0.00  0.00     0.013 A 
ENDBRANCH  14  17
ENDBRANCH   1  14
BRANCH   4  24
ATOM     24  C   UNL d   1      46.644 -17.519  41.347  0.00  0.00     0.108 C 
BRANCH  24  25
ATOM     25  C   UNL d   1      46.115 -17.954  40.877  0.00  0.00     0.118 A 
ATOM     26  O   UNL d   1      45.288 -17.924  40.924  0.00  0.00    -0.304 OA
ATOM     27  C   UNL d   1      44.973 -18.450  40.351  0.00  0.00     0.123 A 
ATOM     28  C   UNL d   1      45.612 -18.801  39.954  0.00  0.00     0.029 A 
ATOM     29  C   UNL d   1      46.316 -18.492  40.282  0.00  0.00     0.028 A 
ENDBRANCH  24  25
ENDBRANCH   4  24
TORSDOF 4
ENDMDL
