MODEL 1
REMARK VINA RESULT:      41.7      0.000      0.000
REMARK  8 active torsions:
REMARK  status: ('A' for Active; 'I' for Inactive)
REMARK    1  A    between atoms: O_4  and  C_1 
REMARK    2  A    between atoms: C_15  and  C_2 
REMARK    3  A    between atoms: C_5  and  O_4 
REMARK    4  A    between atoms: C_7  and  C_5 
REMARK    5  A    between atoms: O_21  and  C_8 
REMARK    6  A    between atoms: O_22  and  C_10 
REMARK    7  A    between atoms: O_23  and  C_11 
REMARK    8  A    between atoms: N_16  and  C_15 
ROOT
ATOM      1  C   UNL d   1      46.199 -18.069  43.223  0.00  0.00     0.122 A 
ATOM      2  C   UNL d   1      46.177 -18.128  42.401  0.00  0.00     0.043 A 
ATOM      3  C   UNL d   1      46.343 -18.741  43.680  0.00  0.00     0.105 A 
ATOM      4  C   UNL d   1      46.464 -19.470  43.314  0.00  0.00     0.030 A 
ATOM      5  C   UNL d   1      46.441 -19.519  42.496  0.00  0.00     0.059 A 
ATOM      6  C   UNL d   1      46.299 -18.856  42.036  0.00  0.00     0.015 A 
ATOM      7  N   UNL d   1      46.363 -18.679  44.495  0.00  0.00    -0.242 NA
ATOM      8 CL   UNL d   1      46.567 -20.268  42.149  0.00  0.00    -0.082 Cl
ATOM      9  C   UNL d   1      46.606 -20.129  43.768  0.00  0.00     0.004 A 
ATOM     10  C   UNL d   1      46.507 -19.351  44.951  0.00  0.00     0.099 A 
ATOM     11  C   UNL d   1      46.629 -20.079  44.586  0.00  0.00     0.021 A 
ENDROOT
BRANCH   1  12
ATOM     12  O   UNL d   1      46.090 -17.413  43.564  0.00  0.00    -0.271 OA
BRANCH  12  13
ATOM     13  C   UNL d   1      45.558 -17.012  44.261  0.00  0.00     0.300 C 
ATOM     14  O   UNL d   1      45.155 -17.672  44.901  0.00  0.00    -0.259 OA
BRANCH  13  15
ATOM     15  C   UNL d   1      45.458 -16.196  44.306  0.00  0.00     0.068 A 
ATOM     16  C   UNL d   1      44.740 -15.877  44.576  0.00  0.00     0.032 A 
ATOM     17  C   UNL d   1      44.635 -15.052  44.624  0.00  0.00     0.118 A 
ATOM     18  C   UNL d   1      45.250 -14.543  44.400  0.00  0.00     0.138 A 
ATOM     19  C   UNL d   1      45.973 -14.863  44.129  0.00  0.00     0.118 A 
ATOM     20  C   UNL d   1      46.078 -15.689  44.082  0.00  0.00     0.032 A 
BRANCH  17  21
ATOM     21  O   UNL d   1      43.770 -14.970  44.945  0.00  0.00    -0.326 OA
ATOM     22  C   UNL d   1      43.488 -14.596  44.457  0.00  0.00     0.181 C 
ENDBRANCH  17  21
BRANCH  18  23
ATOM     23  O   UNL d   1      45.206 -13.947  44.423  0.00  0.00    -0.324 OA
ATOM     24  C   UNL d   1      45.707 -13.428  44.633  0.00  0.00     0.182 C 
ENDBRANCH  18  23
BRANCH  19  25
ATOM     25  O   UNL d   1      46.647 -14.430  43.883  0.00  0.00    -0.326 OA
ATOM     26  C   UNL d   1      46.481 -14.358  43.058  0.00  0.00     0.181 C 
ENDBRANCH  19  25
ENDBRANCH  13  15
ENDBRANCH  12  13
ENDBRANCH   1  12
BRANCH   2  27
ATOM     27  C   UNL d   1      46.036 -17.513  41.745  0.00  0.00     0.082 C 
BRANCH  27  28
ATOM     28  N   UNL d   1      45.882 -17.767  40.980  0.00  0.00    -0.299 N 
ATOM     29  C   UNL d   1      45.113 -17.781  40.705  0.00  0.00     0.107 A 
ATOM     30  C   UNL d   1      44.943 -18.034  39.936  0.00  0.00     0.142 A 
ATOM     31  O   UNL d   1      45.556 -18.272  39.453  0.00  0.00    -0.300 OA
ATOM     32  C   UNL d   1      46.338 -18.259  39.729  0.00  0.00     0.142 A 
ATOM     33  C   UNL d   1      46.489 -18.005  40.493  0.00  0.00     0.107 A 
ENDBRANCH  27  28
ENDBRANCH   2  27
TORSDOF 8
ENDMDL
