MODEL 1
REMARK VINA RESULT:      59.3      0.000      0.000
REMARK  6 active torsions:
REMARK  status: ('A' for Active; 'I' for Inactive)
REMARK    1  A    between atoms: C_5  and  C_4 
REMARK    2  A    between atoms: C_6  and  C_5 
REMARK       I    between atoms: N_9  and  C_6 
REMARK    3  A    between atoms: C_10  and  N_9 
REMARK    4  A    between atoms: O_14  and  C_13 
REMARK    5  A    between atoms: C_19  and  O_14 
REMARK    6  A    between atoms: C_20  and  C_19 
ROOT
ATOM      1  C   UNL d   1     -55.310-100.117 -43.235  0.00  0.00     0.281 C 
ATOM      2  N   UNL d   1     -55.327-100.356 -42.464  0.00  0.00    -0.206 NA
ATOM      3  O   UNL d   1     -55.078-100.642 -43.814  0.00  0.00    -0.265 OA
ENDROOT
BRANCH   1   4
ATOM      4  C   UNL d   1     -55.524 -99.356 -43.420  0.00  0.00     0.086 C 
BRANCH   4   5
ATOM      5  C   UNL d   1     -56.198 -99.207 -43.875  0.00  0.00     0.144 A 
ATOM      6  C   UNL d   1     -56.128 -99.036 -44.680  0.00  0.00     0.297 A 
ATOM      7  N   UNL d   1     -56.797 -98.886 -45.141  0.00  0.00    -0.205 NA
ATOM      8  O   UNL d   1     -55.382 -99.011 -45.043  0.00  0.00    -0.264 OA
ATOM      9  C   UNL d   1     -57.550 -98.910 -44.778  0.00  0.00     0.102 A 
ATOM     10  C   UNL d   1     -57.620 -99.081 -43.973  0.00  0.00     0.099 A 
ATOM     11  C   UNL d   1     -58.218 -98.761 -45.239  0.00  0.00     0.021 A 
ATOM     12  N   UNL d   1     -56.940 -99.231 -43.518  0.00  0.00    -0.239 NA
ATOM     13  C   UNL d   1     -58.361 -99.106 -43.616  0.00  0.00     0.021 A 
ATOM     14  C   UNL d   1     -59.030 -98.957 -44.071  0.00  0.00     0.002 A 
ATOM     15  C   UNL d   1     -58.959 -98.786 -44.876  0.00  0.00     0.002 A 
ENDBRANCH   4   5
ENDBRANCH   1   4
BRANCH   2  16
ATOM     16  C   UNL d   1     -55.102-101.208 -42.133  0.00  0.00     0.107 A 
ATOM     17  C   UNL d   1     -54.957-101.412 -41.340  0.00  0.00     0.118 A 
ATOM     18  C   UNL d   1     -54.769-102.200 -41.192  0.00  0.00     0.026 A 
ATOM     19  C   UNL d   1     -54.723-102.781 -41.820  0.00  0.00     0.002 A 
ATOM     20  C   UNL d   1     -54.868-102.546 -42.566  0.00  0.00     0.002 A 
ATOM     21  C   UNL d   1     -55.058-101.766 -42.738  0.00  0.00     0.021 A 
BRANCH  17  22
ATOM     22  O   UNL d   1     -54.996-100.862 -40.712  0.00  0.00    -0.304 OA
BRANCH  22  23
ATOM     23  C   UNL d   1     -54.713-101.073 -39.958  0.00  0.00     0.123 C 
BRANCH  23  24
ATOM     24  C   UNL d   1     -54.976-101.784 -39.568  0.00  0.00     0.027 C 
ATOM     25  C   UNL d   1     -54.743-101.980 -38.783  0.00  0.00     0.002 C 
ENDBRANCH  23  24
ENDBRANCH  22  23
ENDBRANCH  17  22
ENDBRANCH   2  16
TORSDOF 6
ENDMDL
