MODEL 1
REMARK VINA RESULT:      42.4      0.000      0.000
REMARK  3 active torsions:
REMARK  status: ('A' for Active; 'I' for Inactive)
REMARK    1  A    between atoms: N_8  and  C_1 
REMARK    2  A    between atoms: N_7  and  C_2 
REMARK    3  A    between atoms: C_11  and  N_8 
ROOT
ATOM      1  C   UNL d   1      46.239 -17.754  42.953  0.00  0.00     0.139 A 
ATOM      2  C   UNL d   1      46.145 -18.343  42.388  0.00  0.00     0.124 A 
ATOM      3  C   UNL d   1      46.198 -19.152  42.592  0.00  0.00     0.213 A 
ATOM      4  C   UNL d   1      46.388 -17.956  43.740  0.00  0.00     0.215 A 
ATOM      5  C   UNL d   1      46.349 -19.335  43.388  0.00  0.00     0.044 A 
ATOM      6  C   UNL d   1      46.442 -18.747  43.953  0.00  0.00     0.044 A 
ATOM      7  O   UNL d   1      46.103 -19.746  42.021  0.00  0.00    -0.285 OA
ATOM      8  O   UNL d   1      46.483 -17.362  44.311  0.00  0.00    -0.285 OA
ATOM      9  C   UNL d   1      46.402 -20.145  43.592  0.00  0.00     0.003 A 
ATOM     10  C   UNL d   1      46.592 -18.949  44.740  0.00  0.00     0.003 A 
ATOM     11  C   UNL d   1      46.553 -20.330  44.390  0.00  0.00     0.000 A 
ATOM     12  C   UNL d   1      46.647 -19.742  44.955  0.00  0.00     0.000 A 
ENDROOT
BRANCH   1  13
ATOM     13  N   UNL d   1      46.181 -16.945  42.722  0.00  0.00    -0.241 NA
BRANCH  13  14
ATOM     14  C   UNL d   1      45.948 -16.378  43.280  0.00  0.00     0.082 A 
ATOM     15  C   UNL d   1      46.480 -15.796  43.521  0.00  0.00     0.019 A 
ATOM     16  C   UNL d   1      46.248 -15.232  44.077  0.00  0.00     0.002 A 
ATOM     17  C   UNL d   1      45.487 -15.258  44.383  0.00  0.00     0.000 A 
ATOM     18  C   UNL d   1      44.959 -15.830  44.147  0.00  0.00     0.002 A 
ATOM     19  C   UNL d   1      45.191 -16.395  43.591  0.00  0.00     0.019 A 
ENDBRANCH  13  14
ENDBRANCH   1  13
BRANCH   2  20
ATOM     20  N   UNL d   1      45.993 -18.154  41.587  0.00  0.00    -0.300 N 
ATOM     21  C   UNL d   1      45.222 -18.163  41.282  0.00  0.00     0.080 A 
ATOM     22  C   UNL d   1      45.090 -17.975  40.494  0.00  0.00     0.019 A 
ATOM     23  C   UNL d   1      45.728 -17.775  39.989  0.00  0.00     0.003 A 
ATOM     24  C   UNL d   1      46.499 -17.767  40.294  0.00  0.00     0.019 A 
ATOM     25  C   UNL d   1      46.646 -17.959  41.109  0.00  0.00     0.080 A 
ENDBRANCH   2  20
TORSDOF 3
ENDMDL
