MODEL 1
REMARK VINA RESULT:       3.9      0.000      0.000
REMARK  3 active torsions:
REMARK  status: ('A' for Active; 'I' for Inactive)
REMARK    1  A    between atoms: C_4  and  C_1 
REMARK       I    between atoms: N_7  and  C_4 
REMARK    2  A    between atoms: C_9  and  N_7 
REMARK    3  A    between atoms: N_8  and  C_11 
ROOT
ATOM      1  C   UNL d   1     -41.729-121.338 -53.551  0.00  0.00     0.263 C 
ATOM      2  N   UNL d   1     -41.705-121.725 -52.826  0.00  0.00    -0.210 NA
ATOM      3  O   UNL d   1     -41.561-120.530 -53.601  0.00  0.00    -0.270 OA
ENDROOT
BRANCH   1   4
ATOM      4  C   UNL d   1     -41.938-121.929 -54.094  0.00  0.00     0.113 A 
ATOM      5  C   UNL d   1     -42.007-123.050 -54.946  0.00  0.00     0.025 A 
ATOM      6  C   UNL d   1     -42.136-122.409 -54.550  0.00  0.00     0.074 A 
ATOM      7  C   UNL d   1     -41.478-123.669 -55.113  0.00  0.00     0.002 C 
ATOM      8  C   UNL d   1     -42.549-123.381 -55.479  0.00  0.00     0.002 C 
ATOM      9  C   UNL d   1     -42.759-122.632 -55.047  0.00  0.00     0.012 C 
ATOM     10  C   UNL d   1     -41.592-122.216 -54.116  0.00  0.00    -0.023 A 
ATOM     11  C   UNL d   1     -42.802-121.884 -54.526  0.00  0.00     0.172 A 
ATOM     12  C   UNL d   1     -41.279-121.809 -53.652  0.00  0.00    -0.018 A 
ATOM     13  C   UNL d   1     -42.547-121.490 -54.102  0.00  0.00     0.024 A 
ATOM     14  O   UNL d   1     -43.531-121.888 -54.921  0.00  0.00    -0.291 OA
ENDBRANCH   1   4
BRANCH   2  15
ATOM     15  C   UNL d   1     -41.510-121.297 -52.140  0.00  0.00     0.100 A 
ATOM     16  C   UNL d   1     -41.514-121.682 -51.411  0.00  0.00     0.082 A 
ATOM     17  C   UNL d   1     -41.321-121.258 -50.733  0.00  0.00     0.019 A 
ATOM     18  C   UNL d   1     -41.124-120.452 -50.780  0.00  0.00     0.002 A 
ATOM     19  C   UNL d   1     -41.123-120.078 -51.516  0.00  0.00     0.002 A 
ATOM     20  C   UNL d   1     -41.315-120.499 -52.194  0.00  0.00     0.021 A 
BRANCH  16  21
ATOM     21  N   UNL d   1     -41.711-122.483 -51.366  0.00  0.00    -0.302 N 
ATOM     22  C   UNL d   1     -42.462-122.783 -51.205  0.00  0.00     0.080 A 
ATOM     23  C   UNL d   1     -42.413-123.613 -51.211  0.00  0.00     0.021 A 
ATOM     24  C   UNL d   1     -41.629-123.816 -51.378  0.00  0.00     0.021 A 
ATOM     25  C   UNL d   1     -41.193-123.118 -51.473  0.00  0.00     0.080 A 
ENDBRANCH  16  21
ENDBRANCH   2  15
TORSDOF 3
ENDMDL
MODEL 2
REMARK VINA RESULT:       4.6      2.071      3.279
REMARK  3 active torsions:
REMARK  status: ('A' for Active; 'I' for Inactive)
REMARK    1  A    between atoms: C_4  and  C_1 
REMARK       I    between atoms: N_7  and  C_4 
REMARK    2  A    between atoms: C_9  and  N_7 
REMARK    3  A    between atoms: N_8  and  C_11 
ROOT
ATOM      1  C   UNL d   1     -41.510-123.176 -50.695  0.00  0.00     0.263 C 
ATOM      2  N   UNL d   1     -42.066-122.741 -50.273  0.00  0.00    -0.210 NA
ATOM      3  O   UNL d   1     -41.124-123.817 -50.344  0.00  0.00    -0.270 OA
ENDROOT
BRANCH   1   4
ATOM      4  C   UNL d   1     -41.485-122.812 -51.440  0.00  0.00     0.113 A 
ATOM      5  C   UNL d   1     -41.354-121.939 -52.539  0.00  0.00     0.025 A 
ATOM      6  C   UNL d   1     -41.473-122.532 -52.072  0.00  0.00     0.074 A 
ATOM      7  C   UNL d   1     -41.137-121.139 -52.606  0.00  0.00     0.002 C 
ATOM      8  C   UNL d   1     -41.449-121.972 -53.362  0.00  0.00     0.002 C 
ATOM      9  C   UNL d   1     -41.602-122.699 -52.872  0.00  0.00     0.012 C 
ATOM     10  C   UNL d   1     -41.359-122.386 -51.374  0.00  0.00    -0.023 A 
ATOM     11  C   UNL d   1     -41.713-123.332 -52.224  0.00  0.00     0.172 A 
ATOM     12  C   UNL d   1     -41.333-122.541 -50.701  0.00  0.00    -0.018 A 
ATOM     13  C   UNL d   1     -41.700-123.510 -51.616  0.00  0.00     0.024 A 
ATOM     14  O   UNL d   1     -41.899-123.736 -52.923  0.00  0.00    -0.291 OA
ENDBRANCH   1   4
BRANCH   2  15
ATOM     15  C   UNL d   1     -42.238-122.952 -49.487  0.00  0.00     0.100 A 
ATOM     16  C   UNL d   1     -42.995-122.811 -49.191  0.00  0.00     0.082 A 
ATOM     17  C   UNL d   1     -43.165-123.019 -48.413  0.00  0.00     0.019 A 
ATOM     18  C   UNL d   1     -42.584-123.367 -47.932  0.00  0.00     0.002 A 
ATOM     19  C   UNL d   1     -41.831-123.502 -48.241  0.00  0.00     0.002 A 
ATOM     20  C   UNL d   1     -41.658-123.296 -49.016  0.00  0.00     0.021 A 
BRANCH  16  21
ATOM     21  N   UNL d   1     -43.571-122.465 -49.671  0.00  0.00    -0.302 N 
ATOM     22  C   UNL d   1     -43.620-121.664 -49.859  0.00  0.00     0.080 A 
ATOM     23  C   UNL d   1     -44.280-121.556 -50.353  0.00  0.00     0.021 A 
ATOM     24  C   UNL d   1     -44.633-122.296 -50.464  0.00  0.00     0.021 A 
ATOM     25  C   UNL d   1     -44.196-122.860 -50.043  0.00  0.00     0.080 A 
ENDBRANCH  16  21
ENDBRANCH   2  15
TORSDOF 3
ENDMDL
MODEL 3
REMARK VINA RESULT:       4.7      1.103      2.052
REMARK  3 active torsions:
REMARK  status: ('A' for Active; 'I' for Inactive)
REMARK    1  A    between atoms: C_4  and  C_1 
REMARK       I    between atoms: N_7  and  C_4 
REMARK    2  A    between atoms: C_9  and  N_7 
REMARK    3  A    between atoms: N_8  and  C_11 
ROOT
ATOM      1  C   UNL d   1     -41.533-123.050 -53.291  0.00  0.00     0.263 C 
ATOM      2  N   UNL d   1     -41.686-122.528 -52.675  0.00  0.00    -0.210 NA
ATOM      3  O   UNL d   1     -41.266-123.817 -53.135  0.00  0.00    -0.270 OA
ENDROOT
BRANCH   1   4
ATOM      4  C   UNL d   1     -41.707-122.618 -53.977  0.00  0.00     0.113 A 
ATOM      5  C   UNL d   1     -41.748-121.715 -55.058  0.00  0.00     0.025 A 
ATOM      6  C   UNL d   1     -41.874-122.274 -54.552  0.00  0.00     0.074 A 
ATOM      7  C   UNL d   1     -41.270-121.072 -55.279  0.00  0.00     0.002 C 
ATOM      8  C   UNL d   1     -42.221-121.580 -55.726  0.00  0.00     0.002 C 
ATOM      9  C   UNL d   1     -42.420-122.249 -55.173  0.00  0.00     0.012 C 
ATOM     10  C   UNL d   1     -41.396-122.295 -54.011  0.00  0.00    -0.023 A 
ATOM     11  C   UNL d   1     -42.472-122.875 -54.511  0.00  0.00     0.172 A 
ATOM     12  C   UNL d   1     -41.127-122.549 -53.427  0.00  0.00    -0.018 A 
ATOM     13  C   UNL d   1     -42.253-123.134 -53.976  0.00  0.00     0.024 A 
ATOM     14  O   UNL d   1     -43.116-123.056 -55.000  0.00  0.00    -0.291 OA
ENDBRANCH   1   4
BRANCH   2  15
ATOM     15  C   UNL d   1     -41.570-122.777 -51.890  0.00  0.00     0.100 A 
ATOM     16  C   UNL d   1     -41.574-122.216 -51.286  0.00  0.00     0.082 A 
ATOM     17  C   UNL d   1     -41.460-122.462 -50.509  0.00  0.00     0.019 A 
ATOM     18  C   UNL d   1     -41.341-123.266 -50.334  0.00  0.00     0.002 A 
ATOM     19  C   UNL d   1     -41.339-123.817 -50.947  0.00  0.00     0.002 A 
ATOM     20  C   UNL d   1     -41.453-123.575 -51.723  0.00  0.00     0.021 A 
BRANCH  16  21
ATOM     21  N   UNL d   1     -41.693-121.417 -51.462  0.00  0.00    -0.302 N 
ATOM     22  C   UNL d   1     -42.403-121.083 -51.715  0.00  0.00     0.080 A 
ATOM     23  C   UNL d   1     -42.277-120.269 -51.827  0.00  0.00     0.021 A 
ATOM     24  C   UNL d   1     -41.487-120.110 -51.641  0.00  0.00     0.021 A 
ATOM     25  C   UNL d   1     -41.124-120.819 -51.415  0.00  0.00     0.080 A 
ENDBRANCH  16  21
ENDBRANCH   2  15
TORSDOF 3
ENDMDL
MODEL 4
REMARK VINA RESULT:       6.6      2.024      4.310
REMARK  3 active torsions:
REMARK  status: ('A' for Active; 'I' for Inactive)
REMARK    1  A    between atoms: C_4  and  C_1 
REMARK       I    between atoms: N_7  and  C_4 
REMARK    2  A    between atoms: C_9  and  N_7 
REMARK    3  A    between atoms: N_8  and  C_11 
ROOT
ATOM      1  C   UNL d   1     -42.388-123.332 -50.750  0.00  0.00     0.263 C 
ATOM      2  N   UNL d   1     -41.767-122.877 -51.040  0.00  0.00    -0.210 NA
ATOM      3  O   UNL d   1     -42.825-123.817 -51.257  0.00  0.00    -0.270 OA
ENDROOT
BRANCH   1   4
ATOM      4  C   UNL d   1     -42.408-123.161 -49.939  0.00  0.00     0.113 A 
ATOM      5  C   UNL d   1     -42.161-123.019 -48.558  0.00  0.00     0.025 A 
ATOM      6  C   UNL d   1     -42.449-123.007 -49.267  0.00  0.00     0.074 A 
ATOM      7  C   UNL d   1     -41.532-123.252 -48.067  0.00  0.00     0.002 C 
ATOM      8  C   UNL d   1     -42.541-122.689 -47.899  0.00  0.00     0.002 C 
ATOM      9  C   UNL d   1     -42.929-122.643 -48.699  0.00  0.00     0.012 C 
ATOM     10  C   UNL d   1     -42.029-123.325 -49.761  0.00  0.00    -0.023 A 
ATOM     11  C   UNL d   1     -43.171-122.689 -49.578  0.00  0.00     0.172 A 
ATOM     12  C   UNL d   1     -41.868-123.536 -50.400  0.00  0.00    -0.018 A 
ATOM     13  C   UNL d   1     -43.057-122.867 -50.175  0.00  0.00     0.024 A 
ATOM     14  O   UNL d   1     -43.804-122.287 -49.223  0.00  0.00    -0.291 OA
ENDBRANCH   1   4
BRANCH   2  15
ATOM     15  C   UNL d   1     -41.581-122.909 -51.850  0.00  0.00     0.100 A 
ATOM     16  C   UNL d   1     -41.366-122.214 -52.239  0.00  0.00     0.082 A 
ATOM     17  C   UNL d   1     -41.183-122.246 -53.041  0.00  0.00     0.019 A 
ATOM     18  C   UNL d   1     -41.212-122.966 -53.454  0.00  0.00     0.002 A 
ATOM     19  C   UNL d   1     -41.428-123.654 -53.052  0.00  0.00     0.002 A 
ATOM     20  C   UNL d   1     -41.613-123.626 -52.253  0.00  0.00     0.021 A 
BRANCH  16  21
ATOM     21  N   UNL d   1     -41.337-121.499 -51.828  0.00  0.00    -0.302 N 
ATOM     22  C   UNL d   1     -41.123-121.410 -51.036  0.00  0.00     0.080 A 
ATOM     23  C   UNL d   1     -41.169-120.602 -50.847  0.00  0.00     0.021 A 
ATOM     24  C   UNL d   1     -41.412-120.199 -51.528  0.00  0.00     0.021 A 
ATOM     25  C   UNL d   1     -41.517-120.753 -52.135  0.00  0.00     0.080 A 
ENDBRANCH  16  21
ENDBRANCH   2  15
TORSDOF 3
ENDMDL
