MODEL 1
REMARK VINA RESULT:      -4.6      0.000      0.000
REMARK  2 active torsions:
REMARK  status: ('A' for Active; 'I' for Inactive)
REMARK       I    between atoms: N_2  and  C_1 
REMARK    1  A    between atoms: C_6  and  C_1 
REMARK    2  A    between atoms: C_4  and  N_2 
ROOT
ATOM      1  C   UNL d   1      56.501  -0.224  31.968  0.00  0.00     0.085 A 
ATOM      2  C   UNL d   1      56.465  -1.011  32.234  0.00  0.00     0.019 A 
ATOM      3  C   UNL d   1      56.114   0.379  32.378  0.00  0.00     0.019 A 
ATOM      4  C   UNL d   1      55.683   0.206  33.060  0.00  0.00     0.002 A 
ATOM      5  C   UNL d   1      56.034  -1.185  32.916  0.00  0.00     0.002 A 
ATOM      6  C   UNL d   1      55.641  -0.572  33.332  0.00  0.00     0.000 A 
ENDROOT
BRANCH   1   7
ATOM      7  N   UNL d   1      56.931  -0.050  31.286  0.00  0.00    -0.207 NA
ATOM      8  C   UNL d   1      57.687   0.275  31.348  0.00  0.00     0.300 C 
ATOM      9  O   UNL d   1      58.012   0.427  32.092  0.00  0.00    -0.263 OA
BRANCH   8  10
ATOM     10  C   UNL d   1      58.117   0.449  30.666  0.00  0.00     0.184 C 
ATOM     11  N   UNL d   1      58.907   0.680  30.725  0.00  0.00    -0.141 N 
ENDBRANCH   8  10
ENDBRANCH   1   7
TORSDOF 2
ENDMDL
MODEL 2
REMARK VINA RESULT:      -3.8      1.545      2.220
REMARK  2 active torsions:
REMARK  status: ('A' for Active; 'I' for Inactive)
REMARK       I    between atoms: N_2  and  C_1 
REMARK    1  A    between atoms: C_6  and  C_1 
REMARK    2  A    between atoms: C_4  and  N_2 
ROOT
ATOM      1  C   UNL d   1      55.676   0.566  33.546  0.00  0.00     0.085 A 
ATOM      2  C   UNL d   1      56.044   0.585  34.291  0.00  0.00     0.019 A 
ATOM      3  C   UNL d   1      54.854   0.604  33.479  0.00  0.00     0.019 A 
ATOM      4  C   UNL d   1      54.386   0.663  34.157  0.00  0.00     0.002 A 
ATOM      5  C   UNL d   1      55.577   0.643  34.969  0.00  0.00     0.002 A 
ATOM      6  C   UNL d   1      54.742   0.682  34.901  0.00  0.00     0.000 A 
ENDROOT
BRANCH   1   7
ATOM      7  N   UNL d   1      56.143   0.508  32.869  0.00  0.00    -0.207 NA
ATOM      8  C   UNL d   1      56.262  -0.227  32.513  0.00  0.00     0.300 C 
ATOM      9  O   UNL d   1      55.914  -0.903  32.834  0.00  0.00    -0.263 OA
BRANCH   8  10
ATOM     10  C   UNL d   1      56.729  -0.285  31.835  0.00  0.00     0.184 C 
ATOM     11  N   UNL d   1      57.001  -1.022  31.585  0.00  0.00    -0.141 N 
ENDBRANCH   8  10
ENDBRANCH   1   7
TORSDOF 2
ENDMDL
MODEL 3
REMARK VINA RESULT:      -3.5      8.699      9.397
REMARK  2 active torsions:
REMARK  status: ('A' for Active; 'I' for Inactive)
REMARK       I    between atoms: N_2  and  C_1 
REMARK    1  A    between atoms: C_6  and  C_1 
REMARK    2  A    between atoms: C_4  and  N_2 
ROOT
ATOM      1  C   UNL d   1      59.903  -7.814  35.895  0.00  0.00     0.085 A 
ATOM      2  C   UNL d   1      60.688  -7.668  36.126  0.00  0.00     0.019 A 
ATOM      3  C   UNL d   1      59.350  -7.202  35.865  0.00  0.00     0.019 A 
ATOM      4  C   UNL d   1      59.572  -6.433  36.066  0.00  0.00     0.002 A 
ATOM      5  C   UNL d   1      60.911  -6.900  36.328  0.00  0.00     0.002 A 
ATOM      6  C   UNL d   1      60.349  -6.278  36.297  0.00  0.00     0.000 A 
ENDROOT
BRANCH   1   7
ATOM      7  N   UNL d   1      59.681  -8.583  35.694  0.00  0.00    -0.207 NA
ATOM      8  C   UNL d   1      59.823  -8.866  34.932  0.00  0.00     0.300 C 
ATOM      9  O   UNL d   1      60.188  -8.381  34.372  0.00  0.00    -0.263 OA
BRANCH   8  10
ATOM     10  C   UNL d   1      59.600  -9.634  34.731  0.00  0.00     0.184 C 
ATOM     11  N   UNL d   1      59.398  -9.813  33.952  0.00  0.00    -0.141 N 
ENDBRANCH   8  10
ENDBRANCH   1   7
TORSDOF 2
ENDMDL
MODEL 4
REMARK VINA RESULT:      -2.8      9.462      9.950
REMARK  2 active torsions:
REMARK  status: ('A' for Active; 'I' for Inactive)
REMARK       I    between atoms: N_2  and  C_1 
REMARK    1  A    between atoms: C_6  and  C_1 
REMARK    2  A    between atoms: C_4  and  N_2 
ROOT
ATOM      1  C   UNL d   1      60.058  -9.069  34.810  0.00  0.00     0.085 A 
ATOM      2  C   UNL d   1      59.567  -8.418  34.974  0.00  0.00     0.019 A 
ATOM      3  C   UNL d   1      60.572  -9.367  35.384  0.00  0.00     0.019 A 
ATOM      4  C   UNL d   1      60.604  -9.018  36.131  0.00  0.00     0.002 A 
ATOM      5  C   UNL d   1      59.599  -8.070  35.720  0.00  0.00     0.002 A 
ATOM      6  C   UNL d   1      60.121  -8.372  36.303  0.00  0.00     0.000 A 
ENDROOT
BRANCH   1   7
ATOM      7  N   UNL d   1      60.026  -9.418  34.063  0.00  0.00    -0.207 NA
ATOM      8  C   UNL d   1      60.557  -9.184  33.477  0.00  0.00     0.300 C 
ATOM      9  O   UNL d   1      61.120  -8.601  33.637  0.00  0.00    -0.263 OA
BRANCH   8  10
ATOM     10  C   UNL d   1      60.525  -9.533  32.730  0.00  0.00     0.184 C 
ATOM     11  N   UNL d   1      61.089  -9.337  32.161  0.00  0.00    -0.141 N 
ENDBRANCH   8  10
ENDBRANCH   1   7
TORSDOF 2
ENDMDL
MODEL 5
REMARK VINA RESULT:      -2.7      1.367      3.445
REMARK  2 active torsions:
REMARK  status: ('A' for Active; 'I' for Inactive)
REMARK       I    between atoms: N_2  and  C_1 
REMARK    1  A    between atoms: C_6  and  C_1 
REMARK    2  A    between atoms: C_4  and  N_2 
ROOT
ATOM      1  C   UNL d   1      58.224   0.467  30.250  0.00  0.00     0.085 A 
ATOM      2  C   UNL d   1      59.022   0.234  30.245  0.00  0.00     0.019 A 
ATOM      3  C   UNL d   1      57.841   0.682  29.550  0.00  0.00     0.019 A 
ATOM      4  C   UNL d   1      58.250   0.668  28.834  0.00  0.00     0.002 A 
ATOM      5  C   UNL d   1      59.432   0.220  29.529  0.00  0.00     0.002 A 
ATOM      6  C   UNL d   1      59.043   0.439  28.818  0.00  0.00     0.000 A 
ENDROOT
BRANCH   1   7
ATOM      7  N   UNL d   1      57.814   0.481  30.966  0.00  0.00    -0.207 NA
ATOM      8  C   UNL d   1      57.390  -0.184  31.210  0.00  0.00     0.300 C 
ATOM      9  O   UNL d   1      57.376  -0.861  30.738  0.00  0.00    -0.263 OA
BRANCH   8  10
ATOM     10  C   UNL d   1      56.981  -0.170  31.926  0.00  0.00     0.184 C 
ATOM     11  N   UNL d   1      56.606  -0.852  32.198  0.00  0.00    -0.141 N 
ENDBRANCH   8  10
ENDBRANCH   1   7
TORSDOF 2
ENDMDL
MODEL 6
REMARK VINA RESULT:      -2.2      3.723      4.609
REMARK  2 active torsions:
REMARK  status: ('A' for Active; 'I' for Inactive)
REMARK       I    between atoms: N_2  and  C_1 
REMARK    1  A    between atoms: C_6  and  C_1 
REMARK    2  A    between atoms: C_4  and  N_2 
ROOT
ATOM      1  C   UNL d   1      59.366  -1.916  28.657  0.00  0.00     0.085 A 
ATOM      2  C   UNL d   1      58.819  -2.537  28.573  0.00  0.00     0.019 A 
ATOM      3  C   UNL d   1      60.129  -2.060  28.938  0.00  0.00     0.019 A 
ATOM      4  C   UNL d   1      60.359  -2.827  29.141  0.00  0.00     0.002 A 
ATOM      5  C   UNL d   1      59.047  -3.304  28.775  0.00  0.00     0.002 A 
ATOM      6  C   UNL d   1      59.823  -3.449  29.061  0.00  0.00     0.000 A 
ENDROOT
BRANCH   1   7
ATOM      7  N   UNL d   1      59.138  -1.150  28.455  0.00  0.00    -0.207 NA
ATOM      8  C   UNL d   1      58.755  -0.675  29.010  0.00  0.00     0.300 C 
ATOM      9  O   UNL d   1      58.600  -0.967  29.767  0.00  0.00    -0.263 OA
BRANCH   8  10
ATOM     10  C   UNL d   1      58.526   0.091  28.808  0.00  0.00     0.184 C 
ATOM     11  N   UNL d   1      58.188   0.583  29.377  0.00  0.00    -0.141 N 
ENDBRANCH   8  10
ENDBRANCH   1   7
TORSDOF 2
ENDMDL
MODEL 7
REMARK VINA RESULT:      -1.9      1.120      1.434
REMARK  2 active torsions:
REMARK  status: ('A' for Active; 'I' for Inactive)
REMARK       I    between atoms: N_2  and  C_1 
REMARK    1  A    between atoms: C_6  and  C_1 
REMARK    2  A    between atoms: C_4  and  N_2 
ROOT
ATOM      1  C   UNL d   1      57.517   0.358  31.662  0.00  0.00     0.085 A 
ATOM      2  C   UNL d   1      57.641   0.109  32.445  0.00  0.00     0.019 A 
ATOM      3  C   UNL d   1      56.757   0.530  31.388  0.00  0.00     0.019 A 
ATOM      4  C   UNL d   1      56.108   0.457  31.894  0.00  0.00     0.002 A 
ATOM      5  C   UNL d   1      56.994   0.036  32.951  0.00  0.00     0.002 A 
ATOM      6  C   UNL d   1      56.222   0.211  32.673  0.00  0.00     0.000 A 
ENDROOT
BRANCH   1   7
ATOM      7  N   UNL d   1      58.164   0.432  31.156  0.00  0.00    -0.207 NA
ATOM      8  C   UNL d   1      58.167   0.038  30.432  0.00  0.00     0.300 C 
ATOM      9  O   UNL d   1      57.522  -0.430  30.213  0.00  0.00    -0.263 OA
BRANCH   8  10
ATOM     10  C   UNL d   1      58.815   0.111  29.926  0.00  0.00     0.184 C 
ATOM     11  N   UNL d   1      59.032  -0.520  29.442  0.00  0.00    -0.141 N 
ENDBRANCH   8  10
ENDBRANCH   1   7
TORSDOF 2
ENDMDL
