MODEL 1
REMARK VINA RESULT:      -2.8      0.000      0.000
REMARK  1 active torsions:
REMARK  status: ('A' for Active; 'I' for Inactive)
REMARK    1  A    between atoms: C_4  and  C_2 
ROOT
ATOM      1  C   UNL d   1      32.140  16.920 -24.070  0.00  0.00     0.141 C 
ATOM      2  C   UNL d   1      32.480  17.374 -23.479  0.00  0.00     0.112 C 
ATOM      3  C   UNL d   1      32.611  16.424 -24.546  0.00  0.00     0.112 C 
ATOM      4  N   UNL d   1      33.088  15.914 -25.037  0.00  0.00    -0.191 NA
ATOM      5  N   UNL d   1      32.839  17.835 -22.876  0.00  0.00    -0.191 NA
ENDROOT
BRANCH   1   6
ATOM      6  C   UNL d   1      31.316  16.964 -24.186  0.00  0.00     0.079 A 
ATOM      7  C   UNL d   1      30.952  17.502 -24.659  0.00  0.00     0.281 A 
ATOM      8  N   UNL d   1      30.148  17.369 -24.630  0.00  0.00    -0.208 NA
ATOM      9  O   UNL d   1      31.357  18.088 -25.097  0.00  0.00    -0.265 OA
ATOM     10  C   UNL d   1      30.017  16.744 -24.134  0.00  0.00     0.085 A 
ATOM     11  C   UNL d   1      29.317  16.366 -23.894  0.00  0.00     0.019 A 
ATOM     12  C   UNL d   1      30.746  16.479 -23.847  0.00  0.00     0.024 A 
ATOM     13  C   UNL d   1      29.352  15.745 -23.385  0.00  0.00     0.002 A 
ATOM     14  C   UNL d   1      30.095  15.485 -23.101  0.00  0.00     0.000 A 
ATOM     15  C   UNL d   1      30.785  15.867 -23.344  0.00  0.00     0.002 A 
ENDBRANCH   1   6
TORSDOF 1
ENDMDL
MODEL 2
REMARK VINA RESULT:      -2.3      1.172      2.896
REMARK  1 active torsions:
REMARK  status: ('A' for Active; 'I' for Inactive)
REMARK    1  A    between atoms: C_4  and  C_2 
ROOT
ATOM      1  C   UNL d   1      30.444  16.562 -23.964  0.00  0.00     0.141 C 
ATOM      2  C   UNL d   1      29.924  17.056 -24.361  0.00  0.00     0.112 C 
ATOM      3  C   UNL d   1      30.170  16.063 -23.355  0.00  0.00     0.112 C 
ATOM      4  N   UNL d   1      29.897  15.549 -22.731  0.00  0.00    -0.191 NA
ATOM      5  N   UNL d   1      29.383  17.558 -24.761  0.00  0.00    -0.191 NA
ENDROOT
BRANCH   1   6
ATOM      6  C   UNL d   1      31.247  16.569 -24.180  0.00  0.00     0.079 A 
ATOM      7  C   UNL d   1      31.582  16.058 -24.703  0.00  0.00     0.281 A 
ATOM      8  N   UNL d   1      32.374  16.238 -24.769  0.00  0.00    -0.208 NA
ATOM      9  O   UNL d   1      31.161  15.453 -25.097  0.00  0.00    -0.265 OA
ATOM     10  C   UNL d   1      32.528  16.865 -24.283  0.00  0.00     0.085 A 
ATOM     11  C   UNL d   1      33.229  17.283 -24.124  0.00  0.00     0.019 A 
ATOM     12  C   UNL d   1      31.826  17.084 -23.905  0.00  0.00     0.024 A 
ATOM     13  C   UNL d   1      33.221  17.896 -23.605  0.00  0.00     0.002 A 
ATOM     14  C   UNL d   1      32.504  18.108 -23.229  0.00  0.00     0.000 A 
ATOM     15  C   UNL d   1      31.813  17.689 -23.392  0.00  0.00     0.002 A 
ENDBRANCH   1   6
TORSDOF 1
ENDMDL
MODEL 3
REMARK VINA RESULT:      -2.3      1.136      1.986
REMARK  1 active torsions:
REMARK  status: ('A' for Active; 'I' for Inactive)
REMARK    1  A    between atoms: C_4  and  C_2 
ROOT
ATOM      1  C   UNL d   1      32.058  16.771 -23.980  0.00  0.00     0.141 C 
ATOM      2  C   UNL d   1      32.534  16.398 -24.534  0.00  0.00     0.112 C 
ATOM      3  C   UNL d   1      32.370  17.370 -23.491  0.00  0.00     0.112 C 
ATOM      4  N   UNL d   1      32.682  17.984 -22.987  0.00  0.00    -0.191 NA
ATOM      5  N   UNL d   1      33.030  16.023 -25.097  0.00  0.00    -0.191 NA
ENDROOT
BRANCH   1   6
ATOM      6  C   UNL d   1      31.261  16.541 -23.916  0.00  0.00     0.079 A 
ATOM      7  C   UNL d   1      30.999  15.934 -23.458  0.00  0.00     0.281 A 
ATOM      8  N   UNL d   1      30.189  15.880 -23.540  0.00  0.00    -0.208 NA
ATOM      9  O   UNL d   1      31.497  15.455 -22.988  0.00  0.00    -0.265 OA
ATOM     10  C   UNL d   1      29.952  16.459 -24.052  0.00  0.00     0.085 A 
ATOM     11  C   UNL d   1      29.201  16.668 -24.341  0.00  0.00     0.019 A 
ATOM     12  C   UNL d   1      30.618  16.883 -24.297  0.00  0.00     0.024 A 
ATOM     13  C   UNL d   1      29.127  17.281 -24.855  0.00  0.00     0.002 A 
ATOM     14  C   UNL d   1      29.809  17.703 -25.095  0.00  0.00     0.000 A 
ATOM     15  C   UNL d   1      30.550  17.489 -24.804  0.00  0.00     0.002 A 
ENDBRANCH   1   6
TORSDOF 1
ENDMDL
MODEL 4
REMARK VINA RESULT:      -2.0      1.300      1.778
REMARK  1 active torsions:
REMARK  status: ('A' for Active; 'I' for Inactive)
REMARK    1  A    between atoms: C_4  and  C_2 
ROOT
ATOM      1  C   UNL d   1      32.430  17.821 -24.157  0.00  0.00     0.141 C 
ATOM      2  C   UNL d   1      32.672  17.785 -23.375  0.00  0.00     0.112 C 
ATOM      3  C   UNL d   1      32.583  18.500 -24.616  0.00  0.00     0.112 C 
ATOM      4  N   UNL d   1      32.735  19.192 -25.091  0.00  0.00    -0.191 NA
ATOM      5  N   UNL d   1      32.925  17.759 -22.575  0.00  0.00    -0.191 NA
ENDROOT
BRANCH   1   6
ATOM      6  C   UNL d   1      32.031  17.168 -24.484  0.00  0.00     0.079 A 
ATOM      7  C   UNL d   1      32.394  16.534 -24.819  0.00  0.00     0.281 A 
ATOM      8  N   UNL d   1      31.821  16.012 -25.074  0.00  0.00    -0.208 NA
ATOM      9  O   UNL d   1      33.224  16.451 -24.882  0.00  0.00    -0.265 OA
ATOM     10  C   UNL d   1      31.099  16.329 -24.894  0.00  0.00     0.085 A 
ATOM     11  C   UNL d   1      30.326  16.050 -25.019  0.00  0.00     0.019 A 
ATOM     12  C   UNL d   1      31.217  17.057 -24.521  0.00  0.00     0.024 A 
ATOM     13  C   UNL d   1      29.698  16.489 -24.777  0.00  0.00     0.002 A 
ATOM     14  C   UNL d   1      29.830  17.225 -24.401  0.00  0.00     0.000 A 
ATOM     15  C   UNL d   1      30.600  17.495 -24.281  0.00  0.00     0.002 A 
ENDBRANCH   1   6
TORSDOF 1
ENDMDL
MODEL 5
REMARK VINA RESULT:      -1.8      1.591      3.047
REMARK  1 active torsions:
REMARK  status: ('A' for Active; 'I' for Inactive)
REMARK    1  A    between atoms: C_4  and  C_2 
ROOT
ATOM      1  C   UNL d   1      32.208  16.703 -23.393  0.00  0.00     0.141 C 
ATOM      2  C   UNL d   1      31.395  16.620 -23.336  0.00  0.00     0.112 C 
ATOM      3  C   UNL d   1      32.715  16.172 -22.999  0.00  0.00     0.112 C 
ATOM      4  N   UNL d   1      33.241  15.632 -22.598  0.00  0.00    -0.191 NA
ATOM      5  N   UNL d   1      30.563  16.525 -23.271  0.00  0.00    -0.191 NA
ENDROOT
BRANCH   1   6
ATOM      6  C   UNL d   1      32.516  17.326 -23.850  0.00  0.00     0.079 A 
ATOM      7  C   UNL d   1      32.673  17.278 -24.638  0.00  0.00     0.281 A 
ATOM      8  N   UNL d   1      32.968  17.996 -24.887  0.00  0.00    -0.208 NA
ATOM      9  O   UNL d   1      32.544  16.591 -25.097  0.00  0.00    -0.265 OA
ATOM     10  C   UNL d   1      32.992  18.490 -24.248  0.00  0.00     0.085 A 
ATOM     11  C   UNL d   1      33.239  19.280 -24.168  0.00  0.00     0.019 A 
ATOM     12  C   UNL d   1      32.710  18.080 -23.587  0.00  0.00     0.024 A 
ATOM     13  C   UNL d   1      33.202  19.641 -23.451  0.00  0.00     0.002 A 
ATOM     14  C   UNL d   1      32.915  19.216 -22.790  0.00  0.00     0.000 A 
ATOM     15  C   UNL d   1      32.672  18.432 -22.877  0.00  0.00     0.002 A 
ENDBRANCH   1   6
TORSDOF 1
ENDMDL
MODEL 6
REMARK VINA RESULT:      -1.8      1.534      2.398
REMARK  1 active torsions:
REMARK  status: ('A' for Active; 'I' for Inactive)
REMARK    1  A    between atoms: C_4  and  C_2 
ROOT
ATOM      1  C   UNL d   1      32.573  18.548 -23.798  0.00  0.00     0.141 C 
ATOM      2  C   UNL d   1      32.901  18.932 -24.443  0.00  0.00     0.112 C 
ATOM      3  C   UNL d   1      32.649  18.869 -23.032  0.00  0.00     0.112 C 
ATOM      4  N   UNL d   1      32.722  19.192 -22.246  0.00  0.00    -0.191 NA
ATOM      5  N   UNL d   1      33.240  19.334 -25.097  0.00  0.00    -0.191 NA
ENDROOT
BRANCH   1   6
ATOM      6  C   UNL d   1      32.165  17.833 -23.921  0.00  0.00     0.079 A 
ATOM      7  C   UNL d   1      31.420  17.781 -24.218  0.00  0.00     0.281 A 
ATOM      8  N   UNL d   1      31.212  16.993 -24.256  0.00  0.00    -0.208 NA
ATOM      9  O   UNL d   1      30.959  18.441 -24.440  0.00  0.00    -0.265 OA
ATOM     10  C   UNL d   1      31.835  16.557 -23.981  0.00  0.00     0.085 A 
ATOM     11  C   UNL d   1      31.941  15.738 -23.893  0.00  0.00     0.019 A 
ATOM     12  C   UNL d   1      32.443  17.075 -23.767  0.00  0.00     0.024 A 
ATOM     13  C   UNL d   1      32.633  15.453 -23.599  0.00  0.00     0.002 A 
ATOM     14  C   UNL d   1      33.241  15.987 -23.385  0.00  0.00     0.000 A 
ATOM     15  C   UNL d   1      33.128  16.799 -23.476  0.00  0.00     0.002 A 
ENDBRANCH   1   6
TORSDOF 1
ENDMDL
MODEL 7
REMARK VINA RESULT:       0.1      1.630      3.295
REMARK  1 active torsions:
REMARK  status: ('A' for Active; 'I' for Inactive)
REMARK    1  A    between atoms: C_4  and  C_2 
ROOT
ATOM      1  C   UNL d   1      29.133  16.535 -24.121  0.00  0.00     0.141 C 
ATOM      2  C   UNL d   1      28.746  15.997 -24.602  0.00  0.00     0.112 C 
ATOM      3  C   UNL d   1      28.747  17.230 -23.869  0.00  0.00     0.112 C 
ATOM      4  N   UNL d   1      28.358  17.943 -23.607  0.00  0.00    -0.191 NA
ATOM      5  N   UNL d   1      28.340  15.452 -25.095  0.00  0.00    -0.191 NA
ENDROOT
BRANCH   1   6
ATOM      6  C   UNL d   1      29.916  16.375 -23.888  0.00  0.00     0.079 A 
ATOM      7  C   UNL d   1      30.119  15.905 -23.269  0.00  0.00     0.281 A 
ATOM      8  N   UNL d   1      30.933  15.884 -23.217  0.00  0.00    -0.208 NA
ATOM      9  O   UNL d   1      29.566  15.516 -22.778  0.00  0.00    -0.265 OA
ATOM     10  C   UNL d   1      31.232  16.345 -23.809  0.00  0.00     0.085 A 
ATOM     11  C   UNL d   1      32.013  16.529 -24.026  0.00  0.00     0.019 A 
ATOM     12  C   UNL d   1      30.601  16.661 -24.241  0.00  0.00     0.024 A 
ATOM     13  C   UNL d   1      32.151  17.013 -24.653  0.00  0.00     0.002 A 
ATOM     14  C   UNL d   1      31.504  17.327 -25.082  0.00  0.00     0.000 A 
ATOM     15  C   UNL d   1      30.733  17.139 -24.860  0.00  0.00     0.002 A 
ENDBRANCH   1   6
TORSDOF 1
ENDMDL
MODEL 8
REMARK VINA RESULT:       0.1      5.683      6.872
REMARK  1 active torsions:
REMARK  status: ('A' for Active; 'I' for Inactive)
REMARK    1  A    between atoms: C_4  and  C_2 
ROOT
ATOM      1  C   UNL d   1      32.744  21.816 -20.782  0.00  0.00     0.141 C 
ATOM      2  C   UNL d   1      32.824  21.084 -21.141  0.00  0.00     0.112 C 
ATOM      3  C   UNL d   1      32.991  21.928 -19.993  0.00  0.00     0.112 C 
ATOM      4  N   UNL d   1      33.241  22.051 -19.187  0.00  0.00    -0.191 NA
ATOM      5  N   UNL d   1      32.910  20.330 -21.499  0.00  0.00    -0.191 NA
ENDROOT
BRANCH   1   6
ATOM      6  C   UNL d   1      32.413  22.443 -21.218  0.00  0.00     0.079 A 
ATOM      7  C   UNL d   1      31.824  22.921 -20.951  0.00  0.00     0.281 A 
ATOM      8  N   UNL d   1      31.650  23.466 -21.532  0.00  0.00    -0.208 NA
ATOM      9  O   UNL d   1      31.468  22.846 -20.198  0.00  0.00    -0.265 OA
ATOM     10  C   UNL d   1      32.137  23.322 -22.161  0.00  0.00     0.085 A 
ATOM     11  C   UNL d   1      32.210  23.695 -22.900  0.00  0.00     0.019 A 
ATOM     12  C   UNL d   1      32.623  22.680 -21.976  0.00  0.00     0.024 A 
ATOM     13  C   UNL d   1      32.753  23.430 -23.431  0.00  0.00     0.002 A 
ATOM     14  C   UNL d   1      33.239  22.779 -23.232  0.00  0.00     0.000 A 
ATOM     15  C   UNL d   1      33.160  22.414 -22.496  0.00  0.00     0.002 A 
ENDBRANCH   1   6
TORSDOF 1
ENDMDL
