MODEL 1
REMARK VINA RESULT:      85.3      0.000      0.000
REMARK  1 active torsions:
REMARK  status: ('A' for Active; 'I' for Inactive)
REMARK    1  A    between atoms: C_12  and  N_1 
ROOT
ATOM      1  N   UNL d   1      59.691  49.230  50.959  0.00  0.00    -0.244 N 
ATOM      2  C   UNL d   1      59.323  49.298  51.670  0.00  0.00     0.251 A 
ATOM      3  C   UNL d   1      59.063  49.284  50.418  0.00  0.00     0.260 A 
ATOM      4  C   UNL d   1      58.368  49.378  50.798  0.00  0.00     0.033 A 
ATOM      5  C   UNL d   1      58.528  49.387  51.581  0.00  0.00     0.125 A 
ATOM      6  C   UNL d   1      56.095  49.661  51.348  0.00  0.00     0.068 A 
ATOM      7  C   UNL d   1      57.738  49.470  51.335  0.00  0.00    -0.010 A 
ATOM      8  C   UNL d   1      57.336  49.492  50.631  0.00  0.00    -0.007 A 
ATOM      9  C   UNL d   1      56.516  49.588  50.641  0.00  0.00    -0.015 A 
ATOM     10  C   UNL d   1      56.534  49.635  52.046  0.00  0.00    -0.015 A 
ATOM     11  C   UNL d   1      57.350  49.540  52.041  0.00  0.00    -0.007 A 
ATOM     12  O   UNL d   1      59.676  49.277  52.225  0.00  0.00    -0.271 OA
ATOM     13  O   UNL d   1      59.223  49.242  49.741  0.00  0.00    -0.267 OA
ATOM     14  C   UNL d   1      57.766  49.517  52.749  0.00  0.00    -0.001 A 
ATOM     15  C   UNL d   1      57.738  49.420  49.923  0.00  0.00    -0.001 A 
ATOM     16  C   UNL d   1      56.088  49.612  49.919  0.00  0.00    -0.004 A 
ATOM     17  C   UNL d   1      56.133  49.707  52.758  0.00  0.00    -0.004 A 
ATOM     18  C   UNL d   1      57.351  49.590  53.463  0.00  0.00    -0.000 A 
ATOM     19  C   UNL d   1      57.304  49.445  49.195  0.00  0.00    -0.000 A 
ATOM     20  C   UNL d   1      56.481  49.541  49.205  0.00  0.00    -0.000 A 
ATOM     21  C   UNL d   1      56.553  49.683  53.463  0.00  0.00    -0.000 A 
ENDROOT
BRANCH   1  22
ATOM     22  C   UNL d   1      60.535  49.127  50.817  0.00  0.00     0.089 A 
ATOM     23  C   UNL d   1      61.032  48.776  51.431  0.00  0.00     0.117 A 
ATOM     24  N   UNL d   1      61.888  48.669  51.293  0.00  0.00    -0.241 NA
ATOM     25  C   UNL d   1      62.247  48.917  50.531  0.00  0.00     0.099 A 
ATOM     26  C   UNL d   1      61.743  49.268  49.922  0.00  0.00     0.022 A 
ATOM     27  C   UNL d   1      60.883  49.374  50.066  0.00  0.00     0.021 A 
ENDBRANCH   1  22
TORSDOF 1
ENDMDL
