MODEL 1
REMARK VINA RESULT:      24.6      0.000      0.000
REMARK  1 active torsions:
REMARK  status: ('A' for Active; 'I' for Inactive)
REMARK    1  A    between atoms: C_7  and  C_1 
ROOT
ATOM      1  C   UNL d   1     -51.309  25.327  33.320  0.00  0.00     0.062 A 
ATOM      2  C   UNL d   1     -51.720  26.028  33.318  0.00  0.00     0.199 A 
ATOM      3  C   UNL d   1     -50.487  25.312  33.324  0.00  0.00     0.103 A 
ATOM      4  C   UNL d   1     -51.308  26.762  33.322  0.00  0.00     0.062 A 
ATOM      5  C   UNL d   1     -50.497  26.772  33.326  0.00  0.00     0.106 A 
ATOM      6  O   UNL d   1     -50.075  26.046  33.328  0.00  0.00    -0.307 OA
ATOM      7  C   UNL d   1     -50.094  27.492  33.330  0.00  0.00     0.067 A 
ATOM      8  C   UNL d   1     -51.751  27.476  33.320  0.00  0.00     0.009 A 
ATOM      9  O   UNL d   1     -52.580  25.999  33.314  0.00  0.00    -0.286 OA
ATOM     10  C   UNL d   1     -50.507  28.189  33.328  0.00  0.00     0.198 A 
ATOM     11  C   UNL d   1     -51.340  28.210  33.324  0.00  0.00     0.042 A 
ATOM     12  C   UNL d   1     -50.061  24.585  33.325  0.00  0.00     0.027 C 
ATOM     13  O   UNL d   1     -50.097  28.919  33.332  0.00  0.00    -0.286 OA
ENDROOT
BRANCH   1  14
ATOM     14  C   UNL d   1     -51.726  24.624  33.316  0.00  0.00     0.005 A 
ATOM     15  C   UNL d   1     -51.333  23.898  33.319  0.00  0.00     0.000 A 
ATOM     16  C   UNL d   1     -50.494  23.875  33.325  0.00  0.00     0.000 C 
ATOM     17  C   UNL d   1     -51.758  23.190  33.315  0.00  0.00     0.000 A 
ATOM     18  C   UNL d   1     -52.566  23.218  33.309  0.00  0.00     0.000 A 
ATOM     19  C   UNL d   1     -52.978  23.914  33.307  0.00  0.00     0.000 A 
ATOM     20  C   UNL d   1     -52.551  24.632  33.310  0.00  0.00     0.000 A 
ENDBRANCH   1  14
TORSDOF 1
ENDMDL
