MODEL 1
REMARK VINA RESULT:      -6.0      0.000      0.000
REMARK  7 active torsions:
REMARK  status: ('A' for Active; 'I' for Inactive)
REMARK    1  A    between atoms: C_14  and  N_3 
REMARK    2  A    between atoms: C_10  and  C_6 
REMARK    3  A    between atoms: C_15  and  C_14 
REMARK    4  A    between atoms: C_20  and  C_15 
REMARK    5  A    between atoms: N_16  and  C_20 
REMARK    6  A    between atoms: C_23  and  N_16 
REMARK    7  A    between atoms: C_24  and  N_16 
ROOT
ATOM      1  C   UNL d   1     -48.374  13.737  22.984  0.00  0.00     0.083 A 
ATOM      2  C   UNL d   1     -47.970  14.443  22.956  0.00  0.00     0.161 A 
ATOM      3  N   UNL d   1     -47.082  13.474  22.911  0.00  0.00    -0.272 N 
ATOM      4  C   UNL d   1     -47.172  14.282  22.910  0.00  0.00     0.288 A 
ATOM      5  C   UNL d   1     -49.190  13.730  23.032  0.00  0.00     0.201 A 
ATOM      6  C   UNL d   1     -47.821  13.137  22.956  0.00  0.00     0.074 A 
ATOM      7  O   UNL d   1     -48.387  15.151  22.975  0.00  0.00    -0.302 OA
ATOM      8  C   UNL d   1     -49.605  14.443  23.051  0.00  0.00     0.062 A 
ATOM      9  C   UNL d   1     -49.201  15.149  23.023  0.00  0.00     0.103 A 
ATOM     10  O   UNL d   1     -46.566  14.841  22.871  0.00  0.00    -0.264 OA
ATOM     11  O   UNL d   1     -49.605  13.004  23.061  0.00  0.00    -0.286 OA
ATOM     12  C   UNL d   1     -50.421  14.437  23.099  0.00  0.00     0.005 A 
ATOM     13  C   UNL d   1     -49.610  15.854  23.042  0.00  0.00     0.025 A 
ATOM     14  C   UNL d   1     -50.828  15.146  23.118  0.00  0.00     0.000 A 
ATOM     15  C   UNL d   1     -50.424  15.852  23.089  0.00  0.00     0.002 A 
ENDROOT
BRANCH   3  16
ATOM     16  C   UNL d   1     -46.365  13.062  22.872  0.00  0.00     0.085 C 
BRANCH  16  17
ATOM     17  C   UNL d   1     -45.773  13.298  22.328  0.00  0.00     0.038 C 
BRANCH  17  18
ATOM     18  C   UNL d   1     -44.973  13.177  22.504  0.00  0.00     0.082 C 
BRANCH  18  19
ATOM     19  N   UNL d   1     -44.526  12.638  22.058  0.00  0.00    -0.302 N 
BRANCH  19  20
ATOM     20  C   UNL d   1     -44.225  12.863  21.316  0.00  0.00     0.080 C 
ATOM     21  C   UNL d   1     -43.457  13.181  21.257  0.00  0.00     0.021 C 
ENDBRANCH  19  20
BRANCH  19  22
ATOM     22  C   UNL d   1     -44.378  11.873  22.352  0.00  0.00     0.080 C 
ATOM     23  C   UNL d   1     -43.619  11.667  22.624  0.00  0.00     0.021 C 
ENDBRANCH  19  22
ENDBRANCH  18  19
ENDBRANCH  17  18
ENDBRANCH  16  17
ENDBRANCH   3  16
BRANCH   6  24
ATOM     24  C   UNL d   1     -47.991  12.322  22.972  0.00  0.00     0.036 A 
ATOM     25  C   UNL d   1     -48.279  11.944  22.289  0.00  0.00     0.100 A 
ATOM     26  N   UNL d   1     -48.448  11.133  22.303  0.00  0.00    -0.242 NA
ATOM     27  C   UNL d   1     -48.330  10.692  23.003  0.00  0.00     0.099 A 
ATOM     28  C   UNL d   1     -48.040  11.074  23.685  0.00  0.00     0.021 A 
ATOM     29  C   UNL d   1     -47.871  11.885  23.671  0.00  0.00     0.005 A 
ENDBRANCH   6  24
TORSDOF 7
ENDMDL
MODEL 2
REMARK VINA RESULT:      -5.4      1.650      2.925
REMARK  7 active torsions:
REMARK  status: ('A' for Active; 'I' for Inactive)
REMARK    1  A    between atoms: C_14  and  N_3 
REMARK    2  A    between atoms: C_10  and  C_6 
REMARK    3  A    between atoms: C_15  and  C_14 
REMARK    4  A    between atoms: C_20  and  C_15 
REMARK    5  A    between atoms: N_16  and  C_20 
REMARK    6  A    between atoms: C_23  and  N_16 
REMARK    7  A    between atoms: C_24  and  N_16 
ROOT
ATOM      1  C   UNL d   1     -47.966  12.563  22.763  0.00  0.00     0.083 A 
ATOM      2  C   UNL d   1     -48.187  11.814  22.995  0.00  0.00     0.161 A 
ATOM      3  N   UNL d   1     -46.919  11.970  23.306  0.00  0.00    -0.272 N 
ATOM      4  C   UNL d   1     -47.541  11.447  23.330  0.00  0.00     0.288 A 
ATOM      5  C   UNL d   1     -48.509  13.060  22.407  0.00  0.00     0.201 A 
ATOM      6  C   UNL d   1     -47.180  12.658  22.957  0.00  0.00     0.074 A 
ATOM      7  O   UNL d   1     -48.959  11.560  22.868  0.00  0.00    -0.302 OA
ATOM      8  C   UNL d   1     -49.282  12.801  22.283  0.00  0.00     0.062 A 
ATOM      9  C   UNL d   1     -49.502  12.052  22.514  0.00  0.00     0.103 A 
ATOM     10  O   UNL d   1     -47.523  10.681  23.638  0.00  0.00    -0.264 OA
ATOM     11  O   UNL d   1     -48.282  13.830  22.170  0.00  0.00    -0.286 OA
ATOM     12  C   UNL d   1     -49.824  13.299  21.927  0.00  0.00     0.005 A 
ATOM     13  C   UNL d   1     -50.266  11.797  22.391  0.00  0.00     0.025 A 
ATOM     14  C   UNL d   1     -50.590  13.038  21.805  0.00  0.00     0.000 A 
ATOM     15  C   UNL d   1     -50.810  12.289  22.036  0.00  0.00     0.002 A 
ENDROOT
BRANCH   3  16
ATOM     16  C   UNL d   1     -46.152  11.831  23.586  0.00  0.00     0.085 C 
BRANCH  16  17
ATOM     17  C   UNL d   1     -45.755  11.120  23.391  0.00  0.00     0.038 C 
BRANCH  17  18
ATOM     18  C   UNL d   1     -45.002  10.966  23.698  0.00  0.00     0.082 C 
BRANCH  18  19
ATOM     19  N   UNL d   1     -44.525  10.379  23.355  0.00  0.00    -0.302 N 
BRANCH  19  20
ATOM     20  C   UNL d   1     -44.654   9.578  23.542  0.00  0.00     0.080 C 
ATOM     21  C   UNL d   1     -44.007   9.075  23.689  0.00  0.00     0.021 C 
ENDBRANCH  19  20
BRANCH  19  22
ATOM     22  C   UNL d   1     -43.917  10.590  22.826  0.00  0.00     0.080 C 
ATOM     23  C   UNL d   1     -43.320  11.120  23.062  0.00  0.00     0.021 C 
ENDBRANCH  19  22
ENDBRANCH  18  19
ENDBRANCH  17  18
ENDBRANCH  16  17
ENDBRANCH   3  16
BRANCH   6  24
ATOM     24  C   UNL d   1     -46.727  13.343  22.819  0.00  0.00     0.036 A 
ATOM     25  C   UNL d   1     -46.742  13.968  23.368  0.00  0.00     0.100 A 
ATOM     26  N   UNL d   1     -46.292  14.650  23.232  0.00  0.00    -0.242 NA
ATOM     27  C   UNL d   1     -45.821  14.713  22.544  0.00  0.00     0.099 A 
ATOM     28  C   UNL d   1     -45.808  14.084  21.997  0.00  0.00     0.021 A 
ATOM     29  C   UNL d   1     -46.259  13.401  22.133  0.00  0.00     0.005 A 
ENDBRANCH   6  24
TORSDOF 7
ENDMDL
MODEL 3
REMARK VINA RESULT:      -4.6      6.658      9.149
REMARK  7 active torsions:
REMARK  status: ('A' for Active; 'I' for Inactive)
REMARK    1  A    between atoms: C_14  and  N_3 
REMARK    2  A    between atoms: C_10  and  C_6 
REMARK    3  A    between atoms: C_15  and  C_14 
REMARK    4  A    between atoms: C_20  and  C_15 
REMARK    5  A    between atoms: N_16  and  C_20 
REMARK    6  A    between atoms: C_23  and  N_16 
REMARK    7  A    between atoms: C_24  and  N_16 
ROOT
ATOM      1  C   UNL d   1     -39.842  15.303  19.149  0.00  0.00     0.083 A 
ATOM      2  C   UNL d   1     -39.083  15.569  19.023  0.00  0.00     0.161 A 
ATOM      3  N   UNL d   1     -39.246  15.435  20.320  0.00  0.00    -0.272 N 
ATOM      4  C   UNL d   1     -38.714  15.651  19.745  0.00  0.00     0.288 A 
ATOM      5  C   UNL d   1     -40.343  15.170  18.517  0.00  0.00     0.201 A 
ATOM      6  C   UNL d   1     -39.941  15.220  19.955  0.00  0.00     0.074 A 
ATOM      7  O   UNL d   1     -38.822  15.705  18.254  0.00  0.00    -0.302 OA
ATOM      8  C   UNL d   1     -40.077  15.308  17.748  0.00  0.00     0.062 A 
ATOM      9  C   UNL d   1     -39.319  15.574  17.621  0.00  0.00     0.103 A 
ATOM     10  O   UNL d   1     -37.939  15.908  19.868  0.00  0.00    -0.264 OA
ATOM     11  O   UNL d   1     -41.123  14.896  18.648  0.00  0.00    -0.286 OA
ATOM     12  C   UNL d   1     -40.578  15.175  17.116  0.00  0.00     0.005 A 
ATOM     13  C   UNL d   1     -39.057  15.710  16.862  0.00  0.00     0.025 A 
ATOM     14  C   UNL d   1     -40.312  15.312  16.356  0.00  0.00     0.000 A 
ATOM     15  C   UNL d   1     -39.553  15.579  16.229  0.00  0.00     0.002 A 
ENDROOT
BRANCH   3  16
ATOM     16  C   UNL d   1     -39.109  15.432  21.137  0.00  0.00     0.085 C 
BRANCH  16  17
ATOM     17  C   UNL d   1     -38.489  14.970  21.458  0.00  0.00     0.038 C 
BRANCH  17  18
ATOM     18  C   UNL d   1     -38.094  15.220  22.141  0.00  0.00     0.082 C 
BRANCH  18  19
ATOM     19  N   UNL d   1     -38.043  14.716  22.800  0.00  0.00    -0.302 N 
BRANCH  19  20
ATOM     20  C   UNL d   1     -38.010  15.038  23.566  0.00  0.00     0.080 C 
ATOM     21  C   UNL d   1     -38.068  15.862  23.675  0.00  0.00     0.021 C 
ENDBRANCH  19  20
BRANCH  19  22
ATOM     22  C   UNL d   1     -38.025  13.890  22.694  0.00  0.00     0.080 C 
ATOM     23  C   UNL d   1     -37.947  13.384  23.350  0.00  0.00     0.021 C 
ENDBRANCH  19  22
ENDBRANCH  18  19
ENDBRANCH  17  18
ENDBRANCH  16  17
ENDBRANCH   3  16
BRANCH   6  24
ATOM     24  C   UNL d   1     -40.636  14.960  20.333  0.00  0.00     0.036 A 
ATOM     25  C   UNL d   1     -41.201  15.514  20.591  0.00  0.00     0.100 A 
ATOM     26  N   UNL d   1     -41.893  15.256  20.967  0.00  0.00    -0.242 NA
ATOM     27  C   UNL d   1     -42.026  14.440  21.088  0.00  0.00     0.099 A 
ATOM     28  C   UNL d   1     -41.458  13.888  20.828  0.00  0.00     0.021 A 
ATOM     29  C   UNL d   1     -40.765  14.146  20.451  0.00  0.00     0.005 A 
ENDBRANCH   6  24
TORSDOF 7
ENDMDL
MODEL 4
REMARK VINA RESULT:      -4.5      1.121      4.479
REMARK  7 active torsions:
REMARK  status: ('A' for Active; 'I' for Inactive)
REMARK    1  A    between atoms: C_14  and  N_3 
REMARK    2  A    between atoms: C_10  and  C_6 
REMARK    3  A    between atoms: C_15  and  C_14 
REMARK    4  A    between atoms: C_20  and  C_15 
REMARK    5  A    between atoms: N_16  and  C_20 
REMARK    6  A    between atoms: C_23  and  N_16 
REMARK    7  A    between atoms: C_24  and  N_16 
ROOT
ATOM      1  C   UNL d   1     -46.398  13.227  22.508  0.00  0.00     0.083 A 
ATOM      2  C   UNL d   1     -46.185  14.013  22.482  0.00  0.00     0.161 A 
ATOM      3  N   UNL d   1     -47.435  13.952  22.885  0.00  0.00    -0.272 N 
ATOM      4  C   UNL d   1     -46.825  14.461  22.714  0.00  0.00     0.288 A 
ATOM      5  C   UNL d   1     -45.860  12.648  22.302  0.00  0.00     0.201 A 
ATOM      6  C   UNL d   1     -47.173  13.191  22.759  0.00  0.00     0.074 A 
ATOM      7  O   UNL d   1     -45.425  14.221  22.245  0.00  0.00    -0.302 OA
ATOM      8  C   UNL d   1     -45.098  12.861  22.065  0.00  0.00     0.062 A 
ATOM      9  C   UNL d   1     -44.886  13.646  22.039  0.00  0.00     0.103 A 
ATOM     10  O   UNL d   1     -46.848  15.284  22.766  0.00  0.00    -0.264 OA
ATOM     11  O   UNL d   1     -46.078  11.840  22.329  0.00  0.00    -0.286 OA
ATOM     12  C   UNL d   1     -44.560  12.281  21.859  0.00  0.00     0.005 A 
ATOM     13  C   UNL d   1     -44.134  13.857  21.806  0.00  0.00     0.025 A 
ATOM     14  C   UNL d   1     -43.807  12.497  21.626  0.00  0.00     0.000 A 
ATOM     15  C   UNL d   1     -43.594  13.282  21.599  0.00  0.00     0.002 A 
ENDROOT
BRANCH   3  16
ATOM     16  C   UNL d   1     -48.193  14.165  23.143  0.00  0.00     0.085 C 
BRANCH  16  17
ATOM     17  C   UNL d   1     -48.636  14.736  22.720  0.00  0.00     0.038 C 
BRANCH  17  18
ATOM     18  C   UNL d   1     -49.196  15.202  23.113  0.00  0.00     0.082 C 
BRANCH  18  19
ATOM     19  N   UNL d   1     -49.996  15.168  22.890  0.00  0.00    -0.302 N 
BRANCH  19  20
ATOM     20  C   UNL d   1     -50.590  15.272  23.463  0.00  0.00     0.080 C 
ATOM     21  C   UNL d   1     -51.064  14.626  23.692  0.00  0.00     0.021 C 
ENDBRANCH  19  20
BRANCH  19  22
ATOM     22  C   UNL d   1     -50.202  15.030  22.095  0.00  0.00     0.080 C 
ATOM     23  C   UNL d   1     -50.950  14.719  21.903  0.00  0.00     0.021 C 
ENDBRANCH  19  22
ENDBRANCH  18  19
ENDBRANCH  17  18
ENDBRANCH  16  17
ENDBRANCH   3  16
BRANCH   6  24
ATOM     24  C   UNL d   1     -47.616  12.494  22.865  0.00  0.00     0.036 A 
ATOM     25  C   UNL d   1     -48.086  12.201  22.244  0.00  0.00     0.100 A 
ATOM     26  N   UNL d   1     -48.527  11.508  22.348  0.00  0.00    -0.242 NA
ATOM     27  C   UNL d   1     -48.500  11.099  23.077  0.00  0.00     0.099 A 
ATOM     28  C   UNL d   1     -48.028  11.395  23.697  0.00  0.00     0.021 A 
ATOM     29  C   UNL d   1     -47.587  12.090  23.593  0.00  0.00     0.005 A 
ENDBRANCH   6  24
TORSDOF 7
ENDMDL
