MODEL 1
REMARK VINA RESULT:      23.1      0.000      0.000
REMARK  5 active torsions:
REMARK  status: ('A' for Active; 'I' for Inactive)
REMARK    1  A    between atoms: C_2  and  C_1 
REMARK    2  A    between atoms: S_3  and  C_4 
REMARK    3  A    between atoms: C_7  and  S_3 
REMARK    4  A    between atoms: C_5  and  C_7 
REMARK    5  A    between atoms: C_6  and  C_5 
ROOT
ATOM      1  S   UNL d   1      14.287  12.853  -2.260  0.00  0.00    -0.083 SA
ENDROOT
BRANCH   1   2
ATOM      2  C   UNL d   1      14.136  12.517  -1.500  0.00  0.00     0.035 A 
ATOM      3  C   UNL d   1      14.683  12.566  -0.884  0.00  0.00     0.070 A 
ATOM      4  C   UNL d   1      14.519  12.237  -0.162  0.00  0.00     0.007 A 
ATOM      5  C   UNL d   1      13.808  11.849  -0.026  0.00  0.00     0.000 A 
ATOM      6  C   UNL d   1      13.243  11.794  -0.646  0.00  0.00     0.001 A 
ATOM      7  C   UNL d   1      13.435  12.139  -1.378  0.00  0.00     0.007 A 
BRANCH   3   8
ATOM      8  C   UNL d   1      15.397  12.950  -1.005  0.00  0.00     0.211 C 
ATOM      9  O   UNL d   1      16.066  12.495  -1.231  0.00  0.00    -0.644 OA
ATOM     10  O   UNL d   1      15.459  13.769  -0.907  0.00  0.00    -0.644 OA
ENDBRANCH   3   8
ENDBRANCH   1   2
BRANCH   1  11
ATOM     11  C   UNL d   1      13.744  12.739  -2.843  0.00  0.00     0.077 C 
BRANCH  11  12
ATOM     12  C   UNL d   1      13.718  13.254  -3.498  0.00  0.00     0.202 C 
ATOM     13  O   UNL d   1      13.905  14.045  -3.395  0.00  0.00    -0.286 OA
BRANCH  12  14
ATOM     14  C   UNL d   1      13.503  12.933  -4.223  0.00  0.00     0.040 A 
ATOM     15  C   UNL d   1      13.113  12.191  -4.217  0.00  0.00     0.003 A 
ATOM     16  C   UNL d   1      12.890  11.856  -4.937  0.00  0.00     0.000 A 
ATOM     17  C   UNL d   1      13.047  12.236  -5.616  0.00  0.00     0.000 A 
ATOM     18  C   UNL d   1      13.437  12.976  -5.619  0.00  0.00     0.000 A 
ATOM     19  C   UNL d   1      12.819  11.893  -6.357  0.00  0.00     0.000 C 
ATOM     20  C   UNL d   1      13.659  13.308  -4.885  0.00  0.00     0.003 A 
ENDBRANCH  12  14
ENDBRANCH  11  12
ENDBRANCH   1  11
TORSDOF 5
ENDMDL
