MODEL 1
REMARK VINA RESULT:      21.2      0.000      0.000
REMARK  1 active torsions:
REMARK  status: ('A' for Active; 'I' for Inactive)
REMARK    1  A    between atoms: C_8  and  C_4 
ROOT
ATOM      1  N   UNL d   1      44.139 -16.169  37.070  0.00  0.00    -0.211 NA
ATOM      2  C   UNL d   1      44.952 -16.153  37.213  0.00  0.00     0.140 A 
ATOM      3  C   UNL d   1      45.398 -15.471  37.058  0.00  0.00     0.051 A 
ATOM      4  C   UNL d   1      43.763 -15.495  36.766  0.00  0.00     0.183 A 
ATOM      5  C   UNL d   1      45.015 -14.786  36.748  0.00  0.00     0.104 A 
ATOM      6  O   UNL d   1      44.200 -14.807  36.606  0.00  0.00    -0.289 OA
ATOM      7  S   UNL d   1      45.329 -16.828  37.517  0.00  0.00    -0.057 SA
ATOM      8  C   UNL d   1      46.210 -15.447  37.198  0.00  0.00     0.004 A 
ATOM      9  C   UNL d   1      45.448 -14.110  36.593  0.00  0.00     0.025 A 
ATOM     10  C   UNL d   1      46.646 -14.765  37.041  0.00  0.00     0.000 A 
ATOM     11  C   UNL d   1      46.269 -14.090  36.736  0.00  0.00     0.002 A 
ENDROOT
BRANCH   4  12
ATOM     12  C   UNL d   1      42.942 -15.505  36.619  0.00  0.00     0.041 A 
ATOM     13  C   UNL d   1      42.558 -16.218  36.474  0.00  0.00     0.004 A 
ATOM     14  C   UNL d   1      41.754 -16.226  36.330  0.00  0.00     0.000 A 
ATOM     15  C   UNL d   1      41.328 -15.521  36.330  0.00  0.00     0.000 A 
ATOM     16  C   UNL d   1      41.713 -14.814  36.474  0.00  0.00     0.000 A 
ATOM     17  C   UNL d   1      42.534 -14.804  36.621  0.00  0.00     0.004 A 
ENDBRANCH   4  12
TORSDOF 1
ENDMDL
