MODEL 1
REMARK VINA RESULT:      70.2      0.000      0.000
REMARK  4 active torsions:
REMARK  status: ('A' for Active; 'I' for Inactive)
REMARK    1  A    between atoms: N_10  and  C_3 
REMARK    2  A    between atoms: C_12  and  C_5 
REMARK    3  A    between atoms: C_20  and  N_11 
REMARK    4  A    between atoms: C_24  and  C_20 
ROOT
ATOM      1  N   UNL d   1     -51.427  26.525  33.347  0.00  0.00    -0.196 N 
ATOM      2  C   UNL d   1     -51.671  25.732  33.338  0.00  0.00     0.167 A 
ATOM      3  C   UNL d   1     -50.623  26.695  33.343  0.00  0.00     0.152 A 
ATOM      4  N   UNL d   1     -52.774  26.936  33.363  0.00  0.00    -0.163 NA
ATOM      5  C   UNL d   1     -52.458  25.544  33.342  0.00  0.00     0.055 A 
ATOM      6  N   UNL d   1     -51.106  25.127  33.326  0.00  0.00    -0.227 NA
ATOM      7  C   UNL d   1     -50.064  26.100  33.331  0.00  0.00     0.052 A 
ATOM      8  C   UNL d   1     -53.017  26.147  33.354  0.00  0.00     0.104 A 
ATOM      9  C   UNL d   1     -50.308  25.312  33.322  0.00  0.00     0.086 A 
ATOM     10  C   UNL d   1     -49.259  26.293  33.327  0.00  0.00     0.004 A 
ATOM     11  C   UNL d   1     -53.805  25.972  33.358  0.00  0.00     0.023 C 
ATOM     12  C   UNL d   1     -49.748  24.708  33.310  0.00  0.00     0.019 A 
ATOM     13  C   UNL d   1     -48.693  25.677  33.315  0.00  0.00     0.000 A 
ATOM     14  C   UNL d   1     -48.936  24.889  33.306  0.00  0.00     0.002 A 
ENDROOT
BRANCH   3  15
ATOM     15  N   UNL d   1     -50.371  27.499  33.352  0.00  0.00    -0.286 N 
ATOM     16  C   UNL d   1     -51.003  28.071  33.369  0.00  0.00     0.101 A 
ATOM     17  C   UNL d   1     -50.828  28.903  33.380  0.00  0.00     0.100 A 
ATOM     18  N   UNL d   1     -50.019  29.167  33.373  0.00  0.00    -0.297 N 
ATOM     19  C   UNL d   1     -49.397  28.601  33.357  0.00  0.00     0.100 A 
ATOM     20  C   UNL d   1     -49.574  27.765  33.346  0.00  0.00     0.101 A 
BRANCH  18  21
ATOM     21  C   UNL d   1     -49.844  29.994  33.384  0.00  0.00     0.126 C 
BRANCH  21  22
ATOM     22  C   UNL d   1     -49.421  30.345  34.030  0.00  0.00     0.253 C 
ATOM     23  O   UNL d   1     -48.874  30.971  33.902  0.00  0.00    -0.281 OA
ENDBRANCH  21  22
ENDBRANCH  18  21
ENDBRANCH   3  15
BRANCH   5  24
ATOM     24  C   UNL d   1     -52.701  24.755  33.333  0.00  0.00     0.004 A 
ATOM     25  C   UNL d   1     -53.496  24.582  33.321  0.00  0.00     0.000 A 
ATOM     26  C   UNL d   1     -53.739  23.794  33.312  0.00  0.00     0.000 A 
ATOM     27  C   UNL d   1     -53.183  23.191  33.315  0.00  0.00     0.000 A 
ATOM     28  C   UNL d   1     -52.384  23.376  33.328  0.00  0.00     0.000 A 
ATOM     29  C   UNL d   1     -52.141  24.164  33.337  0.00  0.00     0.000 A 
ENDBRANCH   5  24
TORSDOF 4
ENDMDL
