MODEL 1
REMARK VINA RESULT:      -6.1      0.000      0.000
REMARK  6 active torsions:
REMARK  status: ('A' for Active; 'I' for Inactive)
REMARK    1  A    between atoms: N_9  and  C_1 
REMARK    2  A    between atoms: C_15  and  N_4 
REMARK    3  A    between atoms: C_7  and  N_9 
REMARK    4  A    between atoms: C_12  and  C_11 
REMARK    5  A    between atoms: C_13  and  C_12 
REMARK       I    between atoms: N_16  and  C_13 
REMARK    6  A    between atoms: C_20  and  N_16 
ROOT
ATOM      1  N   UNL d   1     -45.365  12.313  23.214  0.00  0.00    -0.182 NA
ATOM      2  C   UNL d   1     -45.604  13.075  22.997  0.00  0.00     0.197 A 
ATOM      3  C   UNL d   1     -44.810  12.052  22.666  0.00  0.00     0.287 A 
ATOM      4  S   UNL d   1     -45.192  13.284  22.310  0.00  0.00    -0.043 SA
ATOM      5  C   UNL d   1     -44.706  12.653  22.110  0.00  0.00     0.095 A 
ATOM      6  O   UNL d   1     -44.426  11.319  22.672  0.00  0.00    -0.265 OA
ENDROOT
BRANCH   2   7
ATOM      7  N   UNL d   1     -46.155  13.541  23.398  0.00  0.00    -0.215 NA
BRANCH   7   8
ATOM      8  C   UNL d   1     -46.933  13.555  23.153  0.00  0.00     0.159 A 
ATOM      9  C   UNL d   1     -47.493  12.959  23.292  0.00  0.00     0.298 A 
ATOM     10  N   UNL d   1     -48.208  13.200  22.947  0.00  0.00    -0.209 N 
ATOM     11  O   UNL d   1     -47.362  12.258  23.698  0.00  0.00    -0.263 OA
ATOM     12  N   UNL d   1     -48.088  13.937  22.599  0.00  0.00    -0.238 N 
ATOM     13  C   UNL d   1     -47.299  14.157  22.726  0.00  0.00     0.104 A 
ATOM     14  C   UNL d   1     -48.649  14.379  22.197  0.00  0.00     0.120 C 
ATOM     15  C   UNL d   1     -46.941  14.849  22.475  0.00  0.00     0.022 C 
BRANCH  10  16
ATOM     16  C   UNL d   1     -48.907  12.780  22.952  0.00  0.00     0.085 A 
ATOM     17  C   UNL d   1     -49.086  12.268  22.326  0.00  0.00     0.019 A 
ATOM     18  C   UNL d   1     -49.786  11.848  22.331  0.00  0.00     0.002 A 
ATOM     19  C   UNL d   1     -50.324  11.927  22.961  0.00  0.00     0.000 A 
ATOM     20  C   UNL d   1     -50.143  12.437  23.583  0.00  0.00     0.002 A 
ATOM     21  C   UNL d   1     -49.437  12.862  23.579  0.00  0.00     0.019 A 
ENDBRANCH  10  16
ENDBRANCH   7   8
ENDBRANCH   2   7
BRANCH   5  22
ATOM     22  C   UNL d   1     -44.197  12.620  21.462  0.00  0.00     0.074 C 
BRANCH  22  23
ATOM     23  C   UNL d   1     -43.540  13.113  21.431  0.00  0.00     0.280 C 
ATOM     24  N   UNL d   1     -42.843  12.858  21.084  0.00  0.00    -0.208 NA
ATOM     25  O   UNL d   1     -43.578  13.874  21.753  0.00  0.00    -0.265 OA
BRANCH  24  26
ATOM     26  C   UNL d   1     -42.189  13.353  21.055  0.00  0.00     0.085 A 
ATOM     27  C   UNL d   1     -41.602  13.288  21.631  0.00  0.00     0.020 A 
ATOM     28  C   UNL d   1     -40.943  13.785  21.605  0.00  0.00     0.013 A 
ATOM     29  C   UNL d   1     -40.877  14.347  20.996  0.00  0.00     0.058 A 
ATOM     30  C   UNL d   1     -41.462  14.406  20.427  0.00  0.00     0.013 A 
ATOM     31 CL   UNL d   1     -40.218  14.843  20.970  0.00  0.00    -0.082 Cl
ATOM     32  C   UNL d   1     -42.121  13.910  20.453  0.00  0.00     0.020 A 
ENDBRANCH  24  26
ENDBRANCH  22  23
ENDBRANCH   5  22
TORSDOF 6
ENDMDL
MODEL 2
REMARK VINA RESULT:      -3.8      2.744      7.410
REMARK  6 active torsions:
REMARK  status: ('A' for Active; 'I' for Inactive)
REMARK    1  A    between atoms: N_9  and  C_1 
REMARK    2  A    between atoms: C_15  and  N_4 
REMARK    3  A    between atoms: C_7  and  N_9 
REMARK    4  A    between atoms: C_12  and  C_11 
REMARK    5  A    between atoms: C_13  and  C_12 
REMARK       I    between atoms: N_16  and  C_13 
REMARK    6  A    between atoms: C_20  and  N_16 
ROOT
ATOM      1  N   UNL d   1     -41.296  13.660  21.397  0.00  0.00    -0.182 NA
ATOM      2  C   UNL d   1     -41.644  14.096  20.786  0.00  0.00     0.197 A 
ATOM      3  C   UNL d   1     -41.832  13.084  21.639  0.00  0.00     0.287 A 
ATOM      4  S   UNL d   1     -42.400  13.785  20.651  0.00  0.00    -0.043 SA
ATOM      5  C   UNL d   1     -42.510  13.164  21.177  0.00  0.00     0.095 A 
ATOM      6  O   UNL d   1     -41.709  12.526  22.238  0.00  0.00    -0.265 OA
ENDROOT
BRANCH   2   7
ATOM      7  N   UNL d   1     -41.296  14.728  20.384  0.00  0.00    -0.215 NA
BRANCH   7   8
ATOM      8  C   UNL d   1     -40.586  14.623  19.996  0.00  0.00     0.159 A 
ATOM      9  C   UNL d   1     -40.494  14.283  19.245  0.00  0.00     0.298 A 
ATOM     10  N   UNL d   1     -39.684  14.286  19.065  0.00  0.00    -0.209 N 
ATOM     11  O   UNL d   1     -41.095  13.996  18.767  0.00  0.00    -0.263 OA
ATOM     12  N   UNL d   1     -39.283  14.625  19.700  0.00  0.00    -0.238 N 
ATOM     13  C   UNL d   1     -39.841  14.834  20.276  0.00  0.00     0.104 A 
ATOM     14  C   UNL d   1     -38.472  14.738  19.756  0.00  0.00     0.120 C 
ATOM     15  C   UNL d   1     -39.685  15.187  20.998  0.00  0.00     0.022 C 
BRANCH  10  16
ATOM     16  C   UNL d   1     -39.345  14.003  18.379  0.00  0.00     0.085 A 
ATOM     17  C   UNL d   1     -39.336  14.475  17.698  0.00  0.00     0.019 A 
ATOM     18  C   UNL d   1     -38.996  14.191  17.012  0.00  0.00     0.002 A 
ATOM     19  C   UNL d   1     -38.658  13.431  16.989  0.00  0.00     0.000 A 
ATOM     20  C   UNL d   1     -38.668  12.964  17.668  0.00  0.00     0.002 A 
ATOM     21  C   UNL d   1     -39.011  13.249  18.362  0.00  0.00     0.019 A 
ENDBRANCH  10  16
ENDBRANCH   7   8
ENDBRANCH   2   7
BRANCH   5  22
ATOM     22  C   UNL d   1     -43.186  12.695  21.238  0.00  0.00     0.074 C 
BRANCH  22  23
ATOM     23  C   UNL d   1     -43.853  12.985  21.620  0.00  0.00     0.280 C 
ATOM     24  N   UNL d   1     -44.491  12.494  21.775  0.00  0.00    -0.208 NA
ATOM     25  O   UNL d   1     -43.886  13.779  21.852  0.00  0.00    -0.265 OA
BRANCH  24  26
ATOM     26  C   UNL d   1     -45.156  12.787  22.157  0.00  0.00     0.085 A 
ATOM     27  C   UNL d   1     -45.393  12.458  22.875  0.00  0.00     0.020 A 
ATOM     28  C   UNL d   1     -46.061  12.750  23.262  0.00  0.00     0.013 A 
ATOM     29  C   UNL d   1     -46.490  13.376  22.922  0.00  0.00     0.058 A 
ATOM     30  C   UNL d   1     -46.250  13.699  22.209  0.00  0.00     0.013 A 
ATOM     31 CL   UNL d   1     -47.159  13.669  23.308  0.00  0.00    -0.082 Cl
ATOM     32  C   UNL d   1     -45.582  13.407  21.823  0.00  0.00     0.020 A 
ENDBRANCH  24  26
ENDBRANCH  22  23
ENDBRANCH   5  22
TORSDOF 6
ENDMDL
