MODEL 1
REMARK VINA RESULT:      -8.1      0.000      0.000
REMARK  4 active torsions:
REMARK  status: ('A' for Active; 'I' for Inactive)
REMARK    1  A    between atoms: S_3  and  N_1 
REMARK    2  A    between atoms: C_7  and  C_4 
REMARK    3  A    between atoms: C_8  and  C_5 
REMARK    4  A    between atoms: O_19  and  C_17 
ROOT
ATOM      1  N   UNL d   1     -48.835  13.269  22.232  0.00  0.00    -0.155 N 
ATOM      2  N   UNL d   1     -49.509  13.760  22.289  0.00  0.00    -0.155 NA
ATOM      3  C   UNL d   1     -49.416  14.221  22.955  0.00  0.00     0.110 A 
ATOM      4  C   UNL d   1     -48.327  13.425  22.861  0.00  0.00     0.096 A 
ATOM      5  C   UNL d   1     -48.683  14.028  23.329  0.00  0.00     0.041 A 
ENDROOT
BRANCH   4   6
ATOM      6  C   UNL d   1     -47.601  13.063  23.011  0.00  0.00     0.021 A 
ATOM      7  C   UNL d   1     -46.906  13.406  22.752  0.00  0.00     0.026 A 
ATOM      8  C   UNL d   1     -46.181  13.043  22.903  0.00  0.00     0.094 A 
ATOM      9  C   UNL d   1     -46.150  12.337  23.311  0.00  0.00     0.024 A 
ATOM     10  C   UNL d   1     -46.848  11.986  23.574  0.00  0.00     0.002 A 
ATOM     11  C   UNL d   1     -47.574  12.349  23.424  0.00  0.00     0.002 A 
BRANCH   8  12
ATOM     12  O   UNL d   1     -45.480  13.398  22.637  0.00  0.00    -0.328 OA
ATOM     13  C   UNL d   1     -44.991  13.001  22.111  0.00  0.00     0.181 C 
ENDBRANCH   8  12
ENDBRANCH   4   6
BRANCH   1  14
ATOM     14  S   UNL d   1     -48.709  12.727  21.648  0.00  0.00     0.266 S 
ATOM     15  O   UNL d   1     -49.094  12.139  22.101  0.00  0.00    -0.203 OA
ATOM     16  O   UNL d   1     -48.328  13.273  21.178  0.00  0.00    -0.203 OA
ATOM     17  C   UNL d   1     -48.587  12.143  21.048  0.00  0.00     0.165 C 
ENDBRANCH   1  14
BRANCH   3  18
ATOM     18  C   UNL d   1     -49.940  14.795  23.244  0.00  0.00     0.049 A 
ATOM     19  S   UNL d   1     -50.735  14.646  23.370  0.00  0.00    -0.085 SA
ATOM     20  C   UNL d   1     -51.064  15.348  23.656  0.00  0.00     0.035 A 
ATOM     21  C   UNL d   1     -50.447  15.922  23.698  0.00  0.00     0.007 A 
ATOM     22  C   UNL d   1     -49.764  15.574  23.444  0.00  0.00     0.009 A 
ENDBRANCH   3  18
TORSDOF 4
ENDMDL
MODEL 2
REMARK VINA RESULT:      -7.1      1.754      4.007
REMARK  4 active torsions:
REMARK  status: ('A' for Active; 'I' for Inactive)
REMARK    1  A    between atoms: S_3  and  N_1 
REMARK    2  A    between atoms: C_7  and  C_4 
REMARK    3  A    between atoms: C_8  and  C_5 
REMARK    4  A    between atoms: O_19  and  C_17 
ROOT
ATOM      1  N   UNL d   1     -48.344  14.227  22.706  0.00  0.00    -0.155 N 
ATOM      2  N   UNL d   1     -47.509  14.211  22.751  0.00  0.00    -0.155 NA
ATOM      3  C   UNL d   1     -47.272  13.453  22.569  0.00  0.00     0.110 A 
ATOM      4  C   UNL d   1     -48.622  13.480  22.496  0.00  0.00     0.096 A 
ATOM      5  C   UNL d   1     -47.952  12.978  22.405  0.00  0.00     0.041 A 
ENDROOT
BRANCH   4   6
ATOM      6  C   UNL d   1     -49.410  13.258  22.392  0.00  0.00     0.021 A 
ATOM      7  C   UNL d   1     -49.840  12.957  23.018  0.00  0.00     0.026 A 
ATOM      8  C   UNL d   1     -50.628  12.735  22.913  0.00  0.00     0.094 A 
ATOM      9  C   UNL d   1     -50.985  12.814  22.184  0.00  0.00     0.024 A 
ATOM     10  C   UNL d   1     -50.555  13.118  21.549  0.00  0.00     0.002 A 
ATOM     11  C   UNL d   1     -49.767  13.340  21.653  0.00  0.00     0.002 A 
BRANCH   8  12
ATOM     12  O   UNL d   1     -51.058  12.430  23.554  0.00  0.00    -0.328 OA
ATOM     13  C   UNL d   1     -51.064  11.622  23.697  0.00  0.00     0.181 C 
ENDBRANCH   8  12
ENDBRANCH   4   6
BRANCH   1  14
ATOM     14  S   UNL d   1     -48.800  14.876  22.848  0.00  0.00     0.266 S 
ATOM     15  O   UNL d   1     -48.719  15.115  22.050  0.00  0.00    -0.203 OA
ATOM     16  O   UNL d   1     -48.901  14.676  23.631  0.00  0.00    -0.203 OA
ATOM     17  C   UNL d   1     -49.277  15.564  22.975  0.00  0.00     0.165 C 
ENDBRANCH   1  14
BRANCH   3  18
ATOM     18  C   UNL d   1     -46.494  13.165  22.540  0.00  0.00     0.049 A 
ATOM     19  S   UNL d   1     -46.201  12.626  23.081  0.00  0.00    -0.085 SA
ATOM     20  C   UNL d   1     -45.416  12.479  22.866  0.00  0.00     0.035 A 
ATOM     21  C   UNL d   1     -45.247  12.945  22.183  0.00  0.00     0.007 A 
ATOM     22  C   UNL d   1     -45.912  13.360  21.992  0.00  0.00     0.009 A 
ENDBRANCH   3  18
TORSDOF 4
ENDMDL
MODEL 3
REMARK VINA RESULT:      -6.9      1.502      3.906
REMARK  4 active torsions:
REMARK  status: ('A' for Active; 'I' for Inactive)
REMARK    1  A    between atoms: S_3  and  N_1 
REMARK    2  A    between atoms: C_7  and  C_4 
REMARK    3  A    between atoms: C_8  and  C_5 
REMARK    4  A    between atoms: O_19  and  C_17 
ROOT
ATOM      1  N   UNL d   1     -48.795  12.594  22.782  0.00  0.00    -0.155 N 
ATOM      2  N   UNL d   1     -47.990  12.371  22.807  0.00  0.00    -0.155 NA
ATOM      3  C   UNL d   1     -47.550  13.034  22.630  0.00  0.00     0.110 A 
ATOM      4  C   UNL d   1     -48.854  13.393  22.591  0.00  0.00     0.096 A 
ATOM      5  C   UNL d   1     -48.071  13.686  22.491  0.00  0.00     0.041 A 
ENDROOT
BRANCH   4   6
ATOM      6  C   UNL d   1     -49.548  13.832  22.510  0.00  0.00     0.021 A 
ATOM      7  C   UNL d   1     -49.836  14.268  23.137  0.00  0.00     0.026 A 
ATOM      8  C   UNL d   1     -50.530  14.707  23.056  0.00  0.00     0.094 A 
ATOM      9  C   UNL d   1     -50.936  14.709  22.347  0.00  0.00     0.024 A 
ATOM     10  C   UNL d   1     -50.649  14.270  21.711  0.00  0.00     0.002 A 
ATOM     11  C   UNL d   1     -49.955  13.831  21.792  0.00  0.00     0.002 A 
BRANCH   8  12
ATOM     12  O   UNL d   1     -50.816  15.148  23.698  0.00  0.00    -0.328 OA
ATOM     13  C   UNL d   1     -51.062  15.922  23.587  0.00  0.00     0.181 C 
ENDBRANCH   8  12
ENDBRANCH   4   6
BRANCH   1  14
ATOM     14  S   UNL d   1     -49.415  12.097  22.925  0.00  0.00     0.266 S 
ATOM     15  O   UNL d   1     -49.359  11.794  22.147  0.00  0.00    -0.203 OA
ATOM     16  O   UNL d   1     -49.499  12.368  23.689  0.00  0.00    -0.203 OA
ATOM     17  C   UNL d   1     -50.063  11.568  23.054  0.00  0.00     0.165 C 
ENDBRANCH   1  14
BRANCH   3  18
ATOM     18  C   UNL d   1     -46.724  13.090  22.587  0.00  0.00     0.049 A 
ATOM     19  S   UNL d   1     -46.223  12.554  22.949  0.00  0.00    -0.085 SA
ATOM     20  C   UNL d   1     -45.452  12.798  22.778  0.00  0.00     0.035 A 
ATOM     21  C   UNL d   1     -45.504  13.494  22.303  0.00  0.00     0.007 A 
ATOM     22  C   UNL d   1     -46.285  13.664  22.192  0.00  0.00     0.009 A 
ENDBRANCH   3  18
TORSDOF 4
ENDMDL
MODEL 4
REMARK VINA RESULT:      -6.1      1.627      2.225
REMARK  4 active torsions:
REMARK  status: ('A' for Active; 'I' for Inactive)
REMARK    1  A    between atoms: S_3  and  N_1 
REMARK    2  A    between atoms: C_7  and  C_4 
REMARK    3  A    between atoms: C_8  and  C_5 
REMARK    4  A    between atoms: O_19  and  C_17 
ROOT
ATOM      1  N   UNL d   1     -48.727  14.001  22.657  0.00  0.00    -0.155 N 
ATOM      2  N   UNL d   1     -49.471  13.651  22.803  0.00  0.00    -0.155 NA
ATOM      3  C   UNL d   1     -49.333  12.908  23.109  0.00  0.00     0.110 A 
ATOM      4  C   UNL d   1     -48.129  13.476  22.871  0.00  0.00     0.096 A 
ATOM      5  C   UNL d   1     -48.499  12.777  23.160  0.00  0.00     0.041 A 
ENDROOT
BRANCH   4   6
ATOM      6  C   UNL d   1     -47.316  13.604  22.816  0.00  0.00     0.021 A 
ATOM      7  C   UNL d   1     -46.876  13.227  22.240  0.00  0.00     0.026 A 
ATOM      8  C   UNL d   1     -46.063  13.355  22.185  0.00  0.00     0.094 A 
ATOM      9  C   UNL d   1     -45.690  13.861  22.706  0.00  0.00     0.024 A 
ATOM     10  C   UNL d   1     -46.129  14.244  23.290  0.00  0.00     0.002 A 
ATOM     11  C   UNL d   1     -46.942  14.115  23.345  0.00  0.00     0.002 A 
BRANCH   8  12
ATOM     12  O   UNL d   1     -45.624  12.968  21.597  0.00  0.00    -0.328 OA
ATOM     13  C   UNL d   1     -44.808  12.916  21.662  0.00  0.00     0.181 C 
ENDBRANCH   8  12
ENDBRANCH   4   6
BRANCH   1  14
ATOM     14  S   UNL d   1     -48.617  14.739  22.352  0.00  0.00     0.266 S 
ATOM     15  O   UNL d   1     -48.656  15.069  23.120  0.00  0.00    -0.203 OA
ATOM     16  O   UNL d   1     -48.574  14.455  21.590  0.00  0.00    -0.203 OA
ATOM     17  C   UNL d   1     -48.503  15.523  22.053  0.00  0.00     0.165 C 
ENDBRANCH   1  14
BRANCH   3  18
ATOM     18  C   UNL d   1     -49.900  12.348  23.341  0.00  0.00     0.049 A 
ATOM     19  S   UNL d   1     -50.683  12.542  23.482  0.00  0.00    -0.085 SA
ATOM     20  C   UNL d   1     -51.064  11.842  23.698  0.00  0.00     0.035 A 
ATOM     21  C   UNL d   1     -50.490  11.223  23.683  0.00  0.00     0.007 A 
ATOM     22  C   UNL d   1     -49.782  11.543  23.463  0.00  0.00     0.009 A 
ENDBRANCH   3  18
TORSDOF 4
ENDMDL
MODEL 5
REMARK VINA RESULT:      -6.1      2.179      4.603
REMARK  4 active torsions:
REMARK  status: ('A' for Active; 'I' for Inactive)
REMARK    1  A    between atoms: S_3  and  N_1 
REMARK    2  A    between atoms: C_7  and  C_4 
REMARK    3  A    between atoms: C_8  and  C_5 
REMARK    4  A    between atoms: O_19  and  C_17 
ROOT
ATOM      1  N   UNL d   1     -46.175  12.713  22.976  0.00  0.00    -0.155 N 
ATOM      2  N   UNL d   1     -45.439  12.324  23.045  0.00  0.00    -0.155 NA
ATOM      3  C   UNL d   1     -45.592  11.551  23.252  0.00  0.00     0.110 A 
ATOM      4  C   UNL d   1     -46.783  12.181  23.140  0.00  0.00     0.096 A 
ATOM      5  C   UNL d   1     -46.427  11.438  23.317  0.00  0.00     0.041 A 
ENDROOT
BRANCH   4   6
ATOM      6  C   UNL d   1     -47.593  12.340  23.135  0.00  0.00     0.021 A 
ATOM      7  C   UNL d   1     -48.077  11.995  22.574  0.00  0.00     0.026 A 
ATOM      8  C   UNL d   1     -48.887  12.153  22.569  0.00  0.00     0.094 A 
ATOM      9  C   UNL d   1     -49.212  12.656  23.124  0.00  0.00     0.024 A 
ATOM     10  C   UNL d   1     -48.727  13.007  23.691  0.00  0.00     0.002 A 
ATOM     11  C   UNL d   1     -47.918  12.848  23.697  0.00  0.00     0.002 A 
BRANCH   8  12
ATOM     12  O   UNL d   1     -49.372  11.799  21.997  0.00  0.00    -0.328 OA
ATOM     13  C   UNL d   1     -49.900  12.256  21.566  0.00  0.00     0.181 C 
ENDBRANCH   8  12
ENDBRANCH   4   6
BRANCH   1  14
ATOM     14  S   UNL d   1     -46.270  13.489  22.779  0.00  0.00     0.266 S 
ATOM     15  O   UNL d   1     -46.194  13.709  23.583  0.00  0.00    -0.203 OA
ATOM     16  O   UNL d   1     -46.348  13.313  21.988  0.00  0.00    -0.203 OA
ATOM     17  C   UNL d   1     -46.367  14.309  22.595  0.00  0.00     0.165 C 
ENDBRANCH   1  14
BRANCH   3  18
ATOM     18  C   UNL d   1     -45.037  10.948  23.384  0.00  0.00     0.049 A 
ATOM     19  S   UNL d   1     -44.235  11.046  23.250  0.00  0.00    -0.085 SA
ATOM     20  C   UNL d   1     -43.874  10.329  23.445  0.00  0.00     0.035 A 
ATOM     21  C   UNL d   1     -44.479   9.798  23.698  0.00  0.00     0.007 A 
ATOM     22  C   UNL d   1     -45.186  10.186  23.657  0.00  0.00     0.009 A 
ENDBRANCH   3  18
TORSDOF 4
ENDMDL
MODEL 6
REMARK VINA RESULT:      -5.9      9.132     10.122
REMARK  4 active torsions:
REMARK  status: ('A' for Active; 'I' for Inactive)
REMARK    1  A    between atoms: S_3  and  N_1 
REMARK    2  A    between atoms: C_7  and  C_4 
REMARK    3  A    between atoms: C_8  and  C_5 
REMARK    4  A    between atoms: O_19  and  C_17 
ROOT
ATOM      1  N   UNL d   1     -39.270  14.172  18.650  0.00  0.00    -0.155 N 
ATOM      2  N   UNL d   1     -39.106  14.033  19.457  0.00  0.00    -0.155 NA
ATOM      3  C   UNL d   1     -39.399  14.668  19.877  0.00  0.00     0.110 A 
ATOM      4  C   UNL d   1     -39.664  14.892  18.570  0.00  0.00     0.096 A 
ATOM      5  C   UNL d   1     -39.753  15.218  19.341  0.00  0.00     0.041 A 
ENDROOT
BRANCH   4   6
ATOM      6  C   UNL d   1     -39.927  15.235  17.867  0.00  0.00     0.021 A 
ATOM      7  C   UNL d   1     -40.723  15.242  17.683  0.00  0.00     0.026 A 
ATOM      8  C   UNL d   1     -40.985  15.585  16.980  0.00  0.00     0.094 A 
ATOM      9  C   UNL d   1     -40.451  15.922  16.461  0.00  0.00     0.024 A 
ATOM     10  C   UNL d   1     -39.647  15.918  16.643  0.00  0.00     0.002 A 
ATOM     11  C   UNL d   1     -39.385  15.574  17.345  0.00  0.00     0.002 A 
BRANCH   8  12
ATOM     12  O   UNL d   1     -41.795  15.589  16.800  0.00  0.00    -0.328 OA
ATOM     13  C   UNL d   1     -42.058  15.920  16.098  0.00  0.00     0.181 C 
ENDBRANCH   8  12
ENDBRANCH   4   6
BRANCH   1  14
ATOM     14  S   UNL d   1     -39.071  13.675  18.047  0.00  0.00     0.266 S 
ATOM     15  O   UNL d   1     -38.313  14.025  18.000  0.00  0.00    -0.203 OA
ATOM     16  O   UNL d   1     -39.800  13.310  18.063  0.00  0.00    -0.203 OA
ATOM     17  C   UNL d   1     -38.842  13.163  17.413  0.00  0.00     0.165 C 
ENDBRANCH   1  14
BRANCH   3  18
ATOM     18  C   UNL d   1     -39.368  14.783  20.697  0.00  0.00     0.049 A 
ATOM     19  S   UNL d   1     -38.729  15.127  21.074  0.00  0.00    -0.085 SA
ATOM     20  C   UNL d   1     -38.909  15.142  21.880  0.00  0.00     0.035 A 
ATOM     21  C   UNL d   1     -39.673  14.798  21.978  0.00  0.00     0.007 A 
ATOM     22  C   UNL d   1     -39.945  14.582  21.249  0.00  0.00     0.009 A 
ENDBRANCH   3  18
TORSDOF 4
ENDMDL
MODEL 7
REMARK VINA RESULT:      -5.8      8.456      9.983
REMARK  4 active torsions:
REMARK  status: ('A' for Active; 'I' for Inactive)
REMARK    1  A    between atoms: S_3  and  N_1 
REMARK    2  A    between atoms: C_7  and  C_4 
REMARK    3  A    between atoms: C_8  and  C_5 
REMARK    4  A    between atoms: O_19  and  C_17 
ROOT
ATOM      1  N   UNL d   1     -40.240  15.151  18.203  0.00  0.00    -0.155 N 
ATOM      2  N   UNL d   1     -40.573  15.485  18.893  0.00  0.00    -0.155 NA
ATOM      3  C   UNL d   1     -40.060  15.330  19.507  0.00  0.00     0.110 A 
ATOM      4  C   UNL d   1     -39.523  14.792  18.389  0.00  0.00     0.096 A 
ATOM      5  C   UNL d   1     -39.395  14.897  19.215  0.00  0.00     0.041 A 
ENDROOT
BRANCH   4   6
ATOM      6  C   UNL d   1     -39.018  14.399  17.868  0.00  0.00     0.021 A 
ATOM      7  C   UNL d   1     -39.035  13.584  17.812  0.00  0.00     0.026 A 
ATOM      8  C   UNL d   1     -38.529  13.191  17.292  0.00  0.00     0.094 A 
ATOM      9  C   UNL d   1     -38.007  13.613  16.827  0.00  0.00     0.024 A 
ATOM     10  C   UNL d   1     -37.986  14.436  16.880  0.00  0.00     0.002 A 
ATOM     11  C   UNL d   1     -38.491  14.828  17.400  0.00  0.00     0.002 A 
BRANCH   8  12
ATOM     12  O   UNL d   1     -38.553  12.363  17.241  0.00  0.00    -0.328 OA
ATOM     13  C   UNL d   1     -38.065  11.909  17.719  0.00  0.00     0.181 C 
ENDBRANCH   8  12
ENDBRANCH   4   6
BRANCH   1  14
ATOM     14  S   UNL d   1     -40.576  15.181  17.470  0.00  0.00     0.266 S 
ATOM     15  O   UNL d   1     -40.207  15.918  17.324  0.00  0.00    -0.203 OA
ATOM     16  O   UNL d   1     -40.951  14.466  17.576  0.00  0.00    -0.203 OA
ATOM     17  C   UNL d   1     -40.917  15.233  16.697  0.00  0.00     0.165 C 
ENDBRANCH   1  14
BRANCH   3  18
ATOM     18  C   UNL d   1     -40.149  15.551  20.302  0.00  0.00     0.049 A 
ATOM     19  S   UNL d   1     -40.879  15.601  20.669  0.00  0.00    -0.085 SA
ATOM     20  C   UNL d   1     -40.736  15.834  21.449  0.00  0.00     0.035 A 
ATOM     21  C   UNL d   1     -39.901  15.922  21.540  0.00  0.00     0.007 A 
ATOM     22  C   UNL d   1     -39.552  15.746  20.834  0.00  0.00     0.009 A 
ENDBRANCH   3  18
TORSDOF 4
ENDMDL
MODEL 8
REMARK VINA RESULT:      -5.3      7.738      9.638
REMARK  4 active torsions:
REMARK  status: ('A' for Active; 'I' for Inactive)
REMARK    1  A    between atoms: S_3  and  N_1 
REMARK    2  A    between atoms: C_7  and  C_4 
REMARK    3  A    between atoms: C_8  and  C_5 
REMARK    4  A    between atoms: O_19  and  C_17 
ROOT
ATOM      1  N   UNL d   1     -40.344  14.884  20.027  0.00  0.00    -0.155 N 
ATOM      2  N   UNL d   1     -40.401  14.774  19.200  0.00  0.00    -0.155 NA
ATOM      3  C   UNL d   1     -39.676  14.510  18.940  0.00  0.00     0.110 A 
ATOM      4  C   UNL d   1     -39.584  14.688  20.278  0.00  0.00     0.096 A 
ATOM      5  C   UNL d   1     -39.148  14.449  19.598  0.00  0.00     0.041 A 
ENDROOT
BRANCH   4   6
ATOM      6  C   UNL d   1     -39.296  14.719  21.050  0.00  0.00     0.021 A 
ATOM      7  C   UNL d   1     -39.315  14.054  21.525  0.00  0.00     0.026 A 
ATOM      8  C   UNL d   1     -39.027  14.084  22.297  0.00  0.00     0.094 A 
ATOM      9  C   UNL d   1     -38.721  14.780  22.595  0.00  0.00     0.024 A 
ATOM     10  C   UNL d   1     -38.699  15.453  22.121  0.00  0.00     0.002 A 
ATOM     11  C   UNL d   1     -38.987  15.423  21.348  0.00  0.00     0.002 A 
BRANCH   8  12
ATOM     12  O   UNL d   1     -39.050  13.405  22.772  0.00  0.00    -0.328 OA
ATOM     13  C   UNL d   1     -38.783  13.436  23.547  0.00  0.00     0.181 C 
ENDBRANCH   8  12
ENDBRANCH   4   6
BRANCH   1  14
ATOM     14  S   UNL d   1     -40.944  15.142  20.500  0.00  0.00     0.266 S 
ATOM     15  O   UNL d   1     -41.207  14.355  20.607  0.00  0.00    -0.203 OA
ATOM     16  O   UNL d   1     -40.718  15.921  20.418  0.00  0.00    -0.203 OA
ATOM     17  C   UNL d   1     -41.581  15.392  20.999  0.00  0.00     0.165 C 
ENDBRANCH   1  14
BRANCH   3  18
ATOM     18  C   UNL d   1     -39.460  14.323  18.161  0.00  0.00     0.049 A 
ATOM     19  S   UNL d   1     -39.459  14.875  17.557  0.00  0.00    -0.085 SA
ATOM     20  C   UNL d   1     -39.214  14.478  16.875  0.00  0.00     0.035 A 
ATOM     21  C   UNL d   1     -39.069  13.674  17.086  0.00  0.00     0.007 A 
ATOM     22  C   UNL d   1     -39.222  13.590  17.874  0.00  0.00     0.009 A 
ENDBRANCH   3  18
TORSDOF 4
ENDMDL
