MODEL 1
REMARK VINA RESULT:      70.8      0.000      0.000
REMARK  5 active torsions:
REMARK  status: ('A' for Active; 'I' for Inactive)
REMARK    1  A    between atoms: N_6  and  S_1 
REMARK    2  A    between atoms: C_7  and  S_1 
REMARK    3  A    between atoms: C_9  and  C_2 
REMARK       I    between atoms: N_16  and  C_9 
REMARK    4  A    between atoms: C_26  and  N_16 
REMARK    5  A    between atoms: C_18  and  C_26 
ROOT
ATOM      1  C   UNL d   1      13.969  15.143  -5.304  0.00  0.00     0.158 A 
ATOM      2  C   UNL d   1      14.407  14.969  -4.624  0.00  0.00     0.029 A 
ATOM      3  O   UNL d   1      13.312  14.654  -5.313  0.00  0.00    -0.302 OA
ATOM      4  C   UNL d   1      14.006  14.377  -4.234  0.00  0.00     0.026 A 
ATOM      5  C   UNL d   1      13.696  13.395  -3.227  0.00  0.00     0.104 A 
ATOM      6  C   UNL d   1      13.327  14.173  -4.650  0.00  0.00     0.100 A 
ATOM      7  C   UNL d   1      14.193  13.984  -3.515  0.00  0.00     0.015 A 
ATOM      8  C   UNL d   1      13.008  13.194  -3.655  0.00  0.00     0.015 A 
ATOM      9  C   UNL d   1      12.834  13.587  -4.362  0.00  0.00     0.025 A 
ATOM     10  C   UNL d   1      15.111  15.334  -4.400  0.00  0.00     0.002 C 
ENDROOT
BRANCH   1  11
ATOM     11  C   UNL d   1      14.232  15.726  -5.823  0.00  0.00     0.302 C 
ATOM     12  N   UNL d   1      13.827  16.445  -5.871  0.00  0.00    -0.203 NA
ATOM     13  O   UNL d   1      14.891  15.608  -6.295  0.00  0.00    -0.263 OA
BRANCH  12  14
ATOM     14  C   UNL d   1      14.083  17.037  -6.388  0.00  0.00     0.129 C 
BRANCH  14  15
ATOM     15  C   UNL d   1      13.821  17.824  -6.296  0.00  0.00     0.144 A 
ATOM     16  O   UNL d   1      14.368  18.427  -6.110  0.00  0.00    -0.301 OA
ATOM     17  C   UNL d   1      14.107  19.199  -6.021  0.00  0.00     0.123 A 
ATOM     18  C   UNL d   1      14.640  19.805  -5.837  0.00  0.00     0.027 A 
ATOM     19  C   UNL d   1      13.312  19.386  -6.111  0.00  0.00     0.123 A 
ATOM     20  C   UNL d   1      14.388  20.583  -5.745  0.00  0.00     0.002 A 
ATOM     21  C   UNL d   1      13.582  20.755  -5.840  0.00  0.00     0.002 A 
ATOM     22  C   UNL d   1      13.045  20.163  -6.022  0.00  0.00     0.027 A 
ATOM     23  O   UNL d   1      12.775  18.773  -6.297  0.00  0.00    -0.301 OA
ATOM     24  C   UNL d   1      13.020  18.002  -6.389  0.00  0.00     0.149 A 
ENDBRANCH  14  15
ENDBRANCH  12  14
ENDBRANCH   1  11
BRANCH   5  25
ATOM     25  S   UNL d   1      13.882  13.009  -2.517  0.00  0.00     0.272 S 
ATOM     26  O   UNL d   1      13.365  12.392  -2.718  0.00  0.00    -0.200 OA
ATOM     27  O   UNL d   1      14.406  13.632  -2.311  0.00  0.00    -0.200 OA
BRANCH  25  28
ATOM     28  N   UNL d   1      14.069  12.616  -1.799  0.00  0.00    -0.225 N 
ATOM     29  C   UNL d   1      14.827  12.690  -1.494  0.00  0.00     0.118 A 
ATOM     30  C   UNL d   1      15.025  12.309  -0.787  0.00  0.00     0.142 A 
ATOM     31  O   UNL d   1      14.440  11.843  -0.384  0.00  0.00    -0.300 OA
ATOM     32  C   UNL d   1      13.682  11.780  -0.707  0.00  0.00     0.142 A 
ATOM     33  C   UNL d   1      13.500  12.166  -1.411  0.00  0.00     0.118 A 
ENDBRANCH  25  28
ENDBRANCH   5  25
TORSDOF 5
ENDMDL
