MODEL 1
REMARK VINA RESULT:      21.3      0.000      0.000
REMARK  3 active torsions:
REMARK  status: ('A' for Active; 'I' for Inactive)
REMARK    1  A    between atoms: C_8  and  N_1 
REMARK    2  A    between atoms: N_10  and  C_5 
REMARK    3  A    between atoms: C_15  and  N_10 
ROOT
ATOM      1  N   UNL d   1      45.260 -14.499  44.423  0.00  0.00    -0.212 N 
ATOM      2  C   UNL d   1      45.696 -15.124  44.105  0.00  0.00     0.170 A 
ATOM      3  C   UNL d   1      45.412 -15.825  44.435  0.00  0.00     0.093 A 
ATOM      4  N   UNL d   1      44.705 -14.817  44.951  0.00  0.00    -0.162 NA
ATOM      5  C   UNL d   1      45.748 -16.553  44.217  0.00  0.00     0.169 A 
ATOM      6  C   UNL d   1      44.805 -15.638  44.954  0.00  0.00     0.127 A 
ATOM      7  N   UNL d   1      46.316 -15.138  43.554  0.00  0.00    -0.205 NA
ATOM      8  N   UNL d   1      46.368 -16.567  43.667  0.00  0.00    -0.205 NA
ATOM      9  C   UNL d   1      46.647 -15.862  43.341  0.00  0.00     0.202 A 
ENDROOT
BRANCH   1  10
ATOM     10  C   UNL d   1      45.358 -13.698  44.246  0.00  0.00     0.085 A 
ATOM     11  C   UNL d   1      45.065 -13.392  43.545  0.00  0.00     0.019 A 
ATOM     12  C   UNL d   1      45.164 -12.586  43.370  0.00  0.00     0.002 A 
ATOM     13  C   UNL d   1      44.873 -12.273  42.669  0.00  0.00     0.000 C 
ATOM     14  C   UNL d   1      45.553 -12.096  43.895  0.00  0.00     0.000 A 
ATOM     15  C   UNL d   1      45.851 -12.407  44.608  0.00  0.00     0.002 A 
ATOM     16  C   UNL d   1      45.757 -13.197  44.786  0.00  0.00     0.019 A 
ENDBRANCH   1  10
BRANCH   5  17
ATOM     17  N   UNL d   1      45.473 -17.250  44.540  0.00  0.00    -0.227 NA
BRANCH  17  18
ATOM     18  C   UNL d   1      45.836 -17.958  44.357  0.00  0.00     0.083 C 
ATOM     19  C   UNL d   1      46.332 -18.327  44.906  0.00  0.00     0.021 C 
ATOM     20  C   UNL d   1      45.711 -18.313  43.618  0.00  0.00     0.021 C 
ENDBRANCH  17  18
ENDBRANCH   5  17
TORSDOF 3
ENDMDL
MODEL 2
REMARK VINA RESULT:      22.7      0.768      4.237
REMARK  3 active torsions:
REMARK  status: ('A' for Active; 'I' for Inactive)
REMARK    1  A    between atoms: C_8  and  N_1 
REMARK    2  A    between atoms: N_10  and  C_5 
REMARK    3  A    between atoms: C_15  and  N_10 
ROOT
ATOM      1  N   UNL d   1      45.738 -16.691  44.256  0.00  0.00    -0.212 N 
ATOM      2  C   UNL d   1      45.972 -15.935  44.023  0.00  0.00     0.170 A 
ATOM      3  C   UNL d   1      45.532 -15.388  44.456  0.00  0.00     0.093 A 
ATOM      4  N   UNL d   1      45.150 -16.609  44.836  0.00  0.00    -0.162 NA
ATOM      5  C   UNL d   1      45.649 -14.574  44.338  0.00  0.00     0.169 A 
ATOM      6  C   UNL d   1      45.027 -15.800  44.955  0.00  0.00     0.127 A 
ATOM      7  N   UNL d   1      46.534 -15.680  43.468  0.00  0.00    -0.205 NA
ATOM      8  N   UNL d   1      46.211 -14.319  43.783  0.00  0.00    -0.205 NA
ATOM      9  C   UNL d   1      46.647 -14.873  43.354  0.00  0.00     0.202 A 
ENDROOT
BRANCH   1  10
ATOM     10  C   UNL d   1      46.034 -17.405  43.965  0.00  0.00     0.085 A 
ATOM     11  C   UNL d   1      46.108 -18.054  44.461  0.00  0.00     0.019 A 
ATOM     12  C   UNL d   1      46.407 -18.771  44.166  0.00  0.00     0.002 A 
ATOM     13  C   UNL d   1      46.483 -19.424  44.657  0.00  0.00     0.000 C 
ATOM     14  C   UNL d   1      46.628 -18.832  43.382  0.00  0.00     0.000 A 
ATOM     15  C   UNL d   1      46.554 -18.173  42.879  0.00  0.00     0.002 A 
ATOM     16  C   UNL d   1      46.261 -17.467  43.161  0.00  0.00     0.019 A 
ENDBRANCH   1  10
BRANCH   5  17
ATOM     17  N   UNL d   1      45.218 -14.027  44.762  0.00  0.00    -0.227 NA
BRANCH  17  18
ATOM     18  C   UNL d   1      45.201 -13.245  44.526  0.00  0.00     0.083 C 
ATOM     19  C   UNL d   1      44.710 -13.007  43.907  0.00  0.00     0.021 C 
ATOM     20  C   UNL d   1      45.677 -12.684  44.908  0.00  0.00     0.021 C 
ENDBRANCH  17  18
ENDBRANCH   5  17
TORSDOF 3
ENDMDL
