MODEL 1
REMARK VINA RESULT:      -3.0      0.000      0.000
REMARK  4 active torsions:
REMARK  status: ('A' for Active; 'I' for Inactive)
REMARK    1  A    between atoms: C_9  and  N_1 
REMARK    2  A    between atoms: C_6  and  C_2 
REMARK       I    between atoms: N_8  and  C_6 
REMARK    3  A    between atoms: C_15  and  N_8 
REMARK    4  A    between atoms: C_13  and  C_9 
ROOT
ATOM      1  N   UNL d   1      31.652  17.342 -24.518  0.00  0.00    -0.258 N 
ATOM      2  C   UNL d   1      32.453  18.060 -23.694  0.00  0.00     0.114 A 
ATOM      3  C   UNL d   1      31.814  18.013 -24.144  0.00  0.00     0.270 A 
ATOM      4  C   UNL d   1      32.124  16.724 -24.444  0.00  0.00     0.150 A 
ATOM      5  C   UNL d   1      32.928  17.442 -23.618  0.00  0.00     0.013 A 
ATOM      6  C   UNL d   1      32.761  16.778 -23.993  0.00  0.00     0.035 A 
ATOM      7  N   UNL d   1      31.961  16.067 -24.813  0.00  0.00    -0.227 NA
ATOM      8  O   UNL d   1      31.581  18.664 -24.045  0.00  0.00    -0.266 OA
ATOM      9  C   UNL d   1      33.239  16.160 -23.914  0.00  0.00     0.005 A 
ATOM     10  C   UNL d   1      32.426  15.453 -24.742  0.00  0.00     0.101 A 
ATOM     11  C   UNL d   1      33.065  15.499 -24.292  0.00  0.00     0.021 A 
ENDROOT
BRANCH   2  12
ATOM     12  C   UNL d   1      32.619  18.728 -23.318  0.00  0.00     0.284 C 
ATOM     13  N   UNL d   1      32.474  18.990 -22.541  0.00  0.00    -0.208 NA
ATOM     14  O   UNL d   1      32.898  18.988 -23.813  0.00  0.00    -0.265 OA
BRANCH  13  15
ATOM     15  C   UNL d   1      32.730  19.762 -22.298  0.00  0.00     0.085 A 
ATOM     16  C   UNL d   1      32.995  20.314 -22.859  0.00  0.00     0.019 A 
ATOM     17  C   UNL d   1      33.241  21.061 -22.608  0.00  0.00     0.002 A 
ATOM     18  C   UNL d   1      33.223  21.258 -21.808  0.00  0.00     0.000 A 
ATOM     19  C   UNL d   1      32.961  20.719 -21.237  0.00  0.00     0.002 A 
ATOM     20  C   UNL d   1      32.712  19.962 -21.491  0.00  0.00     0.019 A 
ENDBRANCH  13  15
ENDBRANCH   2  12
BRANCH   1  21
ATOM     21  C   UNL d   1      30.971  17.288 -24.999  0.00  0.00     0.084 C 
BRANCH  21  22
ATOM     22  C   UNL d   1      30.389  17.318 -24.728  0.00  0.00     0.018 A 
ATOM     23  C   UNL d   1      29.815  17.852 -25.094  0.00  0.00     0.004 A 
ATOM     24  C   UNL d   1      29.017  17.925 -24.763  0.00  0.00     0.030 A 
ATOM     25  C   UNL d   1      28.798  17.466 -24.071  0.00  0.00     0.140 A 
ATOM     26  C   UNL d   1      29.360  16.932 -23.700  0.00  0.00     0.030 A 
ATOM     27  F   UNL d   1      28.020  17.536 -23.748  0.00  0.00    -0.204 F 
ATOM     28  C   UNL d   1      30.165  16.855 -24.030  0.00  0.00     0.004 A 
ENDBRANCH  21  22
ENDBRANCH   1  21
TORSDOF 4
ENDMDL
