MODEL 1
REMARK VINA RESULT:      -8.1      0.000      0.000
REMARK  3 active torsions:
REMARK  status: ('A' for Active; 'I' for Inactive)
REMARK    1  A    between atoms: C_9  and  C_1 
REMARK       I    between atoms: N_12  and  C_9 
REMARK    2  A    between atoms: C_16  and  N_12 
REMARK    3  A    between atoms: C_17  and  C_16 
ROOT
ATOM      1  C   UNL d   1     -46.816  13.366  22.500  0.00  0.00     0.108 A 
ATOM      2  C   UNL d   1     -47.923  14.088  22.603  0.00  0.00     0.044 A 
ATOM      3  C   UNL d   1     -48.141  13.300  22.343  0.00  0.00     0.112 A 
ATOM      4  S   UNL d   1     -47.445  12.852  22.280  0.00  0.00    -0.061 SA
ATOM      5  C   UNL d   1     -47.099  14.106  22.694  0.00  0.00     0.116 A 
ATOM      6  N   UNL d   1     -48.920  13.122  22.208  0.00  0.00    -0.239 NA
ATOM      7  C   UNL d   1     -49.289  14.454  22.571  0.00  0.00     0.057 A 
ATOM      8  C   UNL d   1     -48.499  14.648  22.712  0.00  0.00     0.008 A 
ATOM      9  C   UNL d   1     -49.497  13.700  22.322  0.00  0.00     0.085 A 
ATOM     10  C   UNL d   1     -49.872  15.034  22.686  0.00  0.00     0.197 A 
ATOM     11  N   UNL d   1     -46.623  14.761  22.941  0.00  0.00    -0.147 N 
ATOM     12  O   UNL d   1     -49.660  15.801  22.939  0.00  0.00    -0.286 OA
ATOM     13  C   UNL d   1     -50.292  13.509  22.182  0.00  0.00     0.019 A 
ATOM     14  C   UNL d   1     -50.657  14.859  22.551  0.00  0.00     0.042 A 
ATOM     15  C   UNL d   1     -50.875  14.071  22.291  0.00  0.00     0.005 A 
ENDROOT
BRANCH   1  16
ATOM     16  C   UNL d   1     -46.009  13.157  22.521  0.00  0.00     0.287 C 
ATOM     17  N   UNL d   1     -45.811  12.414  22.810  0.00  0.00    -0.206 NA
ATOM     18  O   UNL d   1     -45.420  13.667  22.266  0.00  0.00    -0.265 OA
BRANCH  17  19
ATOM     19  C   UNL d   1     -45.009  12.188  22.838  0.00  0.00     0.102 C 
BRANCH  19  20
ATOM     20  C   UNL d   1     -44.799  11.439  23.103  0.00  0.00     0.019 A 
ATOM     21  C   UNL d   1     -44.018  11.184  23.042  0.00  0.00     0.002 A 
ATOM     22  C   UNL d   1     -43.812  10.431  23.310  0.00  0.00     0.000 A 
ATOM     23  C   UNL d   1     -44.374   9.937  23.634  0.00  0.00     0.000 A 
ATOM     24  C   UNL d   1     -45.155  10.185  23.698  0.00  0.00     0.000 A 
ATOM     25  C   UNL d   1     -45.370  10.938  23.432  0.00  0.00     0.002 A 
ENDBRANCH  19  20
ENDBRANCH  17  19
ENDBRANCH   1  16
TORSDOF 3
ENDMDL
MODEL 2
REMARK VINA RESULT:      -7.5      1.309      1.887
REMARK  3 active torsions:
REMARK  status: ('A' for Active; 'I' for Inactive)
REMARK    1  A    between atoms: C_9  and  C_1 
REMARK       I    between atoms: N_12  and  C_9 
REMARK    2  A    between atoms: C_16  and  N_12 
REMARK    3  A    between atoms: C_17  and  C_16 
ROOT
ATOM      1  C   UNL d   1     -47.296  11.988  23.358  0.00  0.00     0.108 A 
ATOM      2  C   UNL d   1     -48.316  12.821  23.200  0.00  0.00     0.044 A 
ATOM      3  C   UNL d   1     -47.592  13.248  23.026  0.00  0.00     0.112 A 
ATOM      4  S   UNL d   1     -46.958  12.723  23.126  0.00  0.00    -0.061 SA
ATOM      5  C   UNL d   1     -48.109  12.044  23.402  0.00  0.00     0.116 A 
ATOM      6  N   UNL d   1     -47.628  14.028  22.810  0.00  0.00    -0.239 NA
ATOM      7  C   UNL d   1     -49.053  13.996  22.925  0.00  0.00     0.057 A 
ATOM      8  C   UNL d   1     -49.029  13.202  23.146  0.00  0.00     0.008 A 
ATOM      9  C   UNL d   1     -48.360  14.405  22.758  0.00  0.00     0.085 A 
ATOM     10  C   UNL d   1     -49.788  14.378  22.872  0.00  0.00     0.197 A 
ATOM     11  N   UNL d   1     -48.630  11.412  23.618  0.00  0.00    -0.147 N 
ATOM     12  O   UNL d   1     -50.492  13.963  23.041  0.00  0.00    -0.286 OA
ATOM     13  C   UNL d   1     -48.387  15.204  22.536  0.00  0.00     0.019 A 
ATOM     14  C   UNL d   1     -49.828  15.163  22.655  0.00  0.00     0.042 A 
ATOM     15  C   UNL d   1     -49.105  15.590  22.481  0.00  0.00     0.005 A 
ENDROOT
BRANCH   1  16
ATOM     16  C   UNL d   1     -46.869  11.292  23.521  0.00  0.00     0.287 C 
ATOM     17  N   UNL d   1     -46.048  11.330  23.504  0.00  0.00    -0.206 NA
ATOM     18  O   UNL d   1     -47.241  10.582  23.695  0.00  0.00    -0.265 OA
BRANCH  17  19
ATOM     19  C   UNL d   1     -45.604  10.644  23.666  0.00  0.00     0.102 C 
BRANCH  19  20
ATOM     20  C   UNL d   1     -44.799  10.623  23.501  0.00  0.00     0.019 A 
ATOM     21  C   UNL d   1     -44.355   9.957  23.697  0.00  0.00     0.002 A 
ATOM     22  C   UNL d   1     -43.547   9.941  23.530  0.00  0.00     0.000 A 
ATOM     23  C   UNL d   1     -43.184  10.578  23.171  0.00  0.00     0.000 A 
ATOM     24  C   UNL d   1     -43.621  11.244  22.973  0.00  0.00     0.000 A 
ATOM     25  C   UNL d   1     -44.431  11.269  23.137  0.00  0.00     0.002 A 
ENDBRANCH  19  20
ENDBRANCH  17  19
ENDBRANCH   1  16
TORSDOF 3
ENDMDL
MODEL 3
REMARK VINA RESULT:      -7.4      1.390      2.003
REMARK  3 active torsions:
REMARK  status: ('A' for Active; 'I' for Inactive)
REMARK    1  A    between atoms: C_9  and  C_1 
REMARK       I    between atoms: N_12  and  C_9 
REMARK    2  A    between atoms: C_16  and  N_12 
REMARK    3  A    between atoms: C_17  and  C_16 
ROOT
ATOM      1  C   UNL d   1     -46.905  12.956  23.055  0.00  0.00     0.108 A 
ATOM      2  C   UNL d   1     -48.191  13.249  22.913  0.00  0.00     0.044 A 
ATOM      3  C   UNL d   1     -47.755  13.984  22.987  0.00  0.00     0.112 A 
ATOM      4  S   UNL d   1     -46.952  13.796  23.076  0.00  0.00    -0.061 SA
ATOM      5  C   UNL d   1     -47.644  12.626  22.957  0.00  0.00     0.116 A 
ATOM      6  N   UNL d   1     -48.153  14.691  22.963  0.00  0.00    -0.239 NA
ATOM      7  C   UNL d   1     -49.388  13.991  22.795  0.00  0.00     0.057 A 
ATOM      8  C   UNL d   1     -48.995  13.266  22.819  0.00  0.00     0.008 A 
ATOM      9  C   UNL d   1     -48.972  14.695  22.867  0.00  0.00     0.085 A 
ATOM     10  C   UNL d   1     -50.213  13.999  22.699  0.00  0.00     0.197 A 
ATOM     11  N   UNL d   1     -47.805  11.796  22.912  0.00  0.00    -0.147 N 
ATOM     12  O   UNL d   1     -50.636  13.284  22.626  0.00  0.00    -0.286 OA
ATOM     13  C   UNL d   1     -49.370  15.423  22.843  0.00  0.00     0.019 A 
ATOM     14  C   UNL d   1     -50.616  14.708  22.674  0.00  0.00     0.042 A 
ATOM     15  C   UNL d   1     -50.181  15.443  22.748  0.00  0.00     0.005 A 
ENDROOT
BRANCH   1  16
ATOM     16  C   UNL d   1     -46.203  12.512  23.123  0.00  0.00     0.287 C 
ATOM     17  N   UNL d   1     -45.595  12.668  22.593  0.00  0.00    -0.206 NA
ATOM     18  O   UNL d   1     -46.107  11.935  23.697  0.00  0.00    -0.265 OA
BRANCH  17  19
ATOM     19  C   UNL d   1     -44.886  12.233  22.646  0.00  0.00     0.102 C 
BRANCH  19  20
ATOM     20  C   UNL d   1     -44.245  12.427  22.171  0.00  0.00     0.019 A 
ATOM     21  C   UNL d   1     -43.524  12.040  22.271  0.00  0.00     0.002 A 
ATOM     22  C   UNL d   1     -42.883  12.238  21.791  0.00  0.00     0.000 A 
ATOM     23  C   UNL d   1     -42.956  12.814  21.218  0.00  0.00     0.000 A 
ATOM     24  C   UNL d   1     -43.671  13.204  21.113  0.00  0.00     0.000 A 
ATOM     25  C   UNL d   1     -44.318  13.012  21.589  0.00  0.00     0.002 A 
ENDBRANCH  19  20
ENDBRANCH  17  19
ENDBRANCH   1  16
TORSDOF 3
ENDMDL
MODEL 4
REMARK VINA RESULT:      -7.2      8.149      9.912
REMARK  3 active torsions:
REMARK  status: ('A' for Active; 'I' for Inactive)
REMARK    1  A    between atoms: C_9  and  C_1 
REMARK       I    between atoms: N_12  and  C_9 
REMARK    2  A    between atoms: C_16  and  N_12 
REMARK    3  A    between atoms: C_17  and  C_16 
ROOT
ATOM      1  C   UNL d   1     -39.698  14.477  18.959  0.00  0.00     0.108 A 
ATOM      2  C   UNL d   1     -39.188  14.815  17.782  0.00  0.00     0.044 A 
ATOM      3  C   UNL d   1     -39.141  13.962  17.859  0.00  0.00     0.112 A 
ATOM      4  S   UNL d   1     -39.461  13.755  18.596  0.00  0.00    -0.061 SA
ATOM      5  C   UNL d   1     -39.536  15.113  18.474  0.00  0.00     0.116 A 
ATOM      6  N   UNL d   1     -38.821  13.521  17.258  0.00  0.00    -0.239 NA
ATOM      7  C   UNL d   1     -38.589  14.714  16.505  0.00  0.00     0.057 A 
ATOM      8  C   UNL d   1     -38.912  15.173  17.110  0.00  0.00     0.008 A 
ATOM      9  C   UNL d   1     -38.544  13.898  16.579  0.00  0.00     0.085 A 
ATOM     10  C   UNL d   1     -38.309  15.091  15.820  0.00  0.00     0.197 A 
ATOM     11  N   UNL d   1     -39.700  15.922  18.661  0.00  0.00    -0.147 N 
ATOM     12  O   UNL d   1     -38.354  15.920  15.746  0.00  0.00    -0.286 OA
ATOM     13  C   UNL d   1     -38.218  13.439  15.969  0.00  0.00     0.019 A 
ATOM     14  C   UNL d   1     -37.986  14.650  15.213  0.00  0.00     0.042 A 
ATOM     15  C   UNL d   1     -37.940  13.797  15.290  0.00  0.00     0.005 A 
ENDROOT
BRANCH   1  16
ATOM     16  C   UNL d   1     -40.051  14.544  19.710  0.00  0.00     0.287 C 
ATOM     17  N   UNL d   1     -39.576  14.432  20.371  0.00  0.00    -0.206 NA
ATOM     18  O   UNL d   1     -40.847  14.716  19.804  0.00  0.00    -0.265 OA
BRANCH  17  19
ATOM     19  C   UNL d   1     -39.912  14.495  21.131  0.00  0.00     0.102 C 
BRANCH  19  20
ATOM     20  C   UNL d   1     -39.441  14.419  21.800  0.00  0.00     0.019 A 
ATOM     21  C   UNL d   1     -39.239  13.670  22.080  0.00  0.00     0.002 A 
ATOM     22  C   UNL d   1     -38.766  13.599  22.752  0.00  0.00     0.000 A 
ATOM     23  C   UNL d   1     -38.496  14.262  23.142  0.00  0.00     0.000 A 
ATOM     24  C   UNL d   1     -38.694  15.011  22.869  0.00  0.00     0.000 A 
ATOM     25  C   UNL d   1     -39.167  15.092  22.196  0.00  0.00     0.002 A 
ENDBRANCH  19  20
ENDBRANCH  17  19
ENDBRANCH   1  16
TORSDOF 3
ENDMDL
MODEL 5
REMARK VINA RESULT:      -6.6      1.541      5.343
REMARK  3 active torsions:
REMARK  status: ('A' for Active; 'I' for Inactive)
REMARK    1  A    between atoms: C_9  and  C_1 
REMARK       I    between atoms: N_12  and  C_9 
REMARK    2  A    between atoms: C_16  and  N_12 
REMARK    3  A    between atoms: C_17  and  C_16 
ROOT
ATOM      1  C   UNL d   1     -47.486  12.618  23.089  0.00  0.00     0.108 A 
ATOM      2  C   UNL d   1     -46.233  12.221  22.915  0.00  0.00     0.044 A 
ATOM      3  C   UNL d   1     -46.329  12.980  22.527  0.00  0.00     0.112 A 
ATOM      4  S   UNL d   1     -47.114  13.224  22.638  0.00  0.00    -0.061 SA
ATOM      5  C   UNL d   1     -46.962  12.016  23.256  0.00  0.00     0.116 A 
ATOM      6  N   UNL d   1     -45.700  13.318  22.144  0.00  0.00    -0.239 NA
ATOM      7  C   UNL d   1     -44.881  12.202  22.502  0.00  0.00     0.057 A 
ATOM      8  C   UNL d   1     -45.514  11.848  22.895  0.00  0.00     0.008 A 
ATOM      9  C   UNL d   1     -44.973  12.928  22.131  0.00  0.00     0.085 A 
ATOM     10  C   UNL d   1     -44.148  11.812  22.487  0.00  0.00     0.197 A 
ATOM     11  N   UNL d   1     -47.145  11.318  23.698  0.00  0.00    -0.147 N 
ATOM     12  O   UNL d   1     -44.055  11.074  22.864  0.00  0.00    -0.286 OA
ATOM     13  C   UNL d   1     -44.334  13.282  21.736  0.00  0.00     0.019 A 
ATOM     14  C   UNL d   1     -43.512  12.149  22.102  0.00  0.00     0.042 A 
ATOM     15  C   UNL d   1     -43.608  12.908  21.714  0.00  0.00     0.005 A 
ENDROOT
BRANCH   1  16
ATOM     16  C   UNL d   1     -48.282  12.623  23.336  0.00  0.00     0.287 C 
ATOM     17  N   UNL d   1     -48.700  13.328  23.278  0.00  0.00    -0.206 NA
ATOM     18  O   UNL d   1     -48.651  11.952  23.629  0.00  0.00    -0.265 OA
BRANCH  17  19
ATOM     19  C   UNL d   1     -49.497  13.351  23.520  0.00  0.00     0.102 C 
BRANCH  19  20
ATOM     20  C   UNL d   1     -49.979  13.979  23.300  0.00  0.00     0.019 A 
ATOM     21  C   UNL d   1     -50.524  13.887  22.689  0.00  0.00     0.002 A 
ATOM     22  C   UNL d   1     -51.005  14.520  22.471  0.00  0.00     0.000 A 
ATOM     23  C   UNL d   1     -50.948  15.237  22.856  0.00  0.00     0.000 A 
ATOM     24  C   UNL d   1     -50.407  15.336  23.467  0.00  0.00     0.000 A 
ATOM     25  C   UNL d   1     -49.920  14.706  23.691  0.00  0.00     0.002 A 
ENDBRANCH  19  20
ENDBRANCH  17  19
ENDBRANCH   1  16
TORSDOF 3
ENDMDL
MODEL 6
REMARK VINA RESULT:      -6.4      1.515      1.972
REMARK  3 active torsions:
REMARK  status: ('A' for Active; 'I' for Inactive)
REMARK    1  A    between atoms: C_9  and  C_1 
REMARK       I    between atoms: N_12  and  C_9 
REMARK    2  A    between atoms: C_16  and  N_12 
REMARK    3  A    between atoms: C_17  and  C_16 
ROOT
ATOM      1  C   UNL d   1     -47.161  13.577  22.792  0.00  0.00     0.108 A 
ATOM      2  C   UNL d   1     -48.475  13.486  22.946  0.00  0.00     0.044 A 
ATOM      3  C   UNL d   1     -48.131  12.719  23.119  0.00  0.00     0.112 A 
ATOM      4  S   UNL d   1     -47.309  12.781  23.021  0.00  0.00    -0.061 SA
ATOM      5  C   UNL d   1     -47.856  14.001  22.747  0.00  0.00     0.116 A 
ATOM      6  N   UNL d   1     -48.611  12.102  23.332  0.00  0.00    -0.239 NA
ATOM      7  C   UNL d   1     -49.756  12.951  23.216  0.00  0.00     0.057 A 
ATOM      8  C   UNL d   1     -49.277  13.586  22.998  0.00  0.00     0.008 A 
ATOM      9  C   UNL d   1     -49.427  12.217  23.381  0.00  0.00     0.085 A 
ATOM     10  C   UNL d   1     -50.576  13.064  23.267  0.00  0.00     0.197 A 
ATOM     11  N   UNL d   1     -47.916  14.818  22.533  0.00  0.00    -0.147 N 
ATOM     12  O   UNL d   1     -50.911  13.810  23.099  0.00  0.00    -0.286 OA
ATOM     13  C   UNL d   1     -49.911  11.580  23.600  0.00  0.00     0.019 A 
ATOM     14  C   UNL d   1     -51.064  12.446  23.481  0.00  0.00     0.042 A 
ATOM     15  C   UNL d   1     -50.720  11.679  23.653  0.00  0.00     0.005 A 
ENDROOT
BRANCH   1  16
ATOM     16  C   UNL d   1     -46.409  13.899  22.631  0.00  0.00     0.287 C 
ATOM     17  N   UNL d   1     -45.841  13.406  22.300  0.00  0.00    -0.206 NA
ATOM     18  O   UNL d   1     -46.226  14.681  22.794  0.00  0.00    -0.265 OA
BRANCH  17  19
ATOM     19  C   UNL d   1     -45.084  13.711  22.132  0.00  0.00     0.102 C 
BRANCH  19  20
ATOM     20  C   UNL d   1     -44.458  13.202  21.976  0.00  0.00     0.019 A 
ATOM     21  C   UNL d   1     -43.806  13.469  21.548  0.00  0.00     0.002 A 
ATOM     22  C   UNL d   1     -43.180  12.954  21.394  0.00  0.00     0.000 A 
ATOM     23  C   UNL d   1     -43.201  12.183  21.660  0.00  0.00     0.000 A 
ATOM     24  C   UNL d   1     -43.847  11.911  22.087  0.00  0.00     0.000 A 
ATOM     25  C   UNL d   1     -44.479  12.420  22.247  0.00  0.00     0.002 A 
ENDBRANCH  19  20
ENDBRANCH  17  19
ENDBRANCH   1  16
TORSDOF 3
ENDMDL
MODEL 7
REMARK VINA RESULT:      -5.9      8.696     10.694
REMARK  3 active torsions:
REMARK  status: ('A' for Active; 'I' for Inactive)
REMARK    1  A    between atoms: C_9  and  C_1 
REMARK       I    between atoms: N_12  and  C_9 
REMARK    2  A    between atoms: C_16  and  N_12 
REMARK    3  A    between atoms: C_17  and  C_16 
ROOT
ATOM      1  C   UNL d   1     -38.588  14.598  18.156  0.00  0.00     0.108 A 
ATOM      2  C   UNL d   1     -38.371  14.308  16.880  0.00  0.00     0.044 A 
ATOM      3  C   UNL d   1     -38.425  15.161  16.955  0.00  0.00     0.112 A 
ATOM      4  S   UNL d   1     -38.562  15.337  17.755  0.00  0.00    -0.061 SA
ATOM      5  C   UNL d   1     -38.474  13.980  17.635  0.00  0.00     0.116 A 
ATOM      6  N   UNL d   1     -38.344  15.629  16.298  0.00  0.00    -0.239 NA
ATOM      7  C   UNL d   1     -38.157  14.464  15.491  0.00  0.00     0.057 A 
ATOM      8  C   UNL d   1     -38.238  13.978  16.152  0.00  0.00     0.008 A 
ATOM      9  C   UNL d   1     -38.210  15.280  15.563  0.00  0.00     0.085 A 
ATOM     10  C   UNL d   1     -38.022  14.116  14.749  0.00  0.00     0.197 A 
ATOM     11  N   UNL d   1     -38.467  13.160  17.845  0.00  0.00    -0.147 N 
ATOM     12  O   UNL d   1     -37.969  13.287  14.676  0.00  0.00    -0.286 OA
ATOM     13  C   UNL d   1     -38.128  15.767  14.896  0.00  0.00     0.019 A 
ATOM     14  C   UNL d   1     -37.940  14.584  14.085  0.00  0.00     0.042 A 
ATOM     15  C   UNL d   1     -37.994  15.437  14.161  0.00  0.00     0.005 A 
ENDROOT
BRANCH   1  16
ATOM     16  C   UNL d   1     -38.714  14.498  18.973  0.00  0.00     0.287 C 
ATOM     17  N   UNL d   1     -39.438  14.730  19.284  0.00  0.00    -0.206 NA
ATOM     18  O   UNL d   1     -38.141  14.179  19.466  0.00  0.00    -0.265 OA
BRANCH  17  19
ATOM     19  C   UNL d   1     -39.581  14.638  20.099  0.00  0.00     0.102 C 
BRANCH  19  20
ATOM     20  C   UNL d   1     -40.291  14.891  20.426  0.00  0.00     0.019 A 
ATOM     21  C   UNL d   1     -40.942  14.386  20.441  0.00  0.00     0.002 A 
ATOM     22  C   UNL d   1     -41.653  14.645  20.770  0.00  0.00     0.000 A 
ATOM     23  C   UNL d   1     -41.717  15.396  21.083  0.00  0.00     0.000 A 
ATOM     24  C   UNL d   1     -41.072  15.904  21.072  0.00  0.00     0.000 A 
ATOM     25  C   UNL d   1     -40.356  15.653  20.743  0.00  0.00     0.002 A 
ENDBRANCH  19  20
ENDBRANCH  17  19
ENDBRANCH   1  16
TORSDOF 3
ENDMDL
