MODEL 1
REMARK VINA RESULT:      -2.9      0.000      0.000
REMARK  1 active torsions:
REMARK  status: ('A' for Active; 'I' for Inactive)
REMARK    1  A    between atoms: C_9  and  C_2 
ROOT
ATOM      1  N   UNL d   1      31.922  18.073 -24.029  0.00  0.00    -0.204 NA
ATOM      2  C   UNL d   1      31.713  17.291 -23.860  0.00  0.00     0.107 A 
ATOM      3  C   UNL d   1      32.690  18.345 -23.852  0.00  0.00     0.304 A 
ATOM      4  C   UNL d   1      30.744  16.237 -23.867  0.00  0.00     0.020 A 
ATOM      5  O   UNL d   1      33.030  17.047 -23.337  0.00  0.00    -0.299 OA
ATOM      6  C   UNL d   1      30.960  17.025 -24.035  0.00  0.00     0.023 A 
ATOM      7  C   UNL d   1      32.263  16.775 -23.515  0.00  0.00     0.118 A 
ATOM      8  O   UNL d   1      32.901  19.122 -24.018  0.00  0.00    -0.263 OA
ATOM      9  C   UNL d   1      31.292  15.728 -23.524  0.00  0.00     0.004 A 
ATOM     10  C   UNL d   1      33.240  17.832 -23.507  0.00  0.00     0.185 A 
ATOM     11  C   UNL d   1      32.049  15.995 -23.348  0.00  0.00     0.026 A 
ENDROOT
BRANCH   4  12
ATOM     12  C   UNL d   1      29.982  15.976 -24.045  0.00  0.00     0.090 A 
ATOM     13  N   UNL d   1      29.334  16.027 -23.539  0.00  0.00    -0.219 NA
ATOM     14  C   UNL d   1      28.684  15.701 -23.936  0.00  0.00     0.215 A 
ATOM     15  S   UNL d   1      28.935  15.454 -24.681  0.00  0.00    -0.045 SA
ATOM     16  N   UNL d   1      27.914  15.637 -23.635  0.00  0.00    -0.120 N 
ATOM     17  C   UNL d   1      29.742  15.625 -24.748  0.00  0.00     0.058 A 
ENDBRANCH   4  12
TORSDOF 1
ENDMDL
MODEL 2
REMARK VINA RESULT:      -2.8      2.067      3.692
REMARK  1 active torsions:
REMARK  status: ('A' for Active; 'I' for Inactive)
REMARK    1  A    between atoms: C_9  and  C_2 
ROOT
ATOM      1  N   UNL d   1      29.475  16.828 -24.043  0.00  0.00    -0.204 NA
ATOM      2  C   UNL d   1      30.285  16.707 -23.932  0.00  0.00     0.107 A 
ATOM      3  C   UNL d   1      28.929  16.259 -23.773  0.00  0.00     0.304 A 
ATOM      4  C   UNL d   1      31.638  17.148 -24.088  0.00  0.00     0.020 A 
ATOM      5  O   UNL d   1      30.013  15.453 -23.283  0.00  0.00    -0.299 OA
ATOM      6  C   UNL d   1      30.820  17.265 -24.197  0.00  0.00     0.023 A 
ATOM      7  C   UNL d   1      30.558  16.022 -23.553  0.00  0.00     0.118 A 
ATOM      8  O   UNL d   1      28.122  16.376 -23.882  0.00  0.00    -0.263 OA
ATOM      9  C   UNL d   1      31.906  16.467 -23.711  0.00  0.00     0.004 A 
ATOM     10  C   UNL d   1      29.200  15.575 -23.394  0.00  0.00     0.185 A 
ATOM     11  C   UNL d   1      31.369  15.906 -23.444  0.00  0.00     0.026 A 
ENDROOT
BRANCH   4  12
ATOM     12  C   UNL d   1      32.172  17.716 -24.358  0.00  0.00     0.090 A 
ATOM     13  N   UNL d   1      32.346  18.423 -23.971  0.00  0.00    -0.219 NA
ATOM     14  C   UNL d   1      32.906  18.824 -24.432  0.00  0.00     0.215 A 
ATOM     15  S   UNL d   1      33.072  18.364 -25.095  0.00  0.00    -0.045 SA
ATOM     16  N   UNL d   1      33.240  19.562 -24.254  0.00  0.00    -0.120 N 
ATOM     17  C   UNL d   1      32.615  17.675 -25.048  0.00  0.00     0.058 A 
ENDBRANCH   4  12
TORSDOF 1
ENDMDL
MODEL 3
REMARK VINA RESULT:      -2.7      6.458      7.983
REMARK  1 active torsions:
REMARK  status: ('A' for Active; 'I' for Inactive)
REMARK    1  A    between atoms: C_9  and  C_2 
ROOT
ATOM      1  N   UNL d   1      32.832  21.222 -20.813  0.00  0.00    -0.204 NA
ATOM      2  C   UNL d   1      32.869  22.012 -20.571  0.00  0.00     0.107 A 
ATOM      3  C   UNL d   1      32.924  21.030 -21.618  0.00  0.00     0.304 A 
ATOM      4  C   UNL d   1      32.814  22.994 -19.532  0.00  0.00     0.020 A 
ATOM      5  O   UNL d   1      33.090  22.422 -21.931  0.00  0.00    -0.299 OA
ATOM      6  C   UNL d   1      32.778  22.200 -19.781  0.00  0.00     0.023 A 
ATOM      7  C   UNL d   1      32.998  22.614 -21.126  0.00  0.00     0.118 A 
ATOM      8  O   UNL d   1      32.888  20.245 -21.862  0.00  0.00    -0.263 OA
ATOM      9  C   UNL d   1      32.942  23.590 -20.085  0.00  0.00     0.004 A 
ATOM     10  C   UNL d   1      33.053  21.629 -22.174  0.00  0.00     0.185 A 
ATOM     11  C   UNL d   1      33.034  23.401 -20.879  0.00  0.00     0.026 A 
ENDROOT
BRANCH   4  12
ATOM     12  C   UNL d   1      32.721  23.177 -18.733  0.00  0.00     0.090 A 
ATOM     13  N   UNL d   1      33.181  22.868 -18.121  0.00  0.00    -0.219 NA
ATOM     14  C   UNL d   1      32.901  23.197 -17.413  0.00  0.00     0.215 A 
ATOM     15  S   UNL d   1      32.276  23.702 -17.593  0.00  0.00    -0.045 SA
ATOM     16  N   UNL d   1      33.201  23.042 -16.656  0.00  0.00    -0.120 N 
ATOM     17  C   UNL d   1      32.165  23.689 -18.413  0.00  0.00     0.058 A 
ENDBRANCH   4  12
TORSDOF 1
ENDMDL
MODEL 4
REMARK VINA RESULT:      -2.6      4.763      6.488
REMARK  1 active torsions:
REMARK  status: ('A' for Active; 'I' for Inactive)
REMARK    1  A    between atoms: C_9  and  C_2 
ROOT
ATOM      1  N   UNL d   1      33.025  19.749 -21.834  0.00  0.00    -0.204 NA
ATOM      2  C   UNL d   1      33.030  20.571 -21.918  0.00  0.00     0.107 A 
ATOM      3  C   UNL d   1      33.123  19.262 -22.503  0.00  0.00     0.304 A 
ATOM      4  C   UNL d   1      32.938  21.878 -21.341  0.00  0.00     0.020 A 
ATOM      5  O   UNL d   1      33.231  20.429 -23.335  0.00  0.00    -0.299 OA
ATOM      6  C   UNL d   1      32.934  21.048 -21.262  0.00  0.00     0.023 A 
ATOM      7  C   UNL d   1      33.133  20.915 -22.666  0.00  0.00     0.118 A 
ATOM      8  O   UNL d   1      33.118  18.443 -22.423  0.00  0.00    -0.263 OA
ATOM      9  C   UNL d   1      33.040  22.216 -22.085  0.00  0.00     0.004 A 
ATOM     10  C   UNL d   1      33.225  19.604 -23.250  0.00  0.00     0.185 A 
ATOM     11  C   UNL d   1      33.137  21.737 -22.745  0.00  0.00     0.026 A 
ENDROOT
BRANCH   4  12
ATOM     12  C   UNL d   1      32.840  22.353 -20.674  0.00  0.00     0.090 A 
ATOM     13  N   UNL d   1      33.241  22.253 -19.960  0.00  0.00    -0.219 NA
ATOM     14  C   UNL d   1      32.978  22.846 -19.445  0.00  0.00     0.215 A 
ATOM     15  S   UNL d   1      32.420  23.304 -19.843  0.00  0.00    -0.045 SA
ATOM     16  N   UNL d   1      33.233  22.958 -18.663  0.00  0.00    -0.120 N 
ATOM     17  C   UNL d   1      32.335  22.997 -20.606  0.00  0.00     0.058 A 
ENDBRANCH   4  12
TORSDOF 1
ENDMDL
MODEL 5
REMARK VINA RESULT:      -2.6      1.999      3.036
REMARK  1 active torsions:
REMARK  status: ('A' for Active; 'I' for Inactive)
REMARK    1  A    between atoms: C_9  and  C_2 
ROOT
ATOM      1  N   UNL d   1      32.884  19.429 -22.061  0.00  0.00    -0.204 NA
ATOM      2  C   UNL d   1      32.879  19.106 -22.822  0.00  0.00     0.107 A 
ATOM      3  C   UNL d   1      33.065  20.235 -21.952  0.00  0.00     0.304 A 
ATOM      4  C   UNL d   1      32.696  17.986 -23.693  0.00  0.00     0.020 A 
ATOM      5  O   UNL d   1      33.236  20.387 -23.371  0.00  0.00    -0.299 OA
ATOM      6  C   UNL d   1      32.702  18.316 -22.928  0.00  0.00     0.023 A 
ATOM      7  C   UNL d   1      33.055  19.581 -23.479  0.00  0.00     0.118 A 
ATOM      8  O   UNL d   1      33.070  20.559 -21.196  0.00  0.00    -0.263 OA
ATOM      9  C   UNL d   1      32.871  18.459 -24.344  0.00  0.00     0.004 A 
ATOM     10  C   UNL d   1      33.240  20.710 -22.607  0.00  0.00     0.185 A 
ATOM     11  C   UNL d   1      33.049  19.254 -24.237  0.00  0.00     0.026 A 
ENDROOT
BRANCH   4  12
ATOM     12  C   UNL d   1      32.515  17.187 -23.793  0.00  0.00     0.090 A 
ATOM     13  N   UNL d   1      31.756  16.866 -23.761  0.00  0.00    -0.219 NA
ATOM     14  C   UNL d   1      31.828  16.051 -23.889  0.00  0.00     0.215 A 
ATOM     15  S   UNL d   1      32.625  15.876 -23.998  0.00  0.00    -0.045 SA
ATOM     16  N   UNL d   1      31.202  15.506 -23.905  0.00  0.00    -0.120 N 
ATOM     17  C   UNL d   1      33.052  16.582 -23.938  0.00  0.00     0.058 A 
ENDBRANCH   4  12
TORSDOF 1
ENDMDL
MODEL 6
REMARK VINA RESULT:      -2.4      5.379      6.867
REMARK  1 active torsions:
REMARK  status: ('A' for Active; 'I' for Inactive)
REMARK    1  A    between atoms: C_9  and  C_2 
ROOT
ATOM      1  N   UNL d   1      33.122  22.258 -19.056  0.00  0.00    -0.204 NA
ATOM      2  C   UNL d   1      32.934  22.314 -19.860  0.00  0.00     0.107 A 
ATOM      3  C   UNL d   1      32.992  22.909 -18.553  0.00  0.00     0.304 A 
ATOM      4  C   UNL d   1      32.874  21.726 -21.163  0.00  0.00     0.020 A 
ATOM      5  O   UNL d   1      32.488  23.667 -19.665  0.00  0.00    -0.299 OA
ATOM      6  C   UNL d   1      33.061  21.675 -20.353  0.00  0.00     0.023 A 
ATOM      7  C   UNL d   1      32.617  23.015 -20.168  0.00  0.00     0.118 A 
ATOM      8  O   UNL d   1      33.178  22.857 -17.753  0.00  0.00    -0.263 OA
ATOM      9  C   UNL d   1      32.560  22.424 -21.466  0.00  0.00     0.004 A 
ATOM     10  C   UNL d   1      32.676  23.610 -18.859  0.00  0.00     0.185 A 
ATOM     11  C   UNL d   1      32.432  23.066 -20.971  0.00  0.00     0.026 A 
ENDROOT
BRANCH   4  12
ATOM     12  C   UNL d   1      33.005  21.077 -21.655  0.00  0.00     0.090 A 
ATOM     13  N   UNL d   1      33.028  21.104 -22.479  0.00  0.00    -0.219 NA
ATOM     14  C   UNL d   1      33.173  20.334 -22.747  0.00  0.00     0.215 A 
ATOM     15  S   UNL d   1      33.238  19.840 -22.091  0.00  0.00    -0.045 SA
ATOM     16  N   UNL d   1      33.240  20.103 -23.541  0.00  0.00    -0.120 N 
ATOM     17  C   UNL d   1      33.134  20.303 -21.413  0.00  0.00     0.058 A 
ENDBRANCH   4  12
TORSDOF 1
ENDMDL
MODEL 7
REMARK VINA RESULT:      -1.8      2.378      3.795
REMARK  1 active torsions:
REMARK  status: ('A' for Active; 'I' for Inactive)
REMARK    1  A    between atoms: C_9  and  C_2 
ROOT
ATOM      1  N   UNL d   1      28.696  15.754 -23.458  0.00  0.00    -0.204 NA
ATOM      2  C   UNL d   1      29.339  16.170 -23.770  0.00  0.00     0.107 A 
ATOM      3  C   UNL d   1      27.924  16.051 -23.552  0.00  0.00     0.304 A 
ATOM      4  C   UNL d   1      30.747  16.294 -23.991  0.00  0.00     0.020 A 
ATOM      5  O   UNL d   1      28.446  17.181 -24.270  0.00  0.00    -0.299 OA
ATOM      6  C   UNL d   1      30.096  15.878 -23.678  0.00  0.00     0.023 A 
ATOM      7  C   UNL d   1      29.219  16.883 -24.177  0.00  0.00     0.118 A 
ATOM      8  O   UNL d   1      27.282  15.639 -23.243  0.00  0.00    -0.263 OA
ATOM      9  C   UNL d   1      30.625  17.002 -24.394  0.00  0.00     0.004 A 
ATOM     10  C   UNL d   1      27.801  16.762 -23.957  0.00  0.00     0.185 A 
ATOM     11  C   UNL d   1      29.863  17.295 -24.486  0.00  0.00     0.026 A 
ENDROOT
BRANCH   4  12
ATOM     12  C   UNL d   1      31.510  15.993 -23.894  0.00  0.00     0.090 A 
ATOM     13  N   UNL d   1      31.909  15.942 -23.175  0.00  0.00    -0.219 NA
ATOM     14  C   UNL d   1      32.652  15.609 -23.329  0.00  0.00     0.215 A 
ATOM     15  S   UNL d   1      32.704  15.458 -24.137  0.00  0.00    -0.045 SA
ATOM     16  N   UNL d   1      33.241  15.455 -22.765  0.00  0.00    -0.120 N 
ATOM     17  C   UNL d   1      31.994  15.698 -24.487  0.00  0.00     0.058 A 
ENDBRANCH   4  12
TORSDOF 1
ENDMDL
MODEL 8
REMARK VINA RESULT:      -0.7      5.720      6.567
REMARK  1 active torsions:
REMARK  status: ('A' for Active; 'I' for Inactive)
REMARK    1  A    between atoms: C_9  and  C_2 
ROOT
ATOM      1  N   UNL d   1      32.977  23.052 -20.356  0.00  0.00    -0.204 NA
ATOM      2  C   UNL d   1      33.061  22.361 -20.804  0.00  0.00     0.107 A 
ATOM      3  C   UNL d   1      32.987  23.011 -19.525  0.00  0.00     0.304 A 
ATOM      4  C   UNL d   1      33.137  21.708 -22.075  0.00  0.00     0.020 A 
ATOM      5  O   UNL d   1      33.165  21.587 -19.596  0.00  0.00    -0.299 OA
ATOM      6  C   UNL d   1      33.052  22.401 -21.620  0.00  0.00     0.023 A 
ATOM      7  C   UNL d   1      33.155  21.628 -20.428  0.00  0.00     0.118 A 
ATOM      8  O   UNL d   1      32.903  23.697 -19.077  0.00  0.00    -0.263 OA
ATOM      9  C   UNL d   1      33.230  20.981 -21.699  0.00  0.00     0.004 A 
ATOM     10  C   UNL d   1      33.080  22.281 -19.148  0.00  0.00     0.185 A 
ATOM     11  C   UNL d   1      33.239  20.941 -20.879  0.00  0.00     0.026 A 
ENDROOT
BRANCH   4  12
ATOM     12  C   UNL d   1      33.126  21.756 -22.898  0.00  0.00     0.090 A 
ATOM     13  N   UNL d   1      33.220  21.116 -23.410  0.00  0.00    -0.219 NA
ATOM     14  C   UNL d   1      33.173  21.410 -24.183  0.00  0.00     0.215 A 
ATOM     15  S   UNL d   1      33.052  22.224 -24.142  0.00  0.00    -0.045 SA
ATOM     16  N   UNL d   1      33.237  20.961 -24.878  0.00  0.00    -0.120 N 
ATOM     17  C   UNL d   1      33.023  22.438 -23.344  0.00  0.00     0.058 A 
ENDBRANCH   4  12
TORSDOF 1
ENDMDL
MODEL 9
REMARK VINA RESULT:      -0.2      6.996      8.331
REMARK  1 active torsions:
REMARK  status: ('A' for Active; 'I' for Inactive)
REMARK    1  A    between atoms: C_9  and  C_2 
ROOT
ATOM      1  N   UNL d   1      32.990  22.069 -17.214  0.00  0.00    -0.204 NA
ATOM      2  C   UNL d   1      32.930  22.480 -17.929  0.00  0.00     0.107 A 
ATOM      3  C   UNL d   1      32.894  22.475 -16.493  0.00  0.00     0.304 A 
ATOM      4  C   UNL d   1      32.964  22.492 -19.360  0.00  0.00     0.020 A 
ATOM      5  O   UNL d   1      32.679  23.701 -17.211  0.00  0.00    -0.299 OA
ATOM      6  C   UNL d   1      33.023  22.082 -18.636  0.00  0.00     0.023 A 
ATOM      7  C   UNL d   1      32.775  23.295 -17.932  0.00  0.00     0.118 A 
ATOM      8  O   UNL d   1      32.953  22.069 -15.779  0.00  0.00    -0.263 OA
ATOM      9  C   UNL d   1      32.810  23.301 -19.359  0.00  0.00     0.004 A 
ATOM     10  C   UNL d   1      32.740  23.288 -16.493  0.00  0.00     0.185 A 
ATOM     11  C   UNL d   1      32.716  23.701 -18.649  0.00  0.00     0.026 A 
ENDROOT
BRANCH   4  12
ATOM     12  C   UNL d   1      33.059  22.083 -20.070  0.00  0.00     0.090 A 
ATOM     13  N   UNL d   1      33.057  22.429 -20.818  0.00  0.00    -0.219 NA
ATOM     14  C   UNL d   1      33.170  21.822 -21.371  0.00  0.00     0.215 A 
ATOM     15  S   UNL d   1      33.241  21.111 -20.961  0.00  0.00    -0.045 SA
ATOM     16  N   UNL d   1      33.205  21.916 -22.194  0.00  0.00    -0.120 N 
ATOM     17  C   UNL d   1      33.172  21.274 -20.153  0.00  0.00     0.058 A 
ENDBRANCH   4  12
TORSDOF 1
ENDMDL
