MODEL 1
REMARK VINA RESULT:      26.6      0.000      0.000
REMARK  6 active torsions:
REMARK  status: ('A' for Active; 'I' for Inactive)
REMARK    1  A    between atoms: N_3  and  C_1 
REMARK    2  A    between atoms: C_16  and  N_2 
REMARK       I    between atoms: C_7  and  N_3 
REMARK    3  A    between atoms: C_14  and  C_7 
REMARK    4  A    between atoms: C_10  and  S_11 
REMARK    5  A    between atoms: S_11  and  C_14 
REMARK    6  A    between atoms: O_18  and  C_15 
ROOT
ATOM      1  C   UNL d   1      14.399  13.156  -1.357  0.00  0.00     0.182 A 
ATOM      2  N   UNL d   1      14.102  12.397  -1.499  0.00  0.00    -0.285 N 
ATOM      3  S   UNL d   1      14.291  13.606  -2.046  0.00  0.00    -0.048 SA
ATOM      4  C   UNL d   1      13.926  13.120  -2.613  0.00  0.00     0.050 A 
ATOM      5  C   UNL d   1      13.809  12.374  -2.276  0.00  0.00     0.072 A 
ATOM      6  C   UNL d   1      13.688  13.272  -3.393  0.00  0.00     0.032 A 
ATOM      7  C   UNL d   1      13.455  11.780  -2.718  0.00  0.00     0.020 A 
ATOM      8  C   UNL d   1      13.335  12.665  -3.821  0.00  0.00     0.095 A 
ATOM      9  C   UNL d   1      13.219  11.920  -3.485  0.00  0.00     0.026 A 
ENDROOT
BRANCH   1  10
ATOM     10  N   UNL d   1      14.743  13.421  -0.653  0.00  0.00    -0.183 NA
ATOM     11  C   UNL d   1      15.059  14.166  -0.837  0.00  0.00     0.288 C 
ATOM     12  O   UNL d   1      14.979  14.471  -1.604  0.00  0.00    -0.265 OA
BRANCH  11  13
ATOM     13  C   UNL d   1      15.450  14.605  -0.265  0.00  0.00     0.101 C 
BRANCH  13  14
ATOM     14  S   UNL d   1      15.199  15.374  -0.080  0.00  0.00    -0.040 SA
BRANCH  14  15
ATOM     15  C   UNL d   1      15.648  16.031  -0.329  0.00  0.00     0.226 C 
ATOM     16  O   UNL d   1      16.466  16.023  -0.223  0.00  0.00    -0.279 OA
ATOM     17  C   UNL d   1      15.275  16.671  -0.674  0.00  0.00     0.053 C 
ENDBRANCH  14  15
ENDBRANCH  13  14
ENDBRANCH  11  13
ENDBRANCH   1  10
BRANCH   2  18
ATOM     18  C   UNL d   1      14.101  11.779  -0.962  0.00  0.00     0.082 C 
ATOM     19  C   UNL d   1      14.610  11.783  -0.313  0.00  0.00     0.021 C 
ENDBRANCH   2  18
BRANCH   8  20
ATOM     20  O   UNL d   1      13.092  12.804  -4.603  0.00  0.00    -0.328 OA
ATOM     21  C   UNL d   1      13.378  12.335  -5.210  0.00  0.00     0.181 C 
ENDBRANCH   8  20
TORSDOF 6
ENDMDL
