MODEL 1
REMARK VINA RESULT:      13.5      0.000      0.000
REMARK  3 active torsions:
REMARK  status: ('A' for Active; 'I' for Inactive)
REMARK    1  A    between atoms: C_5  and  N_1 
REMARK    2  A    between atoms: C_4  and  C_5 
REMARK       I    between atoms: N_8  and  C_4 
REMARK    3  A    between atoms: C_13  and  N_8 
ROOT
ATOM      1  C   UNL d   1      46.155 -17.427  44.114  0.00  0.00     0.297 C 
ATOM      2  N   UNL d   1      46.407 -16.771  44.531  0.00  0.00    -0.207 NA
ATOM      3  O   UNL d   1      45.414 -17.439  43.748  0.00  0.00    -0.264 OA
ENDROOT
BRANCH   1   4
ATOM      4  C   UNL d   1      46.646 -18.088  44.058  0.00  0.00     0.148 C 
BRANCH   4   5
ATOM      5  N   UNL d   1      46.382 -18.763  43.661  0.00  0.00    -0.235 N 
ATOM      6  C   UNL d   1      46.122 -19.422  44.095  0.00  0.00     0.274 A 
ATOM      7  O   UNL d   1      46.130 -19.400  44.924  0.00  0.00    -0.266 OA
ATOM      8  C   UNL d   1      45.861 -20.090  43.702  0.00  0.00     0.097 A 
ATOM      9  S   UNL d   1      45.850 -20.121  42.882  0.00  0.00    -0.076 SA
ATOM     10  C   UNL d   1      46.106 -19.471  42.448  0.00  0.00     0.097 A 
ATOM     11  C   UNL d   1      46.373 -18.789  42.830  0.00  0.00     0.274 A 
ATOM     12  O   UNL d   1      46.630 -18.135  42.398  0.00  0.00    -0.266 OA
ENDBRANCH   4   5
ENDBRANCH   1   4
BRANCH   2  13
ATOM     13  C   UNL d   1      45.916 -16.110  44.588  0.00  0.00     0.087 A 
ATOM     14  C   UNL d   1      46.185 -15.375  44.327  0.00  0.00     0.045 A 
ATOM     15  C   UNL d   1      45.705 -14.713  44.379  0.00  0.00     0.121 A 
ATOM     16  O   UNL d   1      45.820 -13.919  44.167  0.00  0.00    -0.299 OA
ATOM     17  C   UNL d   1      44.944 -14.780  44.694  0.00  0.00     0.119 A 
ATOM     18  C   UNL d   1      45.126 -13.503  44.354  0.00  0.00     0.304 A 
ATOM     19  O   UNL d   1      44.595 -14.039  44.677  0.00  0.00    -0.300 OA
ATOM     20  C   UNL d   1      44.680 -15.523  44.955  0.00  0.00     0.028 A 
ATOM     21  C   UNL d   1      45.164 -16.184  44.901  0.00  0.00     0.021 A 
ENDBRANCH   2  13
TORSDOF 3
ENDMDL
MODEL 2
REMARK VINA RESULT:      15.7      1.820      4.589
REMARK  3 active torsions:
REMARK  status: ('A' for Active; 'I' for Inactive)
REMARK    1  A    between atoms: C_5  and  N_1 
REMARK    2  A    between atoms: C_4  and  C_5 
REMARK       I    between atoms: N_8  and  C_4 
REMARK    3  A    between atoms: C_13  and  N_8 
ROOT
ATOM      1  C   UNL d   1      45.649 -15.984  44.533  0.00  0.00     0.297 C 
ATOM      2  N   UNL d   1      46.182 -16.564  44.752  0.00  0.00    -0.207 NA
ATOM      3  O   UNL d   1      45.137 -16.098  43.894  0.00  0.00    -0.264 OA
ENDROOT
BRANCH   1   4
ATOM      4  C   UNL d   1      45.621 -15.275  44.954  0.00  0.00     0.148 C 
BRANCH   4   5
ATOM      5  N   UNL d   1      45.315 -14.596  44.595  0.00  0.00    -0.235 N 
ATOM      6  C   UNL d   1      45.830 -14.053  44.233  0.00  0.00     0.274 A 
ATOM      7  O   UNL d   1      46.647 -14.195  44.233  0.00  0.00    -0.266 OA
ATOM      8  C   UNL d   1      45.527 -13.381  43.878  0.00  0.00     0.097 A 
ATOM      9  S   UNL d   1      44.719 -13.233  43.874  0.00  0.00    -0.076 SA
ATOM     10  C   UNL d   1      44.207 -13.767  44.231  0.00  0.00     0.097 A 
ATOM     11  C   UNL d   1      44.496 -14.451  44.594  0.00  0.00     0.274 A 
ATOM     12  O   UNL d   1      43.985 -14.988  44.953  0.00  0.00    -0.266 OA
ENDBRANCH   4   5
ENDBRANCH   1   4
BRANCH   2  13
ATOM     13  C   UNL d   1      46.211 -17.272  44.331  0.00  0.00     0.087 A 
ATOM     14  C   UNL d   1      46.257 -17.990  44.735  0.00  0.00     0.045 A 
ATOM     15  C   UNL d   1      46.285 -18.698  44.326  0.00  0.00     0.121 A 
ATOM     16  O   UNL d   1      46.331 -19.489  44.575  0.00  0.00    -0.299 OA
ATOM     17  C   UNL d   1      46.267 -18.697  43.500  0.00  0.00     0.119 A 
ATOM     18  C   UNL d   1      46.342 -19.969  43.898  0.00  0.00     0.304 A 
ATOM     19  O   UNL d   1      46.303 -19.475  43.244  0.00  0.00    -0.300 OA
ATOM     20  C   UNL d   1      46.221 -17.972  43.099  0.00  0.00     0.028 A 
ATOM     21  C   UNL d   1      46.193 -17.263  43.513  0.00  0.00     0.021 A 
ENDBRANCH   2  13
TORSDOF 3
ENDMDL
MODEL 3
REMARK VINA RESULT:      16.1      1.927      4.606
REMARK  3 active torsions:
REMARK  status: ('A' for Active; 'I' for Inactive)
REMARK    1  A    between atoms: C_5  and  N_1 
REMARK    2  A    between atoms: C_4  and  C_5 
REMARK       I    between atoms: N_8  and  C_4 
REMARK    3  A    between atoms: C_13  and  N_8 
ROOT
ATOM      1  C   UNL d   1      45.533 -15.771  44.541  0.00  0.00     0.297 C 
ATOM      2  N   UNL d   1      45.704 -16.457  44.954  0.00  0.00    -0.207 NA
ATOM      3  O   UNL d   1      45.557 -15.756  43.715  0.00  0.00    -0.264 OA
ENDROOT
BRANCH   1   4
ATOM      4  C   UNL d   1      45.334 -15.086  44.955  0.00  0.00     0.148 C 
BRANCH   4   5
ATOM      5  N   UNL d   1      45.282 -14.365  44.553  0.00  0.00    -0.235 N 
ATOM      6  C   UNL d   1      44.570 -14.150  44.183  0.00  0.00     0.274 A 
ATOM      7  O   UNL d   1      43.915 -14.658  44.218  0.00  0.00    -0.266 OA
ATOM      8  C   UNL d   1      44.517 -13.437  43.786  0.00  0.00     0.097 A 
ATOM      9  S   UNL d   1      45.160 -12.927  43.746  0.00  0.00    -0.076 SA
ATOM     10  C   UNL d   1      45.867 -13.136  44.110  0.00  0.00     0.097 A 
ATOM     11  C   UNL d   1      45.936 -13.853  44.516  0.00  0.00     0.274 A 
ATOM     12  O   UNL d   1      46.643 -14.066  44.882  0.00  0.00    -0.266 OA
ENDBRANCH   4   5
ENDBRANCH   1   4
BRANCH   2  13
ATOM     13  C   UNL d   1      45.903 -17.142  44.540  0.00  0.00     0.087 A 
ATOM     14  C   UNL d   1      46.093 -17.831  44.953  0.00  0.00     0.045 A 
ATOM     15  C   UNL d   1      46.291 -18.517  44.552  0.00  0.00     0.121 A 
ATOM     16  O   UNL d   1      46.503 -19.277  44.810  0.00  0.00    -0.299 OA
ATOM     17  C   UNL d   1      46.302 -18.521  43.726  0.00  0.00     0.119 A 
ATOM     18  C   UNL d   1      46.643 -19.744  44.138  0.00  0.00     0.304 A 
ATOM     19  O   UNL d   1      46.517 -19.272  43.478  0.00  0.00    -0.300 OA
ATOM     20  C   UNL d   1      46.110 -17.825  43.316  0.00  0.00     0.028 A 
ATOM     21  C   UNL d   1      45.912 -17.140  43.722  0.00  0.00     0.021 A 
ENDBRANCH   2  13
TORSDOF 3
ENDMDL
