MODEL 1
REMARK VINA RESULT:       4.8      0.000      0.000
REMARK  2 active torsions:
REMARK  status: ('A' for Active; 'I' for Inactive)
REMARK    1  A    between atoms: C_6  and  C_2 
REMARK    2  A    between atoms: C_7  and  C_3 
ROOT
ATOM      1  N   UNL d   1     -41.269-121.429 -51.374  0.00  0.00    -0.243 NA
ATOM      2  C   UNL d   1     -41.336-121.019 -52.084  0.00  0.00     0.104 A 
ATOM      3  C   UNL d   1     -41.575-122.100 -53.069  0.00  0.00     0.033 A 
ATOM      4  S   UNL d   1     -41.567-122.775 -52.599  0.00  0.00    -0.085 SA
ATOM      5  C   UNL d   1     -41.475-121.337 -52.844  0.00  0.00     0.028 A 
ATOM      6  C   UNL d   1     -41.323-122.244 -51.246  0.00  0.00     0.087 A 
ATOM      7  C   UNL d   1     -41.457-122.848 -51.796  0.00  0.00     0.047 A 
ATOM      8  C   UNL d   1     -41.223-122.414 -50.453  0.00  0.00     0.020 A 
ATOM      9  C   UNL d   1     -41.488-123.614 -51.545  0.00  0.00     0.008 A 
ATOM     10  C   UNL d   1     -41.390-123.816 -50.742  0.00  0.00     0.001 A 
ATOM     11  C   UNL d   1     -41.257-123.215 -50.196  0.00  0.00     0.002 A 
ENDROOT
BRANCH   3  12
ATOM     12  C   UNL d   1     -41.703-122.227 -53.873  0.00  0.00     0.034 A 
ATOM     13  C   UNL d   1     -42.410-121.953 -54.234  0.00  0.00     0.141 A 
ATOM     14  F   UNL d   1     -42.970-121.559 -53.781  0.00  0.00    -0.204 F 
ATOM     15  C   UNL d   1     -42.534-122.081 -55.031  0.00  0.00     0.030 A 
ATOM     16  C   UNL d   1     -41.980-122.470 -55.473  0.00  0.00     0.002 A 
ATOM     17  C   UNL d   1     -41.269-122.752 -55.138  0.00  0.00     0.000 A 
ATOM     18  C   UNL d   1     -41.140-122.625 -54.333  0.00  0.00     0.003 A 
ENDBRANCH   3  12
BRANCH   2  19
ATOM     19  C   UNL d   1     -41.255-120.200 -52.028  0.00  0.00     0.118 A 
ATOM     20  O   UNL d   1     -41.211-119.665 -52.655  0.00  0.00    -0.304 OA
ATOM     21  C   UNL d   1     -41.132-118.905 -52.332  0.00  0.00     0.123 A 
ATOM     22  C   UNL d   1     -41.127-118.966 -51.506  0.00  0.00     0.029 A 
ATOM     23  C   UNL d   1     -41.202-119.765 -51.321  0.00  0.00     0.028 A 
ENDBRANCH   2  19
TORSDOF 2
ENDMDL
