MODEL 1
REMARK VINA RESULT:      50.4      0.000      0.000
REMARK  7 active torsions:
REMARK  status: ('A' for Active; 'I' for Inactive)
REMARK    1  A    between atoms: S_9  and  C_2 
REMARK    2  A    between atoms: C_15  and  C_5 
REMARK    3  A    between atoms: C_6  and  C_7 
REMARK       I    between atoms: C_7  and  N_8 
REMARK    4  A    between atoms: N_8  and  C_15 
REMARK    5  A    between atoms: C_14  and  S_9 
REMARK    6  A    between atoms: C_10  and  C_14 
REMARK    7  A    between atoms: C_12  and  C_10 
ROOT
ATOM      1  O   UNL d   1     -48.810  28.388  34.260  0.00  0.00    -0.262 OA
ATOM      2  C   UNL d   1     -49.251  27.692  34.169  0.00  0.00     0.236 A 
ATOM      3  N   UNL d   1     -49.114  27.223  34.823  0.00  0.00    -0.114 NA
ATOM      4  N   UNL d   1     -48.594  27.622  35.317  0.00  0.00    -0.119 NA
ATOM      5  C   UNL d   1     -48.407  28.338  34.970  0.00  0.00     0.224 A 
ENDROOT
BRANCH   2   6
ATOM      6  S   UNL d   1     -49.738  27.512  33.530  0.00  0.00    -0.037 SA
BRANCH   6   7
ATOM      7  C   UNL d   1     -49.980  26.746  33.403  0.00  0.00     0.081 C 
BRANCH   7   8
ATOM      8  C   UNL d   1     -50.789  26.561  33.352  0.00  0.00     0.202 C 
ATOM      9  O   UNL d   1     -51.344  27.162  33.310  0.00  0.00    -0.286 OA
BRANCH   8  10
ATOM     10  C   UNL d   1     -51.030  25.774  33.345  0.00  0.00     0.040 A 
ATOM     11  C   UNL d   1     -51.832  25.593  33.365  0.00  0.00     0.004 A 
ATOM     12  C   UNL d   1     -52.079  24.804  33.357  0.00  0.00     0.011 A 
ATOM     13  C   UNL d   1     -51.524  24.194  33.331  0.00  0.00     0.058 A 
ATOM     14  C   UNL d   1     -50.721  24.378  33.311  0.00  0.00     0.011 A 
ATOM     15 CL   UNL d   1     -51.770  23.414  33.324  0.00  0.00    -0.082 Cl
ATOM     16  C   UNL d   1     -50.465  25.163  33.318  0.00  0.00     0.004 A 
ENDBRANCH   8  10
ENDBRANCH   7   8
ENDBRANCH   6   7
ENDBRANCH   2   6
BRANCH   5  17
ATOM     17  C   UNL d   1     -47.903  28.908  35.281  0.00  0.00     0.149 C 
BRANCH  17  18
ATOM     18  N   UNL d   1     -48.013  29.702  35.105  0.00  0.00    -0.203 NA
ATOM     19  C   UNL d   1     -47.372  30.220  35.122  0.00  0.00     0.281 C 
ATOM     20  O   UNL d   1     -46.623  29.948  35.315  0.00  0.00    -0.265 OA
BRANCH  19  21
ATOM     21  C   UNL d   1     -47.489  31.016  34.945  0.00  0.00     0.085 A 
ATOM     22  C   UNL d   1     -47.463  31.565  35.546  0.00  0.00     0.145 A 
ATOM     23  F   UNL d   1     -47.323  31.345  36.326  0.00  0.00    -0.204 F 
ATOM     24  C   UNL d   1     -47.582  32.362  35.353  0.00  0.00     0.030 A 
ATOM     25  C   UNL d   1     -47.725  32.611  34.574  0.00  0.00     0.002 A 
ATOM     26  C   UNL d   1     -47.747  32.028  33.978  0.00  0.00     0.000 A 
ATOM     27  C   UNL d   1     -47.628  31.232  34.171  0.00  0.00     0.007 A 
ENDBRANCH  19  21
ENDBRANCH  17  18
ENDBRANCH   5  17
TORSDOF 7
ENDMDL
MODEL 2
REMARK VINA RESULT:      51.2      2.650      6.358
REMARK  7 active torsions:
REMARK  status: ('A' for Active; 'I' for Inactive)
REMARK    1  A    between atoms: S_9  and  C_2 
REMARK    2  A    between atoms: C_15  and  C_5 
REMARK    3  A    between atoms: C_6  and  C_7 
REMARK       I    between atoms: C_7  and  N_8 
REMARK    4  A    between atoms: N_8  and  C_15 
REMARK    5  A    between atoms: C_14  and  S_9 
REMARK    6  A    between atoms: C_10  and  C_14 
REMARK    7  A    between atoms: C_12  and  C_10 
ROOT
ATOM      1  O   UNL d   1     -48.848  28.794  34.652  0.00  0.00    -0.262 OA
ATOM      2  C   UNL d   1     -48.130  28.799  35.066  0.00  0.00     0.236 A 
ATOM      3  N   UNL d   1     -47.757  28.086  34.928  0.00  0.00    -0.114 NA
ATOM      4  N   UNL d   1     -48.236  27.641  34.432  0.00  0.00    -0.119 NA
ATOM      5  C   UNL d   1     -48.907  28.077  34.262  0.00  0.00     0.224 A 
ENDROOT
BRANCH   2   6
ATOM      6  S   UNL d   1     -47.850  29.416  35.533  0.00  0.00    -0.037 SA
BRANCH   6   7
ATOM      7  C   UNL d   1     -47.327  29.959  35.225  0.00  0.00     0.081 C 
BRANCH   7   8
ATOM      8  C   UNL d   1     -47.293  30.732  35.528  0.00  0.00     0.202 C 
ATOM      9  O   UNL d   1     -47.118  30.853  36.318  0.00  0.00    -0.286 OA
BRANCH   8  10
ATOM     10  C   UNL d   1     -47.434  31.374  35.032  0.00  0.00     0.040 A 
ATOM     11  C   UNL d   1     -48.177  31.725  35.023  0.00  0.00     0.004 A 
ATOM     12  C   UNL d   1     -48.324  32.371  34.526  0.00  0.00     0.011 A 
ATOM     13  C   UNL d   1     -47.727  32.664  34.037  0.00  0.00     0.058 A 
ATOM     14  C   UNL d   1     -46.983  32.309  34.048  0.00  0.00     0.011 A 
ATOM     15 CL   UNL d   1     -47.875  33.302  33.547  0.00  0.00    -0.082 Cl
ATOM     16  C   UNL d   1     -46.828  31.665  34.541  0.00  0.00     0.004 A 
ENDBRANCH   8  10
ENDBRANCH   7   8
ENDBRANCH   6   7
ENDBRANCH   2   6
BRANCH   5  17
ATOM     17  C   UNL d   1     -49.531  27.836  33.784  0.00  0.00     0.149 C 
BRANCH  17  18
ATOM     18  N   UNL d   1     -49.762  27.049  33.768  0.00  0.00    -0.203 NA
ATOM     19  C   UNL d   1     -50.526  26.849  33.528  0.00  0.00     0.281 C 
ATOM     20  O   UNL d   1     -51.057  27.433  33.306  0.00  0.00    -0.265 OA
BRANCH  19  21
ATOM     21  C   UNL d   1     -50.753  26.057  33.513  0.00  0.00     0.085 A 
ATOM     22  C   UNL d   1     -51.524  25.862  33.686  0.00  0.00     0.145 A 
ATOM     23  F   UNL d   1     -52.083  26.435  33.875  0.00  0.00    -0.204 F 
ATOM     24  C   UNL d   1     -51.739  25.062  33.667  0.00  0.00     0.030 A 
ATOM     25  C   UNL d   1     -51.195  24.464  33.479  0.00  0.00     0.002 A 
ATOM     26  C   UNL d   1     -50.412  24.691  33.306  0.00  0.00     0.000 A 
ATOM     27  C   UNL d   1     -50.197  25.491  33.325  0.00  0.00     0.007 A 
ENDBRANCH  19  21
ENDBRANCH  17  18
ENDBRANCH   5  17
TORSDOF 7
ENDMDL
