MODEL 1
REMARK VINA RESULT:      12.8      0.000      0.000
REMARK  8 active torsions:
REMARK  status: ('A' for Active; 'I' for Inactive)
REMARK    1  A    between atoms: C_5  and  C_1 
REMARK    2  A    between atoms: N_6  and  C_2 
REMARK    3  A    between atoms: C_7  and  C_5 
REMARK    4  A    between atoms: C_8  and  C_5 
REMARK    5  A    between atoms: O_13  and  C_7 
REMARK    6  A    between atoms: C_12  and  C_16 
REMARK    7  A    between atoms: C_22  and  O_13 
REMARK    8  A    between atoms: C_25  and  C_22 
ROOT
ATOM      1  C   UNL d   1     -41.832-123.410 -48.599  0.00  0.00     0.296 C 
ATOM      2  O   UNL d   1     -41.134-123.791 -48.367  0.00  0.00    -0.259 OA
ATOM      3  O   UNL d   1     -42.512-123.485 -48.139  0.00  0.00    -0.296 OA
ATOM      4  C   UNL d   1     -43.192-123.560 -47.678  0.00  0.00     0.185 C 
ENDROOT
BRANCH   1   5
ATOM      5  C   UNL d   1     -41.843-122.959 -49.289  0.00  0.00     0.065 A 
ATOM      6  C   UNL d   1     -41.901-122.279 -49.871  0.00  0.00     0.018 A 
ATOM      7  C   UNL d   1     -41.731-122.870 -50.704  0.00  0.00     0.057 A 
ATOM      8  N   UNL d   1     -41.697-122.722 -51.353  0.00  0.00    -0.192 NA
ATOM      9  C   UNL d   1     -41.638-123.370 -50.843  0.00  0.00     0.057 A 
ATOM     10  C   UNL d   1     -41.816-122.768 -49.936  0.00  0.00     0.018 A 
BRANCH   8  11
ATOM     11  C   UNL d   1     -41.621-122.741 -52.175  0.00  0.00     0.145 A 
ATOM     12  C   UNL d   1     -41.795-121.993 -52.463  0.00  0.00     0.117 A 
ATOM     13  N   UNL d   1     -41.762-121.848 -53.276  0.00  0.00    -0.241 NA
ATOM     14  C   UNL d   1     -41.559-122.446 -53.794  0.00  0.00     0.099 A 
ATOM     15  C   UNL d   1     -41.382-123.206 -53.507  0.00  0.00     0.100 A 
ATOM     16  C   UNL d   1     -41.526-122.306 -54.600  0.00  0.00     0.021 A 
ATOM     17  C   UNL d   1     -41.175-123.813 -54.030  0.00  0.00     0.021 A 
ATOM     18  N   UNL d   1     -41.414-123.351 -52.695  0.00  0.00    -0.230 NA
ATOM     19  C   UNL d   1     -41.146-123.661 -54.833  0.00  0.00     0.002 A 
ATOM     20  C   UNL d   1     -41.321-122.907 -55.127  0.00  0.00     0.002 A 
BRANCH  12  21
ATOM     21  C   UNL d   1     -41.979-121.507 -51.821  0.00  0.00     0.104 C 
BRANCH  21  22
ATOM     22  C   UNL d   1     -42.745-121.349 -51.533  0.00  0.00     0.303 C 
ATOM     23  O   UNL d   1     -42.874-120.698 -51.046  0.00  0.00    -0.259 OA
BRANCH  22  24
ATOM     24  O   UNL d   1     -43.371-121.847 -51.738  0.00  0.00    -0.271 OA
BRANCH  24  25
ATOM     25  C   UNL d   1     -44.144-121.562 -51.736  0.00  0.00     0.126 C 
BRANCH  25  26
ATOM     26  C   UNL d   1     -44.584-121.563 -51.041  0.00  0.00     0.025 C 
ATOM     27  C   UNL d   1     -44.985-122.241 -50.810  0.00  0.00     0.002 C 
ATOM     28  C   UNL d   1     -44.620-120.882 -50.577  0.00  0.00     0.002 C 
ENDBRANCH  25  26
ENDBRANCH  24  25
ENDBRANCH  22  24
ENDBRANCH  21  22
BRANCH  21  29
ATOM     29  C   UNL d   1     -41.279-121.206 -51.515  0.00  0.00     0.129 C 
ATOM     30  N   UNL d   1     -41.134-120.420 -51.297  0.00  0.00    -0.146 N 
ENDBRANCH  21  29
ENDBRANCH  12  21
ENDBRANCH   8  11
ENDBRANCH   1   5
TORSDOF 8
ENDMDL
