MODEL 1
REMARK VINA RESULT:      -5.5      0.000      0.000
REMARK  4 active torsions:
REMARK  status: ('A' for Active; 'I' for Inactive)
REMARK    1  A    between atoms: C_2  and  C_1 
REMARK    2  A    between atoms: N_12  and  C_6 
REMARK    3  A    between atoms: C_16  and  N_12 
REMARK    4  A    between atoms: O_25  and  C_17 
ROOT
ATOM      1  C   UNL d   1      57.880   0.175  31.079  0.00  0.00     0.082 A 
ATOM      2  C   UNL d   1      58.421   0.511  31.603  0.00  0.00     0.302 A 
ATOM      3  C   UNL d   1      57.113   0.008  31.332  0.00  0.00     0.009 A 
ATOM      4  O   UNL d   1      58.199   0.681  32.385  0.00  0.00    -0.273 OA
ATOM      5  C   UNL d   1      56.882   0.174  32.110  0.00  0.00     0.025 A 
ATOM      6  C   UNL d   1      57.434   0.513  32.633  0.00  0.00     0.103 A 
ATOM      7  O   UNL d   1      59.197   0.682  31.354  0.00  0.00    -0.259 OA
ATOM      8  C   UNL d   1      56.114   0.005  32.357  0.00  0.00     0.026 A 
ATOM      9  C   UNL d   1      57.198   0.676  33.408  0.00  0.00     0.027 A 
ATOM     10  C   UNL d   1      55.892   0.173  33.133  0.00  0.00     0.094 A 
ATOM     11  C   UNL d   1      56.438   0.512  33.661  0.00  0.00     0.026 A 
ENDROOT
BRANCH   1  12
ATOM     12  C   UNL d   1      58.111   0.009  30.302  0.00  0.00     0.095 A 
ATOM     13  N   UNL d   1      58.173  -0.741  29.962  0.00  0.00    -0.221 NA
ATOM     14  C   UNL d   1      58.420  -0.641  29.181  0.00  0.00     0.194 A 
ATOM     15  S   UNL d   1      58.511   0.169  29.034  0.00  0.00    -0.046 SA
ATOM     16  C   UNL d   1      58.318   0.574  29.733  0.00  0.00     0.058 A 
BRANCH  14  17
ATOM     17  N   UNL d   1      58.554  -1.250  28.636  0.00  0.00    -0.221 NA
BRANCH  17  18
ATOM     18  C   UNL d   1      59.127  -1.823  28.787  0.00  0.00     0.084 A 
ATOM     19  C   UNL d   1      58.895  -2.567  29.051  0.00  0.00     0.020 A 
ATOM     20  C   UNL d   1      59.476  -3.143  29.203  0.00  0.00     0.013 A 
ATOM     21  C   UNL d   1      60.276  -2.966  29.089  0.00  0.00     0.058 A 
ATOM     22  C   UNL d   1      60.490  -2.214  28.824  0.00  0.00     0.013 A 
ATOM     23 CL   UNL d   1      60.853  -3.532  29.238  0.00  0.00    -0.082 Cl
ATOM     24  C   UNL d   1      59.921  -1.643  28.673  0.00  0.00     0.020 A 
ENDBRANCH  17  18
ENDBRANCH  14  17
ENDBRANCH   1  12
BRANCH  10  25
ATOM     25  O   UNL d   1      55.125   0.006  33.385  0.00  0.00    -0.328 OA
ATOM     26  C   UNL d   1      54.787   0.430  34.005  0.00  0.00     0.181 C 
ENDBRANCH  10  25
TORSDOF 4
ENDMDL
MODEL 2
REMARK VINA RESULT:      -3.9      2.250      5.070
REMARK  4 active torsions:
REMARK  status: ('A' for Active; 'I' for Inactive)
REMARK    1  A    between atoms: C_2  and  C_1 
REMARK    2  A    between atoms: N_12  and  C_6 
REMARK    3  A    between atoms: C_16  and  N_12 
REMARK    4  A    between atoms: O_25  and  C_17 
ROOT
ATOM      1  C   UNL d   1      59.087  -0.807  29.670  0.00  0.00     0.082 A 
ATOM      2  C   UNL d   1      59.831  -0.549  29.427  0.00  0.00     0.302 A 
ATOM      3  C   UNL d   1      58.865  -1.593  29.548  0.00  0.00     0.009 A 
ATOM      4  O   UNL d   1      60.359  -1.074  29.061  0.00  0.00    -0.273 OA
ATOM      5  C   UNL d   1      59.385  -2.124  29.183  0.00  0.00     0.025 A 
ATOM      6  C   UNL d   1      60.135  -1.856  28.941  0.00  0.00     0.103 A 
ATOM      7  O   UNL d   1      60.061   0.242  29.548  0.00  0.00    -0.259 OA
ATOM      8  C   UNL d   1      59.157  -2.907  29.064  0.00  0.00     0.026 A 
ATOM      9  C   UNL d   1      60.649  -2.390  28.577  0.00  0.00     0.027 A 
ATOM     10  C   UNL d   1      59.680  -3.429  28.700  0.00  0.00     0.094 A 
ATOM     11  C   UNL d   1      60.432  -3.169  28.455  0.00  0.00     0.026 A 
ENDROOT
BRANCH   1  12
ATOM     12  C   UNL d   1      58.567  -0.276  30.035  0.00  0.00     0.095 A 
ATOM     13  N   UNL d   1      58.461  -0.179  30.847  0.00  0.00    -0.221 NA
ATOM     14  C   UNL d   1      57.891   0.407  30.957  0.00  0.00     0.194 A 
ATOM     15  S   UNL d   1      57.642   0.675  30.213  0.00  0.00    -0.046 SA
ATOM     16  C   UNL d   1      58.064   0.248  29.638  0.00  0.00     0.058 A 
BRANCH  14  17
ATOM     17  N   UNL d   1      57.614   0.682  31.688  0.00  0.00    -0.221 NA
BRANCH  17  18
ATOM     18  C   UNL d   1      57.012   0.278  32.081  0.00  0.00     0.084 A 
ATOM     19  C   UNL d   1      57.158  -0.476  32.375  0.00  0.00     0.020 A 
ATOM     20  C   UNL d   1      56.549  -0.881  32.772  0.00  0.00     0.013 A 
ATOM     21  C   UNL d   1      55.807  -0.527  32.867  0.00  0.00     0.058 A 
ATOM     22  C   UNL d   1      55.680   0.231  32.564  0.00  0.00     0.013 A 
ATOM     23 CL   UNL d   1      55.202  -0.923  33.257  0.00  0.00    -0.082 Cl
ATOM     24  C   UNL d   1      56.278   0.634  32.173  0.00  0.00     0.020 A 
ENDBRANCH  17  18
ENDBRANCH  14  17
ENDBRANCH   1  12
BRANCH  10  25
ATOM     25  O   UNL d   1      59.458  -4.214  28.578  0.00  0.00    -0.328 OA
ATOM     26  C   UNL d   1      60.028  -4.804  28.503  0.00  0.00     0.181 C 
ENDBRANCH  10  25
TORSDOF 4
ENDMDL
MODEL 3
REMARK VINA RESULT:      -3.0      1.585      2.292
REMARK  4 active torsions:
REMARK  status: ('A' for Active; 'I' for Inactive)
REMARK    1  A    between atoms: C_2  and  C_1 
REMARK    2  A    between atoms: N_12  and  C_6 
REMARK    3  A    between atoms: C_16  and  N_12 
REMARK    4  A    between atoms: O_25  and  C_17 
ROOT
ATOM      1  C   UNL d   1      56.664   0.168  32.608  0.00  0.00     0.082 A 
ATOM      2  C   UNL d   1      57.161   0.263  33.258  0.00  0.00     0.302 A 
ATOM      3  C   UNL d   1      55.846   0.226  32.705  0.00  0.00     0.009 A 
ATOM      4  O   UNL d   1      56.845   0.416  34.010  0.00  0.00    -0.273 OA
ATOM      5  C   UNL d   1      55.522   0.378  33.451  0.00  0.00     0.025 A 
ATOM      6  C   UNL d   1      56.030   0.473  34.103  0.00  0.00     0.103 A 
ATOM      7  O   UNL d   1      57.987   0.207  33.167  0.00  0.00    -0.259 OA
ATOM      8  C   UNL d   1      54.704   0.434  33.542  0.00  0.00     0.026 A 
ATOM      9  C   UNL d   1      55.701   0.625  34.845  0.00  0.00     0.027 A 
ATOM     10  C   UNL d   1      54.389   0.586  34.288  0.00  0.00     0.094 A 
ATOM     11  C   UNL d   1      54.892   0.682  34.944  0.00  0.00     0.026 A 
ENDROOT
BRANCH   1  12
ATOM     12  C   UNL d   1      56.988   0.016  31.861  0.00  0.00     0.095 A 
ATOM     13  N   UNL d   1      57.333   0.571  31.358  0.00  0.00    -0.221 NA
ATOM     14  C   UNL d   1      57.578   0.173  30.678  0.00  0.00     0.194 A 
ATOM     15  S   UNL d   1      57.386  -0.629  30.758  0.00  0.00    -0.046 SA
ATOM     16  C   UNL d   1      57.017  -0.726  31.496  0.00  0.00     0.058 A 
BRANCH  14  17
ATOM     17  N   UNL d   1      57.954   0.518  30.025  0.00  0.00    -0.221 NA
BRANCH  17  18
ATOM     18  C   UNL d   1      58.736   0.326  29.848  0.00  0.00     0.084 A 
ATOM     19  C   UNL d   1      58.892  -0.209  29.243  0.00  0.00     0.020 A 
ATOM     20  C   UNL d   1      59.682  -0.402  29.066  0.00  0.00     0.013 A 
ATOM     21  C   UNL d   1      60.300  -0.057  29.496  0.00  0.00     0.058 A 
ATOM     22  C   UNL d   1      60.123   0.477  30.100  0.00  0.00     0.013 A 
ATOM     23 CL   UNL d   1      61.082  -0.244  29.325  0.00  0.00    -0.082 Cl
ATOM     24  C   UNL d   1      59.346   0.670  30.278  0.00  0.00     0.020 A 
ENDBRANCH  17  18
ENDBRANCH  14  17
ENDBRANCH   1  12
BRANCH  10  25
ATOM     25  O   UNL d   1      53.572   0.643  34.384  0.00  0.00    -0.328 OA
ATOM     26  C   UNL d   1      53.235   0.597  35.134  0.00  0.00     0.181 C 
ENDBRANCH  10  25
TORSDOF 4
ENDMDL
