MODEL 1
REMARK VINA RESULT:      27.4      0.000      0.000
REMARK  3 active torsions:
REMARK  status: ('A' for Active; 'I' for Inactive)
REMARK    1  A    between atoms: C_4  and  C_1 
REMARK    2  A    between atoms: N_7  and  C_4 
REMARK    3  A    between atoms: C_9  and  N_7 
ROOT
ATOM      1  C   UNL d   1      58.728  49.639  50.468  0.00  0.00     0.139 A 
ATOM      2  N   UNL d   1      58.092  49.548  50.964  0.00  0.00    -0.236 NA
ATOM      3  S   UNL d   1      58.462  49.694  49.694  0.00  0.00    -0.064 SA
ATOM      4  C   UNL d   1      57.402  49.545  50.496  0.00  0.00     0.088 A 
ATOM      5  C   UNL d   1      57.633  49.635  49.711  0.00  0.00     0.049 A 
ATOM      6  C   UNL d   1      56.602  49.471  50.686  0.00  0.00     0.020 A 
ATOM      7  C   UNL d   1      57.063  49.653  49.107  0.00  0.00     0.008 A 
ATOM      8  C   UNL d   1      56.264  49.580  49.296  0.00  0.00     0.001 A 
ATOM      9  C   UNL d   1      56.034  49.489  50.090  0.00  0.00     0.002 A 
ENDROOT
BRANCH   1  10
ATOM     10  C   UNL d   1      59.519  49.670  50.716  0.00  0.00     0.159 C 
ATOM     11  S   UNL d   1      60.132  49.662  50.160  0.00  0.00    -0.055 SA
BRANCH  10  12
ATOM     12  N   UNL d   1      59.697  49.708  51.521  0.00  0.00    -0.233 NA
BRANCH  12  13
ATOM     13  C   UNL d   1      60.481  49.622  51.776  0.00  0.00     0.082 A 
ATOM     14  C   UNL d   1      60.653  49.706  52.578  0.00  0.00     0.019 A 
ATOM     15  C   UNL d   1      61.429  49.623  52.841  0.00  0.00     0.002 A 
ATOM     16  C   UNL d   1      62.030  49.456  52.301  0.00  0.00     0.000 A 
ATOM     17  C   UNL d   1      61.852  49.373  51.494  0.00  0.00     0.002 A 
ATOM     18  C   UNL d   1      61.077  49.456  51.230  0.00  0.00     0.019 A 
ENDBRANCH  12  13
ENDBRANCH  10  12
ENDBRANCH   1  10
TORSDOF 3
ENDMDL
MODEL 2
REMARK VINA RESULT:      29.6      0.317      4.202
REMARK  3 active torsions:
REMARK  status: ('A' for Active; 'I' for Inactive)
REMARK    1  A    between atoms: C_4  and  C_1 
REMARK    2  A    between atoms: N_7  and  C_4 
REMARK    3  A    between atoms: C_9  and  N_7 
ROOT
ATOM      1  C   UNL d   1      59.558  49.567  50.810  0.00  0.00     0.139 A 
ATOM      2  N   UNL d   1      59.598  49.707  51.608  0.00  0.00    -0.236 NA
ATOM      3  S   UNL d   1      60.300  49.351  50.535  0.00  0.00    -0.064 SA
ATOM      4  C   UNL d   1      60.385  49.577  51.851  0.00  0.00     0.088 A 
ATOM      5  C   UNL d   1      60.818  49.357  51.185  0.00  0.00     0.049 A 
ATOM      6  C   UNL d   1      60.757  49.631  52.585  0.00  0.00     0.020 A 
ATOM      7  C   UNL d   1      61.628  49.189  51.250  0.00  0.00     0.008 A 
ATOM      8  C   UNL d   1      62.000  49.243  51.985  0.00  0.00     0.001 A 
ATOM      9  C   UNL d   1      61.561  49.465  52.654  0.00  0.00     0.002 A 
ENDROOT
BRANCH   1  10
ATOM     10  C   UNL d   1      58.869  49.635  50.354  0.00  0.00     0.159 C 
ATOM     11  S   UNL d   1      58.913  49.634  49.527  0.00  0.00    -0.055 SA
BRANCH  10  12
ATOM     12  N   UNL d   1      58.134  49.705  50.724  0.00  0.00    -0.233 NA
BRANCH  12  13
ATOM     13  C   UNL d   1      57.440  49.541  50.302  0.00  0.00     0.082 A 
ATOM     14  C   UNL d   1      56.732  49.453  50.714  0.00  0.00     0.019 A 
ATOM     15  C   UNL d   1      56.038  49.289  50.303  0.00  0.00     0.002 A 
ATOM     16  C   UNL d   1      56.054  49.214  49.482  0.00  0.00     0.000 A 
ATOM     17  C   UNL d   1      56.770  49.304  49.071  0.00  0.00     0.002 A 
ATOM     18  C   UNL d   1      57.465  49.467  49.480  0.00  0.00     0.019 A 
ENDBRANCH  12  13
ENDBRANCH  10  12
ENDBRANCH   1  10
TORSDOF 3
ENDMDL
