MODEL 1
REMARK VINA RESULT:      -3.6      0.000      0.000
REMARK  4 active torsions:
REMARK  status: ('A' for Active; 'I' for Inactive)
REMARK    1  A    between atoms: C_6  and  C_1 
REMARK    2  A    between atoms: C_13  and  C_2 
REMARK    3  A    between atoms: P_4  and  C_3 
REMARK    4  A    between atoms: C_17  and  C_13 
ROOT
ATOM      1  C   UNL d   1      57.397   0.321  32.499  0.00  0.00     0.112 A 
ATOM      2  C   UNL d   1      56.742   0.014  32.884  0.00  0.00     0.052 A 
ATOM      3  N   UNL d   1      57.919   0.611  33.075  0.00  0.00    -0.217 NA
ATOM      4  C   UNL d   1      57.579   0.478  33.817  0.00  0.00     0.215 A 
ATOM      5  S   UNL d   1      56.855   0.111  33.698  0.00  0.00    -0.045 SA
ATOM      6  N   UNL d   1      57.912   0.682  34.560  0.00  0.00    -0.120 N 
ENDROOT
BRANCH   1   7
ATOM      7  C   UNL d   1      57.488   0.325  31.677  0.00  0.00     0.119 A 
ATOM      8  O   UNL d   1      58.108  -0.054  31.288  0.00  0.00    -0.297 OA
ATOM      9  C   UNL d   1      58.016   0.069  30.476  0.00  0.00     0.191 A 
ATOM     10  C   UNL d   1      57.338   0.525  30.365  0.00  0.00     0.036 A 
ATOM     11  C   UNL d   1      57.014   0.682  31.105  0.00  0.00     0.029 A 
BRANCH   9  12
ATOM     12  P   UNL d   1      58.513  -0.212  29.874  0.00  0.00     0.321 P 
ATOM     13  O   UNL d   1      58.120  -0.943  29.897  0.00  0.00    -0.635 OA
ATOM     14  O   UNL d   1      58.902   0.520  29.854  0.00  0.00    -0.635 OA
ATOM     15  O   UNL d   1      59.010  -0.489  29.273  0.00  0.00    -0.635 OA
ENDBRANCH   9  12
ENDBRANCH   1   7
BRANCH   2  16
ATOM     16  C   UNL d   1      56.085  -0.333  32.521  0.00  0.00     0.008 C 
BRANCH  16  17
ATOM     17  C   UNL d   1      55.533  -0.745  32.973  0.00  0.00     0.001 C 
ATOM     18  C   UNL d   1      54.922  -0.332  33.366  0.00  0.00     0.000 C 
ATOM     19  C   UNL d   1      55.584  -1.566  33.037  0.00  0.00     0.000 C 
ENDBRANCH  16  17
ENDBRANCH   2  16
TORSDOF 4
ENDMDL
MODEL 2
REMARK VINA RESULT:      -3.2      2.554      4.221
REMARK  4 active torsions:
REMARK  status: ('A' for Active; 'I' for Inactive)
REMARK    1  A    between atoms: C_6  and  C_1 
REMARK    2  A    between atoms: C_13  and  C_2 
REMARK    3  A    between atoms: P_4  and  C_3 
REMARK    4  A    between atoms: C_17  and  C_13 
ROOT
ATOM      1  C   UNL d   1      58.275  -0.710  30.031  0.00  0.00     0.112 A 
ATOM      2  C   UNL d   1      58.969  -0.451  29.681  0.00  0.00     0.052 A 
ATOM      3  N   UNL d   1      58.136  -1.488  29.778  0.00  0.00    -0.217 NA
ATOM      4  C   UNL d   1      58.751  -1.703  29.269  0.00  0.00     0.215 A 
ATOM      5  S   UNL d   1      59.263  -1.064  29.210  0.00  0.00    -0.045 SA
ATOM      6  N   UNL d   1      58.839  -2.442  28.880  0.00  0.00    -0.120 N 
ENDROOT
BRANCH   1   7
ATOM      7  C   UNL d   1      57.818  -0.249  30.544  0.00  0.00     0.119 A 
ATOM      8  O   UNL d   1      57.733  -0.414  31.347  0.00  0.00    -0.297 OA
ATOM      9  C   UNL d   1      57.241   0.161  31.677  0.00  0.00     0.191 A 
ATOM     10  C   UNL d   1      57.023   0.682  31.077  0.00  0.00     0.036 A 
ATOM     11  C   UNL d   1      57.379   0.429  30.380  0.00  0.00     0.029 A 
BRANCH   9  12
ATOM     12  P   UNL d   1      57.004   0.213  32.471  0.00  0.00     0.321 P 
ATOM     13  O   UNL d   1      57.687   0.653  32.642  0.00  0.00    -0.635 OA
ATOM     14  O   UNL d   1      56.323  -0.226  32.295  0.00  0.00    -0.635 OA
ATOM     15  O   UNL d   1      56.764   0.263  33.262  0.00  0.00    -0.635 OA
ENDBRANCH   9  12
ENDBRANCH   1   7
BRANCH   2  16
ATOM     16  C   UNL d   1      59.314   0.294  29.782  0.00  0.00     0.008 C 
BRANCH  16  17
ATOM     17  C   UNL d   1      60.062   0.448  29.473  0.00  0.00     0.001 C 
ATOM     18  C   UNL d   1      60.739   0.368  29.955  0.00  0.00     0.000 C 
ATOM     19  C   UNL d   1      60.142   0.682  28.685  0.00  0.00     0.000 C 
ENDBRANCH  16  17
ENDBRANCH   2  16
TORSDOF 4
ENDMDL
MODEL 3
REMARK VINA RESULT:      -2.8      2.175      3.639
REMARK  4 active torsions:
REMARK  status: ('A' for Active; 'I' for Inactive)
REMARK    1  A    between atoms: C_6  and  C_1 
REMARK    2  A    between atoms: C_13  and  C_2 
REMARK    3  A    between atoms: P_4  and  C_3 
REMARK    4  A    between atoms: C_17  and  C_13 
ROOT
ATOM      1  C   UNL d   1      58.549   0.310  31.174  0.00  0.00     0.112 A 
ATOM      2  C   UNL d   1      58.750   0.129  30.401  0.00  0.00     0.052 A 
ATOM      3  N   UNL d   1      59.240   0.540  31.570  0.00  0.00    -0.217 NA
ATOM      4  C   UNL d   1      59.867   0.498  31.033  0.00  0.00     0.215 A 
ATOM      5  S   UNL d   1      59.564   0.245  30.314  0.00  0.00    -0.045 SA
ATOM      6  N   UNL d   1      60.671   0.682  31.192  0.00  0.00    -0.120 N 
ENDROOT
BRANCH   1   7
ATOM      7  C   UNL d   1      57.779   0.260  31.474  0.00  0.00     0.119 A 
ATOM      8  O   UNL d   1      57.563  -0.249  32.086  0.00  0.00    -0.297 OA
ATOM      9  C   UNL d   1      56.757  -0.146  32.233  0.00  0.00     0.191 A 
ATOM     10  C   UNL d   1      56.476   0.427  31.712  0.00  0.00     0.036 A 
ATOM     11  C   UNL d   1      57.106   0.676  31.245  0.00  0.00     0.029 A 
BRANCH   9  12
ATOM     12  P   UNL d   1      56.304  -0.544  32.804  0.00  0.00     0.321 P 
ATOM     13  O   UNL d   1      56.447   0.073  33.341  0.00  0.00    -0.635 OA
ATOM     14  O   UNL d   1      56.165  -1.157  32.263  0.00  0.00    -0.635 OA
ATOM     15  O   UNL d   1      55.852  -0.944  33.370  0.00  0.00    -0.635 OA
ENDBRANCH   9  12
ENDBRANCH   1   7
BRANCH   2  16
ATOM     16  C   UNL d   1      58.228  -0.126  29.812  0.00  0.00     0.008 C 
BRANCH  16  17
ATOM     17  C   UNL d   1      58.521  -0.431  29.104  0.00  0.00     0.001 C 
ATOM     18  C   UNL d   1      58.708  -1.243  29.044  0.00  0.00     0.000 C 
ATOM     19  C   UNL d   1      58.629   0.067  28.455  0.00  0.00     0.000 C 
ENDBRANCH  16  17
ENDBRANCH   2  16
TORSDOF 4
ENDMDL
MODEL 4
REMARK VINA RESULT:      -2.7      2.619      3.943
REMARK  4 active torsions:
REMARK  status: ('A' for Active; 'I' for Inactive)
REMARK    1  A    between atoms: C_6  and  C_1 
REMARK    2  A    between atoms: C_13  and  C_2 
REMARK    3  A    between atoms: P_4  and  C_3 
REMARK    4  A    between atoms: C_17  and  C_13 
ROOT
ATOM      1  C   UNL d   1      58.901   0.165  29.868  0.00  0.00     0.112 A 
ATOM      2  C   UNL d   1      59.041  -0.557  29.508  0.00  0.00     0.052 A 
ATOM      3  N   UNL d   1      59.515   0.681  29.654  0.00  0.00    -0.217 NA
ATOM      4  C   UNL d   1      60.033   0.268  29.159  0.00  0.00     0.215 A 
ATOM      5  S   UNL d   1      59.741  -0.493  29.071  0.00  0.00    -0.045 SA
ATOM      6  N   UNL d   1      60.734   0.571  28.810  0.00  0.00    -0.120 N 
ENDROOT
BRANCH   1   7
ATOM      7  C   UNL d   1      58.249   0.318  30.354  0.00  0.00     0.119 A 
ATOM      8  O   UNL d   1      58.251   0.188  31.168  0.00  0.00    -0.297 OA
ATOM      9  C   UNL d   1      57.511   0.402  31.465  0.00  0.00     0.191 A 
ATOM     10  C   UNL d   1      57.052   0.666  30.833  0.00  0.00     0.036 A 
ATOM     11  C   UNL d   1      57.508   0.614  30.150  0.00  0.00     0.029 A 
BRANCH   9  12
ATOM     12  P   UNL d   1      57.265   0.363  32.257  0.00  0.00     0.321 P 
ATOM     13  O   UNL d   1      56.539   0.043  32.011  0.00  0.00    -0.635 OA
ATOM     14  O   UNL d   1      57.991   0.682  32.497  0.00  0.00    -0.635 OA
ATOM     15  O   UNL d   1      57.023   0.324  33.047  0.00  0.00    -0.635 OA
ENDBRANCH   9  12
ENDBRANCH   1   7
BRANCH   2  16
ATOM     16  C   UNL d   1      58.566  -1.231  29.572  0.00  0.00     0.008 C 
BRANCH  16  17
ATOM     17  C   UNL d   1      58.801  -1.937  29.217  0.00  0.00     0.001 C 
ATOM     18  C   UNL d   1      58.428  -2.196  28.516  0.00  0.00     0.000 C 
ATOM     19  C   UNL d   1      59.403  -2.387  29.555  0.00  0.00     0.000 C 
ENDBRANCH  16  17
ENDBRANCH   2  16
TORSDOF 4
ENDMDL
MODEL 5
REMARK VINA RESULT:      -2.2      3.257      4.681
REMARK  4 active torsions:
REMARK  status: ('A' for Active; 'I' for Inactive)
REMARK    1  A    between atoms: C_6  and  C_1 
REMARK    2  A    between atoms: C_13  and  C_2 
REMARK    3  A    between atoms: P_4  and  C_3 
REMARK    4  A    between atoms: C_17  and  C_13 
ROOT
ATOM      1  C   UNL d   1      58.586  -1.899  29.294  0.00  0.00     0.112 A 
ATOM      2  C   UNL d   1      59.339  -2.188  29.148  0.00  0.00     0.052 A 
ATOM      3  N   UNL d   1      58.043  -2.497  29.108  0.00  0.00    -0.217 NA
ATOM      4  C   UNL d   1      58.469  -3.156  28.847  0.00  0.00     0.215 A 
ATOM      5  S   UNL d   1      59.266  -2.964  28.872  0.00  0.00    -0.045 SA
ATOM      6  N   UNL d   1      58.147  -3.891  28.600  0.00  0.00    -0.120 N 
ENDROOT
BRANCH   1   7
ATOM      7  C   UNL d   1      58.432  -1.137  29.577  0.00  0.00     0.119 A 
ATOM      8  O   UNL d   1      58.092  -0.987  30.313  0.00  0.00    -0.297 OA
ATOM      9  C   UNL d   1      58.024  -0.169  30.404  0.00  0.00     0.191 A 
ATOM     10  C   UNL d   1      58.323   0.186  29.723  0.00  0.00     0.036 A 
ATOM     11  C   UNL d   1      58.574  -0.411  29.215  0.00  0.00     0.029 A 
BRANCH   9  12
ATOM     12  P   UNL d   1      57.712   0.231  31.060  0.00  0.00     0.321 P 
ATOM     13  O   UNL d   1      57.003  -0.194  30.977  0.00  0.00    -0.635 OA
ATOM     14  O   UNL d   1      58.421   0.653  31.139  0.00  0.00    -0.635 OA
ATOM     15  O   UNL d   1      57.404   0.633  31.716  0.00  0.00    -0.635 OA
ENDBRANCH   9  12
ENDBRANCH   1   7
BRANCH   2  16
ATOM     16  C   UNL d   1      60.046  -1.773  29.259  0.00  0.00     0.008 C 
BRANCH  16  17
ATOM     17  C   UNL d   1      60.769  -2.167  29.200  0.00  0.00     0.001 C 
ATOM     18  C   UNL d   1      61.133  -2.262  28.455  0.00  0.00     0.000 C 
ATOM     19  C   UNL d   1      61.130  -2.466  29.878  0.00  0.00     0.000 C 
ENDBRANCH  16  17
ENDBRANCH   2  16
TORSDOF 4
ENDMDL
