MODEL 1
REMARK VINA RESULT:      -1.1      0.000      0.000
REMARK  2 active torsions:
REMARK  status: ('A' for Active; 'I' for Inactive)
REMARK    1  A    between atoms: C_6  and  N_2 
REMARK    2  A    between atoms: C_8  and  C_5 
ROOT
ATOM      1  C   UNL d   1      30.547  15.781 -23.246  0.00  0.00     0.265 A 
ATOM      2  N   UNL d   1      30.719  16.483 -23.644  0.00  0.00    -0.275 N 
ATOM      3  C   UNL d   1      31.866  15.964 -23.208  0.00  0.00     0.021 A 
ATOM      4  C   UNL d   1      31.257  15.460 -22.976  0.00  0.00     0.063 A 
ATOM      5  C   UNL d   1      31.531  16.597 -23.621  0.00  0.00     0.067 A 
ATOM      6  O   UNL d   1      29.791  15.453 -23.135  0.00  0.00    -0.267 OA
ATOM      7  C   UNL d   1      32.669  15.855 -23.053  0.00  0.00     0.002 C 
ENDROOT
BRANCH   2   8
ATOM      8  C   UNL d   1      30.160  16.981 -24.001  0.00  0.00     0.067 A 
ATOM      9  C   UNL d   1      29.897  17.654 -23.597  0.00  0.00     0.018 A 
ATOM     10  C   UNL d   1      29.346  18.153 -23.938  0.00  0.00     0.002 A 
ATOM     11  C   UNL d   1      29.047  17.986 -24.694  0.00  0.00     0.000 A 
ATOM     12  C   UNL d   1      29.314  17.308 -25.097  0.00  0.00     0.002 A 
ATOM     13  C   UNL d   1      28.491  18.485 -25.044  0.00  0.00     0.000 C 
ATOM     14  C   UNL d   1      29.867  16.811 -24.749  0.00  0.00     0.018 A 
ENDBRANCH   2   8
BRANCH   5  15
ATOM     15  C   UNL d   1      31.943  17.231 -23.951  0.00  0.00     0.016 A 
ATOM     16  C   UNL d   1      32.154  17.216 -24.752  0.00  0.00     0.002 A 
ATOM     17  C   UNL d   1      32.567  17.849 -25.082  0.00  0.00     0.011 A 
ATOM     18  C   UNL d   1      32.771  18.503 -24.612  0.00  0.00     0.058 A 
ATOM     19  C   UNL d   1      32.562  18.520 -23.814  0.00  0.00     0.011 A 
ATOM     20 CL   UNL d   1      33.187  19.141 -24.949  0.00  0.00    -0.082 Cl
ATOM     21  C   UNL d   1      32.147  17.885 -23.481  0.00  0.00     0.002 A 
ENDBRANCH   5  15
TORSDOF 2
ENDMDL
MODEL 2
REMARK VINA RESULT:      -0.9      1.284      2.875
REMARK  2 active torsions:
REMARK  status: ('A' for Active; 'I' for Inactive)
REMARK    1  A    between atoms: C_6  and  N_2 
REMARK    2  A    between atoms: C_8  and  C_5 
ROOT
ATOM      1  C   UNL d   1      31.921  16.016 -23.136  0.00  0.00     0.265 A 
ATOM      2  N   UNL d   1      31.567  16.620 -23.573  0.00  0.00    -0.275 N 
ATOM      3  C   UNL d   1      30.607  15.794 -23.157  0.00  0.00     0.021 A 
ATOM      4  C   UNL d   1      31.327  15.505 -22.878  0.00  0.00     0.063 A 
ATOM      5  C   UNL d   1      30.758  16.485 -23.587  0.00  0.00     0.067 A 
ATOM      6  O   UNL d   1      32.734  15.935 -22.981  0.00  0.00    -0.267 OA
ATOM      7  C   UNL d   1      29.867  15.453 -23.028  0.00  0.00     0.002 C 
ENDROOT
BRANCH   2   8
ATOM      8  C   UNL d   1      31.969  17.250 -23.933  0.00  0.00     0.067 A 
ATOM      9  C   UNL d   1      32.007  17.981 -23.545  0.00  0.00     0.018 A 
ATOM     10  C   UNL d   1      32.400  18.611 -23.888  0.00  0.00     0.002 A 
ATOM     11  C   UNL d   1      32.763  18.520 -24.629  0.00  0.00     0.000 A 
ATOM     12  C   UNL d   1      32.722  17.783 -25.015  0.00  0.00     0.002 A 
ATOM     13  C   UNL d   1      33.161  19.151 -24.981  0.00  0.00     0.000 C 
ATOM     14  C   UNL d   1      32.326  17.155 -24.665  0.00  0.00     0.018 A 
ENDBRANCH   2   8
BRANCH   5  15
ATOM     15  C   UNL d   1      30.192  16.953 -23.963  0.00  0.00     0.016 A 
ATOM     16  C   UNL d   1      29.946  17.664 -23.617  0.00  0.00     0.002 A 
ATOM     17  C   UNL d   1      29.380  18.132 -23.992  0.00  0.00     0.011 A 
ATOM     18  C   UNL d   1      29.056  17.890 -24.719  0.00  0.00     0.058 A 
ATOM     19  C   UNL d   1      29.300  17.182 -25.065  0.00  0.00     0.011 A 
ATOM     20 CL   UNL d   1      28.485  18.366 -25.095  0.00  0.00    -0.082 Cl
ATOM     21  C   UNL d   1      29.868  16.711 -24.689  0.00  0.00     0.002 A 
ENDBRANCH   5  15
TORSDOF 2
ENDMDL
MODEL 3
REMARK VINA RESULT:       0.6      1.733      2.567
REMARK  2 active torsions:
REMARK  status: ('A' for Active; 'I' for Inactive)
REMARK    1  A    between atoms: C_6  and  N_2 
REMARK    2  A    between atoms: C_8  and  C_5 
ROOT
ATOM      1  C   UNL d   1      29.788  18.662 -24.914  0.00  0.00     0.265 A 
ATOM      2  N   UNL d   1      30.047  17.935 -24.624  0.00  0.00    -0.275 N 
ATOM      3  C   UNL d   1      31.121  18.667 -24.919  0.00  0.00     0.021 A 
ATOM      4  C   UNL d   1      30.452  19.116 -25.096  0.00  0.00     0.063 A 
ATOM      5  C   UNL d   1      30.868  17.936 -24.627  0.00  0.00     0.067 A 
ATOM      6  O   UNL d   1      28.997  18.900 -25.007  0.00  0.00    -0.267 OA
ATOM      7  C   UNL d   1      31.904  18.908 -25.016  0.00  0.00     0.002 C 
ENDROOT
BRANCH   2   8
ATOM      8  C   UNL d   1      29.555  17.315 -24.376  0.00  0.00     0.067 A 
ATOM      9  C   UNL d   1      29.302  16.751 -24.928  0.00  0.00     0.018 A 
ATOM     10  C   UNL d   1      28.816  16.135 -24.697  0.00  0.00     0.002 A 
ATOM     11  C   UNL d   1      28.575  16.072 -23.905  0.00  0.00     0.000 A 
ATOM     12  C   UNL d   1      28.832  16.641 -23.353  0.00  0.00     0.002 A 
ATOM     13  C   UNL d   1      28.085  15.453 -23.664  0.00  0.00     0.000 C 
ATOM     14  C   UNL d   1      29.319  17.257 -23.592  0.00  0.00     0.018 A 
ENDBRANCH   2   8
BRANCH   5  15
ATOM     15  C   UNL d   1      31.357  17.319 -24.381  0.00  0.00     0.016 A 
ATOM     16  C   UNL d   1      31.565  16.718 -24.913  0.00  0.00     0.002 A 
ATOM     17  C   UNL d   1      32.054  16.101 -24.668  0.00  0.00     0.011 A 
ATOM     18  C   UNL d   1      32.339  16.081 -23.887  0.00  0.00     0.058 A 
ATOM     19  C   UNL d   1      32.133  16.678 -23.357  0.00  0.00     0.011 A 
ATOM     20 CL   UNL d   1      32.832  15.456 -23.644  0.00  0.00    -0.082 Cl
ATOM     21  C   UNL d   1      31.642  17.299 -23.601  0.00  0.00     0.002 A 
ENDBRANCH   5  15
TORSDOF 2
ENDMDL
