MODEL 1
REMARK VINA RESULT:       3.8      0.000      0.000
REMARK  8 active torsions:
REMARK  status: ('A' for Active; 'I' for Inactive)
REMARK    1  A    between atoms: C_8  and  N_1 
REMARK    2  A    between atoms: C_6  and  C_2 
REMARK    3  A    between atoms: S_7  and  C_4 
REMARK    4  A    between atoms: C_12  and  S_7 
REMARK    5  A    between atoms: C_9  and  C_12 
REMARK    6  A    between atoms: O_14  and  C_9 
REMARK    7  A    between atoms: O_16  and  C_13 
REMARK    8  A    between atoms: C_21  and  O_14 
ROOT
ATOM      1  N   UNL d   1     -41.583-122.518 -51.799  0.00  0.00    -0.269 N 
ATOM      2  C   UNL d   1     -41.563-123.235 -51.398  0.00  0.00     0.171 A 
ATOM      3  N   UNL d   1     -41.380-123.817 -51.966  0.00  0.00    -0.128 NA
ATOM      4  C   UNL d   1     -41.416-122.660 -52.596  0.00  0.00     0.201 A 
ATOM      5  N   UNL d   1     -41.290-123.485 -52.688  0.00  0.00    -0.121 NA
ENDROOT
BRANCH   2   6
ATOM      6  C   UNL d   1     -41.703-123.285 -50.610  0.00  0.00     0.038 A 
ATOM      7  C   UNL d   1     -42.446-123.510 -50.332  0.00  0.00     0.027 A 
ATOM      8  C   UNL d   1     -42.614-123.568 -49.553  0.00  0.00     0.094 A 
ATOM      9  C   UNL d   1     -42.011-123.394 -48.986  0.00  0.00     0.024 A 
ATOM     10  C   UNL d   1     -41.268-123.169 -49.264  0.00  0.00     0.002 A 
ATOM     11  C   UNL d   1     -41.124-123.117 -50.074  0.00  0.00     0.003 A 
BRANCH   8  12
ATOM     12  O   UNL d   1     -43.386-123.802 -49.300  0.00  0.00    -0.328 OA
ATOM     13  C   UNL d   1     -43.588-123.728 -48.503  0.00  0.00     0.181 C 
ENDBRANCH   8  12
ENDBRANCH   2   6
BRANCH   1  14
ATOM     14  C   UNL d   1     -41.756-121.845 -51.347  0.00  0.00     0.067 A 
ATOM     15  C   UNL d   1     -42.539-121.607 -51.275  0.00  0.00     0.018 A 
ATOM     16  C   UNL d   1     -42.707-120.932 -50.821  0.00  0.00     0.002 A 
ATOM     17  C   UNL d   1     -42.112-120.501 -50.446  0.00  0.00     0.000 A 
ATOM     18  C   UNL d   1     -41.323-120.747 -50.522  0.00  0.00     0.002 A 
ATOM     19  C   UNL d   1     -41.155-121.422 -50.976  0.00  0.00     0.018 A 
ENDBRANCH   1  14
BRANCH   4  20
ATOM     20  S   UNL d   1     -41.381-122.066 -53.208  0.00  0.00    -0.042 SA
BRANCH  20  21
ATOM     21  C   UNL d   1     -41.358-122.256 -54.014  0.00  0.00     0.107 C 
BRANCH  21  22
ATOM     22  C   UNL d   1     -41.777-121.818 -54.566  0.00  0.00     0.307 C 
ATOM     23  O   UNL d   1     -41.707-120.986 -54.615  0.00  0.00    -0.258 OA
BRANCH  22  24
ATOM     24  O   UNL d   1     -42.283-122.215 -55.090  0.00  0.00    -0.271 OA
BRANCH  24  25
ATOM     25  C   UNL d   1     -42.512-121.871 -55.813  0.00  0.00     0.126 C 
ATOM     26  C   UNL d   1     -43.009-122.273 -56.342  0.00  0.00     0.029 C 
ENDBRANCH  24  25
ENDBRANCH  22  24
ENDBRANCH  21  22
ENDBRANCH  20  21
ENDBRANCH   4  20
TORSDOF 8
ENDMDL
MODEL 2
REMARK VINA RESULT:       6.6      1.192      4.513
REMARK  8 active torsions:
REMARK  status: ('A' for Active; 'I' for Inactive)
REMARK    1  A    between atoms: C_8  and  N_1 
REMARK    2  A    between atoms: C_6  and  C_2 
REMARK    3  A    between atoms: S_7  and  C_4 
REMARK    4  A    between atoms: C_12  and  S_7 
REMARK    5  A    between atoms: C_9  and  C_12 
REMARK    6  A    between atoms: O_14  and  C_9 
REMARK    7  A    between atoms: O_16  and  C_13 
REMARK    8  A    between atoms: C_21  and  O_14 
ROOT
ATOM      1  N   UNL d   1     -41.586-122.524 -51.640  0.00  0.00    -0.269 N 
ATOM      2  C   UNL d   1     -41.536-122.936 -52.348  0.00  0.00     0.171 A 
ATOM      3  N   UNL d   1     -41.388-123.732 -52.147  0.00  0.00    -0.128 NA
ATOM      4  C   UNL d   1     -41.470-123.057 -51.019  0.00  0.00     0.201 A 
ATOM      5  N   UNL d   1     -41.347-123.817 -51.353  0.00  0.00    -0.121 NA
ENDROOT
BRANCH   2   6
ATOM      6  C   UNL d   1     -41.625-122.574 -53.058  0.00  0.00     0.038 A 
ATOM      7  C   UNL d   1     -42.234-122.797 -53.567  0.00  0.00     0.027 A 
ATOM      8  C   UNL d   1     -42.346-122.454 -54.280  0.00  0.00     0.094 A 
ATOM      9  C   UNL d   1     -41.823-121.838 -54.529  0.00  0.00     0.024 A 
ATOM     10  C   UNL d   1     -41.213-121.615 -54.020  0.00  0.00     0.002 A 
ATOM     11  C   UNL d   1     -41.123-121.987 -53.290  0.00  0.00     0.003 A 
BRANCH   8  12
ATOM     12  O   UNL d   1     -42.981-122.706 -54.778  0.00  0.00    -0.328 OA
ATOM     13  C   UNL d   1     -42.971-122.499 -55.578  0.00  0.00     0.181 C 
ENDBRANCH   8  12
ENDBRANCH   2   6
BRANCH   1  14
ATOM     14  C   UNL d   1     -41.732-121.710 -51.694  0.00  0.00     0.067 A 
ATOM     15  C   UNL d   1     -41.123-121.213 -51.932  0.00  0.00     0.018 A 
ATOM     16  C   UNL d   1     -41.275-120.398 -51.985  0.00  0.00     0.002 A 
ATOM     17  C   UNL d   1     -42.015-120.081 -51.807  0.00  0.00     0.000 A 
ATOM     18  C   UNL d   1     -42.627-120.588 -51.567  0.00  0.00     0.002 A 
ATOM     19  C   UNL d   1     -42.475-121.403 -51.514  0.00  0.00     0.018 A 
ENDBRANCH   1  14
BRANCH   4  20
ATOM     20  S   UNL d   1     -41.477-122.858 -50.188  0.00  0.00    -0.042 SA
BRANCH  20  21
ATOM     21  C   UNL d   1     -41.723-123.392 -49.604  0.00  0.00     0.107 C 
BRANCH  21  22
ATOM     22  C   UNL d   1     -41.704-123.191 -48.809  0.00  0.00     0.307 C 
ATOM     23  O   UNL d   1     -41.242-122.554 -48.526  0.00  0.00    -0.258 OA
BRANCH  22  24
ATOM     24  O   UNL d   1     -42.157-123.633 -48.274  0.00  0.00    -0.271 OA
BRANCH  24  25
ATOM     25  C   UNL d   1     -42.062-123.546 -47.451  0.00  0.00     0.126 C 
ATOM     26  C   UNL d   1     -42.714-123.425 -46.954  0.00  0.00     0.029 C 
ENDBRANCH  24  25
ENDBRANCH  22  24
ENDBRANCH  21  22
ENDBRANCH  20  21
ENDBRANCH   4  20
TORSDOF 8
ENDMDL
