MODEL 1
REMARK VINA RESULT:      -4.9      0.000      0.000
REMARK  3 active torsions:
REMARK  status: ('A' for Active; 'I' for Inactive)
REMARK    1  A    between atoms: C_13  and  C_3 
REMARK    2  A    between atoms: C_4  and  S_11 
REMARK    3  A    between atoms: S_11  and  C_13 
ROOT
ATOM      1  C   UNL d   1      57.296   0.197  31.085  0.00  0.00     0.141 A 
ATOM      2  N   UNL d   1      57.061  -0.560  31.217  0.00  0.00    -0.232 NA
ATOM      3  S   UNL d   1      57.025   0.674  31.695  0.00  0.00    -0.060 SA
ATOM      4  C   UNL d   1      56.634  -0.572  31.920  0.00  0.00     0.088 A 
ATOM      5  C   UNL d   1      56.612   0.191  32.215  0.00  0.00     0.049 A 
ATOM      6  C   UNL d   1      56.265  -1.190  32.322  0.00  0.00     0.020 A 
ATOM      7  C   UNL d   1      56.220   0.355  32.920  0.00  0.00     0.008 A 
ATOM      8  C   UNL d   1      55.849  -0.261  33.326  0.00  0.00     0.001 A 
ATOM      9  C   UNL d   1      55.871  -1.025  33.031  0.00  0.00     0.002 A 
ENDROOT
BRANCH   1  10
ATOM     10  S   UNL d   1      57.748   0.465  30.427  0.00  0.00    -0.058 SA
BRANCH  10  11
ATOM     11  C   UNL d   1      58.556   0.342  30.421  0.00  0.00     0.077 C 
BRANCH  11  12
ATOM     12  C   UNL d   1      58.984   0.469  29.712  0.00  0.00     0.178 A 
ATOM     13  N   UNL d   1      59.799   0.485  29.733  0.00  0.00    -0.262 N 
ATOM     14  C   UNL d   1      60.061   0.621  28.947  0.00  0.00     0.227 A 
ATOM     15  C   UNL d   1      60.285   0.386  30.399  0.00  0.00     0.103 C 
ATOM     16  N   UNL d   1      59.408   0.682  28.482  0.00  0.00    -0.117 NA
ATOM     17  S   UNL d   1      60.867   0.682  28.691  0.00  0.00    -0.036 SA
ATOM     18  N   UNL d   1      58.736   0.593  28.922  0.00  0.00    -0.127 NA
ENDBRANCH  11  12
ENDBRANCH  10  11
ENDBRANCH   1  10
TORSDOF 3
ENDMDL
MODEL 2
REMARK VINA RESULT:      -3.9      1.117      1.422
REMARK  3 active torsions:
REMARK  status: ('A' for Active; 'I' for Inactive)
REMARK    1  A    between atoms: C_13  and  C_3 
REMARK    2  A    between atoms: C_4  and  S_11 
REMARK    3  A    between atoms: S_11  and  C_13 
ROOT
ATOM      1  C   UNL d   1      57.146   0.087  31.804  0.00  0.00     0.141 A 
ATOM      2  N   UNL d   1      56.698   0.677  32.115  0.00  0.00    -0.232 NA
ATOM      3  S   UNL d   1      56.863  -0.636  32.068  0.00  0.00    -0.060 SA
ATOM      4  C   UNL d   1      56.118   0.331  32.585  0.00  0.00     0.088 A 
ATOM      5  C   UNL d   1      56.220  -0.481  32.556  0.00  0.00     0.049 A 
ATOM      6  C   UNL d   1      55.512   0.663  33.034  0.00  0.00     0.020 A 
ATOM      7  C   UNL d   1      55.719  -0.981  32.975  0.00  0.00     0.008 A 
ATOM      8  C   UNL d   1      55.109  -0.652  33.427  0.00  0.00     0.001 A 
ATOM      9  C   UNL d   1      55.007   0.160  33.456  0.00  0.00     0.002 A 
ENDROOT
BRANCH   1  10
ATOM     10  S   UNL d   1      57.804   0.188  31.288  0.00  0.00    -0.058 SA
BRANCH  10  11
ATOM     11  C   UNL d   1      57.906  -0.330  30.665  0.00  0.00     0.077 C 
BRANCH  11  12
ATOM     12  C   UNL d   1      58.488  -0.164  30.086  0.00  0.00     0.178 A 
ATOM     13  N   UNL d   1      58.753  -0.763  29.598  0.00  0.00    -0.262 N 
ATOM     14  C   UNL d   1      59.325  -0.426  29.085  0.00  0.00     0.227 A 
ATOM     15  C   UNL d   1      58.508  -1.556  29.602  0.00  0.00     0.103 C 
ATOM     16  N   UNL d   1      59.390   0.353  29.274  0.00  0.00    -0.117 NA
ATOM     17  S   UNL d   1      59.757  -0.833  28.480  0.00  0.00    -0.036 SA
ATOM     18  N   UNL d   1      58.891   0.541  29.881  0.00  0.00    -0.127 NA
ENDBRANCH  11  12
ENDBRANCH  10  11
ENDBRANCH   1  10
TORSDOF 3
ENDMDL
MODEL 3
REMARK VINA RESULT:      -3.8      1.446      4.448
REMARK  3 active torsions:
REMARK  status: ('A' for Active; 'I' for Inactive)
REMARK    1  A    between atoms: C_13  and  C_3 
REMARK    2  A    between atoms: C_4  and  S_11 
REMARK    3  A    between atoms: S_11  and  C_13 
ROOT
ATOM      1  C   UNL d   1      57.974  -0.081  30.430  0.00  0.00     0.141 A 
ATOM      2  N   UNL d   1      57.941  -0.766  30.011  0.00  0.00    -0.232 NA
ATOM      3  S   UNL d   1      58.657   0.326  30.229  0.00  0.00    -0.060 SA
ATOM      4  C   UNL d   1      58.611  -0.802  29.535  0.00  0.00     0.088 A 
ATOM      5  C   UNL d   1      59.053  -0.126  29.670  0.00  0.00     0.049 A 
ATOM      6  C   UNL d   1      58.866  -1.371  28.996  0.00  0.00     0.020 A 
ATOM      7  C   UNL d   1      59.761  -0.003  29.269  0.00  0.00     0.008 A 
ATOM      8  C   UNL d   1      60.021  -0.571  28.727  0.00  0.00     0.001 A 
ATOM      9  C   UNL d   1      59.578  -1.247  28.593  0.00  0.00     0.002 A 
ENDROOT
BRANCH   1  10
ATOM     10  S   UNL d   1      57.401   0.183  30.988  0.00  0.00    -0.058 SA
BRANCH  10  11
ATOM     11  C   UNL d   1      57.078  -0.354  31.512  0.00  0.00     0.077 C 
BRANCH  11  12
ATOM     12  C   UNL d   1      56.533  -0.085  32.089  0.00  0.00     0.178 A 
ATOM     13  N   UNL d   1      56.164  -0.626  32.576  0.00  0.00    -0.262 N 
ATOM     14  C   UNL d   1      55.660  -0.192  33.087  0.00  0.00     0.227 A 
ATOM     15  C   UNL d   1      56.263  -1.451  32.575  0.00  0.00     0.103 C 
ATOM     16  N   UNL d   1      55.736   0.586  32.897  0.00  0.00    -0.117 NA
ATOM     17  S   UNL d   1      55.160  -0.513  33.692  0.00  0.00    -0.036 SA
ATOM     18  N   UNL d   1      56.263   0.681  32.292  0.00  0.00    -0.127 NA
ENDBRANCH  11  12
ENDBRANCH  10  11
ENDBRANCH   1  10
TORSDOF 3
ENDMDL
MODEL 4
REMARK VINA RESULT:      -2.2      9.881     10.316
REMARK  3 active torsions:
REMARK  status: ('A' for Active; 'I' for Inactive)
REMARK    1  A    between atoms: C_13  and  C_3 
REMARK    2  A    between atoms: C_4  and  S_11 
REMARK    3  A    between atoms: S_11  and  C_13 
ROOT
ATOM      1  C   UNL d   1      59.157  -9.353  34.384  0.00  0.00     0.141 A 
ATOM      2  N   UNL d   1      59.772  -9.756  34.707  0.00  0.00    -0.232 NA
ATOM      3  S   UNL d   1      59.101  -8.615  34.738  0.00  0.00    -0.060 SA
ATOM      4  C   UNL d   1      60.118  -9.273  35.276  0.00  0.00     0.088 A 
ATOM      5  C   UNL d   1      59.703  -8.568  35.295  0.00  0.00     0.049 A 
ATOM      6  C   UNL d   1      60.761  -9.397  35.776  0.00  0.00     0.020 A 
ATOM      7  C   UNL d   1      59.921  -7.969  35.815  0.00  0.00     0.008 A 
ATOM      8  C   UNL d   1      60.565  -8.088  36.319  0.00  0.00     0.001 A 
ATOM      9  C   UNL d   1      60.980  -8.794  36.300  0.00  0.00     0.002 A 
ENDROOT
BRANCH   1  10
ATOM     10  S   UNL d   1      58.646  -9.637  33.778  0.00  0.00    -0.058 SA
BRANCH  10  11
ATOM     11  C   UNL d   1      58.939  -9.731  33.021  0.00  0.00     0.077 C 
BRANCH  11  12
ATOM     12  C   UNL d   1      58.404  -9.760  32.376  0.00  0.00     0.178 A 
ATOM     13  N   UNL d   1      58.694  -9.764  31.613  0.00  0.00    -0.262 N 
ATOM     14  C   UNL d   1      58.032  -9.796  31.099  0.00  0.00     0.227 A 
ATOM     15  C   UNL d   1      59.491  -9.742  31.381  0.00  0.00     0.103 C 
ATOM     16  N   UNL d   1      57.372  -9.809  31.557  0.00  0.00    -0.117 NA
ATOM     17  S   UNL d   1      58.055  -9.811  30.252  0.00  0.00    -0.036 SA
ATOM     18  N   UNL d   1      57.568  -9.789  32.341  0.00  0.00    -0.127 NA
ENDBRANCH  11  12
ENDBRANCH  10  11
ENDBRANCH   1  10
TORSDOF 3
ENDMDL
