MODEL 1
REMARK VINA RESULT:      85.0      0.000      0.000
REMARK  5 active torsions:
REMARK  status: ('A' for Active; 'I' for Inactive)
REMARK    1  A    between atoms: C_2  and  S_1 
REMARK    2  A    between atoms: N_4  and  S_1 
REMARK    3  A    between atoms: C_3  and  N_5 
REMARK    4  A    between atoms: O_26  and  C_14 
REMARK    5  A    between atoms: O_27  and  C_24 
ROOT
ATOM      1  N   UNL d   1     -55.401-101.451 -42.486  0.00  0.00    -0.226 N 
ATOM      2  N   UNL d   1     -55.417-101.972 -40.928  0.00  0.00    -0.319 N 
ATOM      3  C   UNL d   1     -54.715-101.415 -42.035  0.00  0.00     0.110 A 
ATOM      4  C   UNL d   1     -56.095-101.747 -42.163  0.00  0.00     0.110 A 
ATOM      5  C   UNL d   1     -56.111-102.009 -41.385  0.00  0.00     0.096 A 
ATOM      6  C   UNL d   1     -54.723-101.677 -41.248  0.00  0.00     0.096 A 
ENDROOT
BRANCH   1   7
ATOM      7  S   UNL d   1     -55.392-101.190 -43.269  0.00  0.00     0.273 S 
ATOM      8  O   UNL d   1     -55.514-101.968 -43.516  0.00  0.00    -0.200 OA
ATOM      9  O   UNL d   1     -55.271-100.410 -43.029  0.00  0.00    -0.200 OA
BRANCH   7  10
ATOM     10  C   UNL d   1     -55.388-100.952 -44.059  0.00  0.00     0.128 A 
ATOM     11  C   UNL d   1     -55.380-100.154 -44.236  0.00  0.00     0.039 A 
ATOM     12  C   UNL d   1     -55.375 -99.905 -45.023  0.00  0.00     0.095 A 
ATOM     13  C   UNL d   1     -55.378-100.465 -45.631  0.00  0.00     0.026 A 
ATOM     14  C   UNL d   1     -55.386-101.273 -45.448  0.00  0.00     0.027 A 
ATOM     15  C   UNL d   1     -55.391-101.515 -44.659  0.00  0.00     0.106 A 
BRANCH  12  16
ATOM     16  O   UNL d   1     -55.368 -99.104 -45.208  0.00  0.00    -0.328 OA
ATOM     17  C   UNL d   1     -54.785 -98.807 -45.714  0.00  0.00     0.181 C 
ENDBRANCH  12  16
BRANCH  15  18
ATOM     18  O   UNL d   1     -55.398-102.317 -44.470  0.00  0.00    -0.327 OA
ATOM     19  C   UNL d   1     -54.892-102.833 -44.870  0.00  0.00     0.181 C 
ENDBRANCH  15  18
ENDBRANCH   7  10
ENDBRANCH   1   7
BRANCH   2  20
ATOM     20  C   UNL d   1     -55.437-102.236 -40.147  0.00  0.00     0.107 A 
ATOM     21  C   UNL d   1     -56.114-102.059 -39.846  0.00  0.00    -0.002 A 
ATOM     22  C   UNL d   1     -56.137-102.313 -39.088  0.00  0.00    -0.006 A 
ATOM     23  C   UNL d   1     -55.484-102.651 -38.901  0.00  0.00    -0.022 A 
ATOM     24  C   UNL d   1     -56.756-102.303 -38.377  0.00  0.00    -0.001 A 
ATOM     25  C   UNL d   1     -54.785-102.858 -39.142  0.00  0.00     0.046 A 
ATOM     26  C   UNL d   1     -54.754-102.598 -39.925  0.00  0.00     0.038 A 
ATOM     27  C   UNL d   1     -55.315-102.879 -38.449  0.00  0.00    -0.022 A 
ATOM     28  C   UNL d   1     -55.998-102.520 -38.663  0.00  0.00    -0.006 A 
ATOM     29  C   UNL d   1     -55.978-102.247 -39.468  0.00  0.00    -0.002 A 
ENDBRANCH   2  20
TORSDOF 5
ENDMDL
