MODEL 1
REMARK VINA RESULT:      -7.8      0.000      0.000
REMARK  4 active torsions:
REMARK  status: ('A' for Active; 'I' for Inactive)
REMARK    1  A    between atoms: C_6  and  C_1 
REMARK    2  A    between atoms: C_3  and  C_5 
REMARK    3  A    between atoms: C_5  and  C_6 
REMARK    4  A    between atoms: C_17  and  C_13 
ROOT
ATOM      1  C   UNL d   1     -48.058  13.902  22.654  0.00  0.00     0.202 C 
ATOM      2  O   UNL d   1     -47.929  13.557  21.902  0.00  0.00    -0.286 OA
ENDROOT
BRANCH   1   3
ATOM      3  C   UNL d   1     -48.768  14.339  22.775  0.00  0.00     0.078 A 
ATOM      4  C   UNL d   1     -48.779  15.161  22.551  0.00  0.00     0.202 A 
ATOM      5  C   UNL d   1     -49.475  15.588  22.670  0.00  0.00     0.084 A 
ATOM      6  O   UNL d   1     -48.107  15.511  22.225  0.00  0.00    -0.286 OA
ATOM      7  C   UNL d   1     -50.138  15.238  22.993  0.00  0.00     0.199 A 
ATOM      8  C   UNL d   1     -50.127  14.429  23.213  0.00  0.00     0.039 A 
ATOM      9  O   UNL d   1     -50.843  15.665  23.115  0.00  0.00    -0.286 OA
ATOM     10  C   UNL d   1     -49.430  13.979  23.100  0.00  0.00     0.010 A 
BRANCH   8  11
ATOM     11  C   UNL d   1     -50.794  14.070  23.540  0.00  0.00     0.003 C 
ATOM     12  C   UNL d   1     -51.020  13.291  23.308  0.00  0.00     0.000 C 
ENDBRANCH   8  11
ENDBRANCH   1   3
BRANCH   1  13
ATOM     13  C   UNL d   1     -47.506  13.817  23.261  0.00  0.00     0.081 C 
BRANCH  13  14
ATOM     14  C   UNL d   1     -47.049  13.118  23.307  0.00  0.00     0.166 A 
ATOM     15  N   UNL d   1     -47.318  12.388  23.560  0.00  0.00    -0.225 NA
ATOM     16  C   UNL d   1     -46.684  11.855  23.516  0.00  0.00     0.101 A 
ATOM     17  C   UNL d   1     -46.632  11.054  23.698  0.00  0.00     0.021 A 
ATOM     18  C   UNL d   1     -46.031  12.263  23.236  0.00  0.00     0.101 A 
ATOM     19  C   UNL d   1     -45.925  10.641  23.605  0.00  0.00     0.002 A 
ATOM     20  C   UNL d   1     -45.262  11.057  23.321  0.00  0.00     0.002 A 
ATOM     21  C   UNL d   1     -45.314  11.863  23.138  0.00  0.00     0.021 A 
ATOM     22  N   UNL d   1     -46.241  13.044  23.103  0.00  0.00    -0.225 NA
ENDBRANCH  13  14
ENDBRANCH   1  13
TORSDOF 4
ENDMDL
MODEL 2
REMARK VINA RESULT:      -7.4      1.448      4.506
REMARK  4 active torsions:
REMARK  status: ('A' for Active; 'I' for Inactive)
REMARK    1  A    between atoms: C_6  and  C_1 
REMARK    2  A    between atoms: C_3  and  C_5 
REMARK    3  A    between atoms: C_5  and  C_6 
REMARK    4  A    between atoms: C_17  and  C_13 
ROOT
ATOM      1  C   UNL d   1     -47.200  13.852  22.906  0.00  0.00     0.202 C 
ATOM      2  O   UNL d   1     -47.040  14.567  23.310  0.00  0.00    -0.286 OA
ENDROOT
BRANCH   1   3
ATOM      3  C   UNL d   1     -46.613  13.248  22.917  0.00  0.00     0.078 A 
ATOM      4  C   UNL d   1     -45.876  13.394  22.514  0.00  0.00     0.202 A 
ATOM      5  C   UNL d   1     -45.302  12.801  22.526  0.00  0.00     0.084 A 
ATOM      6  O   UNL d   1     -45.751  14.110  22.126  0.00  0.00    -0.286 OA
ATOM      7  C   UNL d   1     -45.431  12.093  22.911  0.00  0.00     0.199 A 
ATOM      8  C   UNL d   1     -46.156  11.950  23.307  0.00  0.00     0.039 A 
ATOM      9  O   UNL d   1     -44.854  11.492  22.925  0.00  0.00    -0.286 OA
ATOM     10  C   UNL d   1     -46.751  12.538  23.306  0.00  0.00     0.010 A 
BRANCH   8  11
ATOM     11  C   UNL d   1     -46.291  11.235  23.697  0.00  0.00     0.003 C 
ATOM     12  C   UNL d   1     -47.029  10.835  23.618  0.00  0.00     0.000 C 
ENDBRANCH   8  11
ENDBRANCH   1   3
BRANCH   1  13
ATOM     13  C   UNL d   1     -47.914  13.740  22.506  0.00  0.00     0.081 C 
BRANCH  13  14
ATOM     14  C   UNL d   1     -48.602  14.131  22.776  0.00  0.00     0.166 A 
ATOM     15  N   UNL d   1     -48.679  14.937  22.893  0.00  0.00    -0.225 NA
ATOM     16  C   UNL d   1     -49.450  15.081  23.162  0.00  0.00     0.101 A 
ATOM     17  C   UNL d   1     -49.833  15.780  23.367  0.00  0.00     0.021 A 
ATOM     18  C   UNL d   1     -49.840  14.363  23.210  0.00  0.00     0.101 A 
ATOM     19  C   UNL d   1     -50.616  15.777  23.624  0.00  0.00     0.002 A 
ATOM     20  C   UNL d   1     -51.011  15.045  23.671  0.00  0.00     0.002 A 
ATOM     21  C   UNL d   1     -50.625  14.342  23.465  0.00  0.00     0.021 A 
ATOM     22  N   UNL d   1     -49.329  13.766  22.974  0.00  0.00    -0.225 NA
ENDBRANCH  13  14
ENDBRANCH   1  13
TORSDOF 4
ENDMDL
MODEL 3
REMARK VINA RESULT:      -7.3      1.113      1.682
REMARK  4 active torsions:
REMARK  status: ('A' for Active; 'I' for Inactive)
REMARK    1  A    between atoms: C_6  and  C_1 
REMARK    2  A    between atoms: C_3  and  C_5 
REMARK    3  A    between atoms: C_5  and  C_6 
REMARK    4  A    between atoms: C_17  and  C_13 
ROOT
ATOM      1  C   UNL d   1     -47.038  12.954  22.748  0.00  0.00     0.202 C 
ATOM      2  O   UNL d   1     -46.525  12.965  22.087  0.00  0.00    -0.286 OA
ENDROOT
BRANCH   1   3
ATOM      3  C   UNL d   1     -47.795  13.317  22.671  0.00  0.00     0.078 A 
ATOM      4  C   UNL d   1     -47.844  14.166  22.728  0.00  0.00     0.202 A 
ATOM      5  C   UNL d   1     -48.585  14.519  22.653  0.00  0.00     0.084 A 
ATOM      6  O   UNL d   1     -47.162  14.612  22.856  0.00  0.00    -0.286 OA
ATOM      7  C   UNL d   1     -49.257  14.073  22.526  0.00  0.00     0.199 A 
ATOM      8  C   UNL d   1     -49.209  13.238  22.470  0.00  0.00     0.039 A 
ATOM      9  O   UNL d   1     -50.008  14.426  22.450  0.00  0.00    -0.286 OA
ATOM     10  C   UNL d   1     -48.466  12.861  22.544  0.00  0.00     0.010 A 
BRANCH   8  11
ATOM     11  C   UNL d   1     -49.886  12.783  22.343  0.00  0.00     0.003 C 
ATOM     12  C   UNL d   1     -49.897  11.965  22.547  0.00  0.00     0.000 C 
ENDBRANCH   8  11
ENDBRANCH   1   3
BRANCH   1  13
ATOM     13  C   UNL d   1     -46.811  12.599  23.457  0.00  0.00     0.081 C 
BRANCH  13  14
ATOM     14  C   UNL d   1     -46.198  12.029  23.453  0.00  0.00     0.166 A 
ATOM     15  N   UNL d   1     -45.419  12.168  23.246  0.00  0.00    -0.225 NA
ATOM     16  C   UNL d   1     -45.006  11.452  23.321  0.00  0.00     0.101 A 
ATOM     17  C   UNL d   1     -44.216  11.263  23.188  0.00  0.00     0.021 A 
ATOM     18  C   UNL d   1     -45.535  10.880  23.573  0.00  0.00     0.101 A 
ATOM     19  C   UNL d   1     -43.936  10.497  23.305  0.00  0.00     0.002 A 
ATOM     20  C   UNL d   1     -44.476   9.916  23.562  0.00  0.00     0.002 A 
ATOM     21  C   UNL d   1     -45.271  10.107  23.695  0.00  0.00     0.021 A 
ATOM     22  N   UNL d   1     -46.275  11.222  23.659  0.00  0.00    -0.225 NA
ENDBRANCH  13  14
ENDBRANCH   1  13
TORSDOF 4
ENDMDL
MODEL 4
REMARK VINA RESULT:      -6.9      0.810      1.110
REMARK  4 active torsions:
REMARK  status: ('A' for Active; 'I' for Inactive)
REMARK    1  A    between atoms: C_6  and  C_1 
REMARK    2  A    between atoms: C_3  and  C_5 
REMARK    3  A    between atoms: C_5  and  C_6 
REMARK    4  A    between atoms: C_17  and  C_13 
ROOT
ATOM      1  C   UNL d   1     -48.035  13.854  22.516  0.00  0.00     0.202 C 
ATOM      2  O   UNL d   1     -47.936  13.540  21.747  0.00  0.00    -0.286 OA
ENDROOT
BRANCH   1   3
ATOM      3  C   UNL d   1     -48.803  14.119  22.743  0.00  0.00     0.078 A 
ATOM      4  C   UNL d   1     -49.014  14.929  22.580  0.00  0.00     0.202 A 
ATOM      5  C   UNL d   1     -49.765  15.187  22.802  0.00  0.00     0.084 A 
ATOM      6  O   UNL d   1     -48.475  15.432  22.211  0.00  0.00    -0.286 OA
ATOM      7  C   UNL d   1     -50.296  14.685  23.168  0.00  0.00     0.199 A 
ATOM      8  C   UNL d   1     -50.087  13.889  23.327  0.00  0.00     0.039 A 
ATOM      9  O   UNL d   1     -51.056  14.942  23.394  0.00  0.00    -0.286 OA
ATOM     10  C   UNL d   1     -49.330  13.608  23.110  0.00  0.00     0.010 A 
BRANCH   8  11
ATOM     11  C   UNL d   1     -50.620  13.378  23.697  0.00  0.00     0.003 C 
ATOM     12  C   UNL d   1     -50.739  12.597  23.403  0.00  0.00     0.000 C 
ENDBRANCH   8  11
ENDBRANCH   1   3
BRANCH   1  13
ATOM     13  C   UNL d   1     -47.400  13.903  23.041  0.00  0.00     0.081 C 
BRANCH  13  14
ATOM     14  C   UNL d   1     -46.683  13.514  22.856  0.00  0.00     0.166 A 
ATOM     15  N   UNL d   1     -46.423  12.812  23.185  0.00  0.00    -0.225 NA
ATOM     16  C   UNL d   1     -45.689  12.629  22.843  0.00  0.00     0.101 A 
ATOM     17  C   UNL d   1     -45.176  11.996  22.961  0.00  0.00     0.021 A 
ATOM     18  C   UNL d   1     -45.506  13.220  22.306  0.00  0.00     0.101 A 
ATOM     19  C   UNL d   1     -44.468  11.939  22.545  0.00  0.00     0.002 A 
ATOM     20  C   UNL d   1     -44.283  12.542  22.000  0.00  0.00     0.002 A 
ATOM     21  C   UNL d   1     -44.799  13.178  21.881  0.00  0.00     0.021 A 
ATOM     22  N   UNL d   1     -46.111  13.773  22.304  0.00  0.00    -0.225 NA
ENDBRANCH  13  14
ENDBRANCH   1  13
TORSDOF 4
ENDMDL
MODEL 5
REMARK VINA RESULT:      -6.3      8.890      9.551
REMARK  4 active torsions:
REMARK  status: ('A' for Active; 'I' for Inactive)
REMARK    1  A    between atoms: C_6  and  C_1 
REMARK    2  A    between atoms: C_3  and  C_5 
REMARK    3  A    between atoms: C_5  and  C_6 
REMARK    4  A    between atoms: C_17  and  C_13 
ROOT
ATOM      1  C   UNL d   1     -40.045  14.597  19.787  0.00  0.00     0.202 C 
ATOM      2  O   UNL d   1     -40.643  14.148  20.164  0.00  0.00    -0.286 OA
ENDROOT
BRANCH   1   3
ATOM      3  C   UNL d   1     -40.109  14.731  18.958  0.00  0.00     0.078 A 
ATOM      4  C   UNL d   1     -40.576  15.392  18.691  0.00  0.00     0.202 A 
ATOM      5  C   UNL d   1     -40.639  15.522  17.879  0.00  0.00     0.084 A 
ATOM      6  O   UNL d   1     -40.951  15.882  19.238  0.00  0.00    -0.286 OA
ATOM      7  C   UNL d   1     -40.265  15.034  17.341  0.00  0.00     0.199 A 
ATOM      8  C   UNL d   1     -39.806  14.384  17.604  0.00  0.00     0.039 A 
ATOM      9  O   UNL d   1     -40.325  15.161  16.520  0.00  0.00    -0.286 OA
ATOM     10  C   UNL d   1     -39.731  14.235  18.424  0.00  0.00     0.010 A 
BRANCH   8  11
ATOM     11  C   UNL d   1     -39.427  13.888  17.064  0.00  0.00     0.003 C 
ATOM     12  C   UNL d   1     -38.978  13.225  17.332  0.00  0.00     0.000 C 
ENDBRANCH   8  11
ENDBRANCH   1   3
BRANCH   1  13
ATOM     13  C   UNL d   1     -39.408  14.901  20.216  0.00  0.00     0.081 C 
BRANCH  13  14
ATOM     14  C   UNL d   1     -39.130  14.487  20.887  0.00  0.00     0.166 A 
ATOM     15  N   UNL d   1     -39.400  14.582  21.653  0.00  0.00    -0.225 NA
ATOM     16  C   UNL d   1     -38.972  14.063  22.139  0.00  0.00     0.101 A 
ATOM     17  C   UNL d   1     -39.007  13.922  22.949  0.00  0.00     0.021 A 
ATOM     18  C   UNL d   1     -38.442  13.654  21.667  0.00  0.00     0.101 A 
ATOM     19  C   UNL d   1     -38.513  13.368  23.307  0.00  0.00     0.002 A 
ATOM     20  C   UNL d   1     -37.975  12.953  22.825  0.00  0.00     0.002 A 
ATOM     21  C   UNL d   1     -37.940  13.095  22.010  0.00  0.00     0.021 A 
ATOM     22  N   UNL d   1     -38.528  13.905  20.891  0.00  0.00    -0.225 NA
ENDBRANCH  13  14
ENDBRANCH   1  13
TORSDOF 4
ENDMDL
MODEL 6
REMARK VINA RESULT:      -5.8      8.952      9.944
REMARK  4 active torsions:
REMARK  status: ('A' for Active; 'I' for Inactive)
REMARK    1  A    between atoms: C_6  and  C_1 
REMARK    2  A    between atoms: C_3  and  C_5 
REMARK    3  A    between atoms: C_5  and  C_6 
REMARK    4  A    between atoms: C_17  and  C_13 
ROOT
ATOM      1  C   UNL d   1     -39.875  15.025  20.591  0.00  0.00     0.202 C 
ATOM      2  O   UNL d   1     -40.662  14.751  20.513  0.00  0.00    -0.286 OA
ENDROOT
BRANCH   1   3
ATOM      3  C   UNL d   1     -39.434  14.784  21.267  0.00  0.00     0.078 A 
ATOM      4  C   UNL d   1     -39.496  15.252  21.977  0.00  0.00     0.202 A 
ATOM      5  C   UNL d   1     -39.064  15.016  22.638  0.00  0.00     0.084 A 
ATOM      6  O   UNL d   1     -39.978  15.922  21.991  0.00  0.00    -0.286 OA
ATOM      7  C   UNL d   1     -38.588  14.353  22.620  0.00  0.00     0.199 A 
ATOM      8  C   UNL d   1     -38.527  13.893  21.922  0.00  0.00     0.039 A 
ATOM      9  O   UNL d   1     -38.150  14.110  23.286  0.00  0.00    -0.286 OA
ATOM     10  C   UNL d   1     -38.958  14.116  21.240  0.00  0.00     0.010 A 
BRANCH   8  11
ATOM     11  C   UNL d   1     -38.048  13.221  21.898  0.00  0.00     0.003 C 
ATOM     12  C   UNL d   1     -37.940  12.796  21.178  0.00  0.00     0.000 C 
ENDBRANCH   8  11
ENDBRANCH   1   3
BRANCH   1  13
ATOM     13  C   UNL d   1     -39.538  15.517  20.020  0.00  0.00     0.081 C 
BRANCH  13  14
ATOM     14  C   UNL d   1     -39.831  15.498  19.237  0.00  0.00     0.166 A 
ATOM     15  N   UNL d   1     -39.478  15.119  18.604  0.00  0.00    -0.225 NA
ATOM     16  C   UNL d   1     -39.955  15.243  17.936  0.00  0.00     0.101 A 
ATOM     17  C   UNL d   1     -39.875  14.995  17.156  0.00  0.00     0.021 A 
ATOM     18  C   UNL d   1     -40.596  15.699  18.165  0.00  0.00     0.101 A 
ATOM     19  C   UNL d   1     -40.434  15.196  16.585  0.00  0.00     0.002 A 
ATOM     20  C   UNL d   1     -41.086  15.659  16.820  0.00  0.00     0.002 A 
ATOM     21  C   UNL d   1     -41.166  15.909  17.605  0.00  0.00     0.021 A 
ATOM     22  N   UNL d   1     -40.533  15.864  18.966  0.00  0.00    -0.225 NA
ENDBRANCH  13  14
ENDBRANCH   1  13
TORSDOF 4
ENDMDL
MODEL 7
REMARK VINA RESULT:      -5.8      9.039     10.460
REMARK  4 active torsions:
REMARK  status: ('A' for Active; 'I' for Inactive)
REMARK    1  A    between atoms: C_6  and  C_1 
REMARK    2  A    between atoms: C_3  and  C_5 
REMARK    3  A    between atoms: C_5  and  C_6 
REMARK    4  A    between atoms: C_17  and  C_13 
ROOT
ATOM      1  C   UNL d   1     -39.721  14.890  18.728  0.00  0.00     0.202 C 
ATOM      2  O   UNL d   1     -40.340  14.491  19.126  0.00  0.00    -0.286 OA
ENDROOT
BRANCH   1   3
ATOM      3  C   UNL d   1     -39.456  14.581  17.990  0.00  0.00     0.078 A 
ATOM      4  C   UNL d   1     -39.760  14.929  17.275  0.00  0.00     0.202 A 
ATOM      5  C   UNL d   1     -39.501  14.626  16.553  0.00  0.00     0.084 A 
ATOM      6  O   UNL d   1     -40.300  15.551  17.313  0.00  0.00    -0.286 OA
ATOM      7  C   UNL d   1     -38.966  14.010  16.519  0.00  0.00     0.199 A 
ATOM      8  C   UNL d   1     -38.666  13.668  17.224  0.00  0.00     0.039 A 
ATOM      9  O   UNL d   1     -38.700  13.700  15.793  0.00  0.00    -0.286 OA
ATOM     10  C   UNL d   1     -38.918  13.962  17.966  0.00  0.00     0.010 A 
BRANCH   8  11
ATOM     11  C   UNL d   1     -38.126  13.045  17.195  0.00  0.00     0.003 C 
ATOM     12  C   UNL d   1     -38.151  12.427  17.769  0.00  0.00     0.000 C 
ENDBRANCH   8  11
ENDBRANCH   1   3
BRANCH   1  13
ATOM     13  C   UNL d   1     -39.378  15.569  19.050  0.00  0.00     0.081 C 
BRANCH  13  14
ATOM     14  C   UNL d   1     -39.270  15.622  19.877  0.00  0.00     0.166 A 
ATOM     15  N   UNL d   1     -39.852  15.792  20.425  0.00  0.00    -0.225 NA
ATOM     16  C   UNL d   1     -39.502  15.789  21.177  0.00  0.00     0.101 A 
ATOM     17  C   UNL d   1     -39.817  15.922  21.926  0.00  0.00     0.021 A 
ATOM     18  C   UNL d   1     -38.706  15.616  21.084  0.00  0.00     0.101 A 
ATOM     19  C   UNL d   1     -39.344  15.886  22.599  0.00  0.00     0.002 A 
ATOM     20  C   UNL d   1     -38.536  15.711  22.503  0.00  0.00     0.002 A 
ATOM     21  C   UNL d   1     -38.219  15.577  21.750  0.00  0.00     0.021 A 
ATOM     22  N   UNL d   1     -38.548  15.511  20.287  0.00  0.00    -0.225 NA
ENDBRANCH  13  14
ENDBRANCH   1  13
TORSDOF 4
ENDMDL
MODEL 8
REMARK VINA RESULT:      -5.7      8.639     10.316
REMARK  4 active torsions:
REMARK  status: ('A' for Active; 'I' for Inactive)
REMARK    1  A    between atoms: C_6  and  C_1 
REMARK    2  A    between atoms: C_3  and  C_5 
REMARK    3  A    between atoms: C_5  and  C_6 
REMARK    4  A    between atoms: C_17  and  C_13 
ROOT
ATOM      1  C   UNL d   1     -39.739  14.625  18.585  0.00  0.00     0.202 C 
ATOM      2  O   UNL d   1     -40.280  14.220  18.091  0.00  0.00    -0.286 OA
ENDROOT
BRANCH   1   3
ATOM      3  C   UNL d   1     -40.024  14.947  19.310  0.00  0.00     0.078 A 
ATOM      4  C   UNL d   1     -40.641  15.534  19.275  0.00  0.00     0.202 A 
ATOM      5  C   UNL d   1     -40.920  15.848  19.985  0.00  0.00     0.084 A 
ATOM      6  O   UNL d   1     -40.945  15.774  18.547  0.00  0.00    -0.286 OA
ATOM      7  C   UNL d   1     -40.616  15.607  20.704  0.00  0.00     0.199 A 
ATOM      8  C   UNL d   1     -40.010  15.030  20.737  0.00  0.00     0.039 A 
ATOM      9  O   UNL d   1     -40.894  15.922  21.424  0.00  0.00    -0.286 OA
ATOM     10  C   UNL d   1     -39.714  14.699  20.028  0.00  0.00     0.010 A 
BRANCH   8  11
ATOM     11  C   UNL d   1     -39.700  14.783  21.461  0.00  0.00     0.003 C 
ATOM     12  C   UNL d   1     -39.419  13.994  21.562  0.00  0.00     0.000 C 
ENDBRANCH   8  11
ENDBRANCH   1   3
BRANCH   1  13
ATOM     13  C   UNL d   1     -38.947  14.708  18.369  0.00  0.00     0.081 C 
BRANCH  13  14
ATOM     14  C   UNL d   1     -38.711  14.516  17.590  0.00  0.00     0.166 A 
ATOM     15  N   UNL d   1     -38.593  15.049  16.982  0.00  0.00    -0.225 NA
ATOM     16  C   UNL d   1     -38.364  14.621  16.309  0.00  0.00     0.101 A 
ATOM     17  C   UNL d   1     -38.174  14.864  15.547  0.00  0.00     0.021 A 
ATOM     18  C   UNL d   1     -38.343  13.827  16.511  0.00  0.00     0.101 A 
ATOM     19  C   UNL d   1     -37.960  14.320  14.966  0.00  0.00     0.002 A 
ATOM     20  C   UNL d   1     -37.940  13.514  15.173  0.00  0.00     0.002 A 
ATOM     21  C   UNL d   1     -38.130  13.268  15.941  0.00  0.00     0.021 A 
ATOM     22  N   UNL d   1     -38.555  13.747  17.299  0.00  0.00    -0.225 NA
ENDBRANCH  13  14
ENDBRANCH   1  13
TORSDOF 4
ENDMDL
