MODEL 1
REMARK VINA RESULT:      -0.3      0.000      0.000
REMARK  8 active torsions:
REMARK  status: ('A' for Active; 'I' for Inactive)
REMARK    1  A    between atoms: S_3  and  C_1 
REMARK    2  A    between atoms: C_7  and  C_2 
REMARK    3  A    between atoms: N_9  and  S_3 
REMARK    4  A    between atoms: C_8  and  C_6 
REMARK    5  A    between atoms: O_21  and  C_7 
REMARK    6  A    between atoms: O_22  and  C_8 
REMARK    7  A    between atoms: C_14  and  N_9 
REMARK    8  A    between atoms: C_10  and  C_14 
ROOT
ATOM      1  C   UNL d   1      58.623  -0.489  30.055  0.00  0.00     0.140 A 
ATOM      2  C   UNL d   1      58.772  -1.035  29.463  0.00  0.00     0.082 A 
ATOM      3  C   UNL d   1      59.510  -0.862  29.130  0.00  0.00     0.018 A 
ATOM      4  S   UNL d   1      59.270   0.015  30.081  0.00  0.00    -0.069 SA
ATOM      5  C   UNL d   1      59.798  -0.226  29.513  0.00  0.00     0.093 A 
ATOM      6  C   UNL d   1      59.891  -1.249  28.529  0.00  0.00     0.001 C 
ENDROOT
BRANCH   1   7
ATOM      7  S   UNL d   1      57.928  -0.538  30.470  0.00  0.00     0.291 S 
ATOM      8  O   UNL d   1      58.339  -0.884  31.115  0.00  0.00    -0.198 OA
ATOM      9  O   UNL d   1      57.520  -0.209  29.862  0.00  0.00    -0.198 OA
BRANCH   7  10
ATOM     10  N   UNL d   1      57.229  -0.594  30.904  0.00  0.00    -0.156 NA
BRANCH  10  11
ATOM     11  C   UNL d   1      57.189  -0.313  31.682  0.00  0.00     0.119 C 
BRANCH  11  12
ATOM     12  C   UNL d   1      56.533  -0.492  32.150  0.00  0.00     0.049 A 
ATOM     13  S   UNL d   1      56.099   0.018  32.640  0.00  0.00    -0.085 SA
ATOM     14  C   UNL d   1      55.498  -0.405  32.995  0.00  0.00     0.035 A 
ATOM     15  C   UNL d   1      55.546  -1.186  32.731  0.00  0.00     0.007 A 
ATOM     16  C   UNL d   1      56.189  -1.235  32.209  0.00  0.00     0.009 A 
ENDBRANCH  11  12
ENDBRANCH  10  11
ENDBRANCH   7  10
ENDBRANCH   1   7
BRANCH   2  17
ATOM     17  C   UNL d   1      58.280  -1.663  29.223  0.00  0.00     0.297 C 
ATOM     18  O   UNL d   1      57.575  -1.505  28.830  0.00  0.00    -0.259 OA
BRANCH  17  19
ATOM     19  O   UNL d   1      58.508  -2.442  29.384  0.00  0.00    -0.296 OA
ATOM     20  C   UNL d   1      58.027  -3.065  29.163  0.00  0.00     0.185 C 
ENDBRANCH  17  19
ENDBRANCH   2  17
BRANCH   5  21
ATOM     21  C   UNL d   1      60.548   0.136  29.343  0.00  0.00     0.302 C 
ATOM     22  O   UNL d   1      60.674   0.423  28.594  0.00  0.00    -0.259 OA
BRANCH  21  23
ATOM     23  O   UNL d   1      61.131   0.191  29.931  0.00  0.00    -0.295 OA
ATOM     24  C   UNL d   1      61.025   0.680  30.586  0.00  0.00     0.185 C 
ENDBRANCH  21  23
ENDBRANCH   5  21
TORSDOF 8
ENDMDL
MODEL 2
REMARK VINA RESULT:      -0.2      1.850      4.211
REMARK  8 active torsions:
REMARK  status: ('A' for Active; 'I' for Inactive)
REMARK    1  A    between atoms: S_3  and  C_1 
REMARK    2  A    between atoms: C_7  and  C_2 
REMARK    3  A    between atoms: N_9  and  S_3 
REMARK    4  A    between atoms: C_8  and  C_6 
REMARK    5  A    between atoms: O_21  and  C_7 
REMARK    6  A    between atoms: O_22  and  C_8 
REMARK    7  A    between atoms: C_14  and  N_9 
REMARK    8  A    between atoms: C_10  and  C_14 
ROOT
ATOM      1  C   UNL d   1      58.236  -1.217  30.165  0.00  0.00     0.140 A 
ATOM      2  C   UNL d   1      58.082  -0.460  29.898  0.00  0.00     0.082 A 
ATOM      3  C   UNL d   1      57.614  -0.074  30.463  0.00  0.00     0.018 A 
ATOM      4  S   UNL d   1      57.862  -1.292  30.892  0.00  0.00    -0.069 SA
ATOM      5  C   UNL d   1      57.491  -0.590  31.057  0.00  0.00     0.093 A 
ATOM      6  C   UNL d   1      57.325   0.682  30.442  0.00  0.00     0.001 C 
ENDROOT
BRANCH   1   7
ATOM      7  S   UNL d   1      58.687  -1.713  29.709  0.00  0.00     0.291 S 
ATOM      8  O   UNL d   1      57.992  -2.107  29.451  0.00  0.00    -0.198 OA
ATOM      9  O   UNL d   1      59.361  -1.347  29.945  0.00  0.00    -0.198 OA
BRANCH   7  10
ATOM     10  N   UNL d   1      59.134  -2.224  29.240  0.00  0.00    -0.156 NA
BRANCH  10  11
ATOM     11  C   UNL d   1      59.919  -2.400  29.434  0.00  0.00     0.119 C 
BRANCH  11  12
ATOM     12  C   UNL d   1      60.266  -3.093  29.153  0.00  0.00     0.049 A 
ATOM     13  S   UNL d   1      60.005  -3.583  28.536  0.00  0.00    -0.085 SA
ATOM     14  C   UNL d   1      60.525  -4.206  28.456  0.00  0.00     0.035 A 
ATOM     15  C   UNL d   1      61.119  -4.117  29.021  0.00  0.00     0.007 A 
ATOM     16  C   UNL d   1      60.955  -3.426  29.451  0.00  0.00     0.009 A 
ENDBRANCH  11  12
ENDBRANCH  10  11
ENDBRANCH   7  10
ENDBRANCH   1   7
BRANCH   2  17
ATOM     17  C   UNL d   1      58.341  -0.116  29.184  0.00  0.00     0.297 C 
ATOM     18  O   UNL d   1      58.135  -0.458  28.466  0.00  0.00    -0.259 OA
BRANCH  17  19
ATOM     19  O   UNL d   1      58.805   0.569  29.209  0.00  0.00    -0.296 OA
ATOM     20  C   UNL d   1      59.449   0.646  28.711  0.00  0.00     0.185 C 
ENDBRANCH  17  19
ENDBRANCH   2  17
BRANCH   5  21
ATOM     21  C   UNL d   1      57.036  -0.417  31.753  0.00  0.00     0.302 C 
ATOM     22  O   UNL d   1      56.811   0.353  31.884  0.00  0.00    -0.259 OA
BRANCH  21  23
ATOM     23  O   UNL d   1      56.829  -1.022  32.282  0.00  0.00    -0.295 OA
ATOM     24  C   UNL d   1      56.042  -1.153  32.487  0.00  0.00     0.185 C 
ENDBRANCH  21  23
ENDBRANCH   5  21
TORSDOF 8
ENDMDL
MODEL 3
REMARK VINA RESULT:       1.1      2.122      3.403
REMARK  8 active torsions:
REMARK  status: ('A' for Active; 'I' for Inactive)
REMARK    1  A    between atoms: S_3  and  C_1 
REMARK    2  A    between atoms: C_7  and  C_2 
REMARK    3  A    between atoms: N_9  and  S_3 
REMARK    4  A    between atoms: C_8  and  C_6 
REMARK    5  A    between atoms: O_21  and  C_7 
REMARK    6  A    between atoms: O_22  and  C_8 
REMARK    7  A    between atoms: C_14  and  N_9 
REMARK    8  A    between atoms: C_10  and  C_14 
ROOT
ATOM      1  C   UNL d   1      56.660   0.202  32.382  0.00  0.00     0.140 A 
ATOM      2  C   UNL d   1      56.790  -0.587  32.207  0.00  0.00     0.082 A 
ATOM      3  C   UNL d   1      57.279  -0.629  31.540  0.00  0.00     0.018 A 
ATOM      4  S   UNL d   1      57.069   0.639  31.822  0.00  0.00    -0.069 SA
ATOM      5  C   UNL d   1      57.439   0.120  31.319  0.00  0.00     0.093 A 
ATOM      6  C   UNL d   1      57.556  -1.289  31.162  0.00  0.00     0.001 C 
ENDROOT
BRANCH   1   7
ATOM      7  S   UNL d   1      56.195   0.393  33.018  0.00  0.00     0.291 S 
ATOM      8  O   UNL d   1      56.879   0.598  33.458  0.00  0.00    -0.198 OA
ATOM      9  O   UNL d   1      55.529   0.201  32.611  0.00  0.00    -0.198 OA
BRANCH   7  10
ATOM     10  N   UNL d   1      55.732   0.592  33.672  0.00  0.00    -0.156 NA
BRANCH  10  11
ATOM     11  C   UNL d   1      55.982   0.407  34.440  0.00  0.00     0.119 C 
BRANCH  11  12
ATOM     12  C   UNL d   1      55.464   0.503  35.074  0.00  0.00     0.049 A 
ATOM     13  S   UNL d   1      54.637   0.575  35.054  0.00  0.00    -0.085 SA
ATOM     14  C   UNL d   1      54.361   0.659  35.817  0.00  0.00     0.035 A 
ATOM     15  C   UNL d   1      55.010   0.641  36.326  0.00  0.00     0.007 A 
ATOM     16  C   UNL d   1      55.690   0.544  35.862  0.00  0.00     0.009 A 
ENDBRANCH  11  12
ENDBRANCH  10  11
ENDBRANCH   7  10
ENDBRANCH   1   7
BRANCH   2  17
ATOM     17  C   UNL d   1      56.492  -1.248  32.617  0.00  0.00     0.297 C 
ATOM     18  O   UNL d   1      56.783  -1.436  33.362  0.00  0.00    -0.259 OA
BRANCH  17  19
ATOM     19  O   UNL d   1      55.902  -1.712  32.265  0.00  0.00    -0.296 OA
ATOM     20  C   UNL d   1      55.549  -2.316  32.688  0.00  0.00     0.185 C 
ENDBRANCH  17  19
ENDBRANCH   2  17
BRANCH   5  21
ATOM     21  C   UNL d   1      57.925   0.328  30.654  0.00  0.00     0.302 C 
ATOM     22  O   UNL d   1      57.596   0.294  29.912  0.00  0.00    -0.259 OA
BRANCH  21  23
ATOM     23  O   UNL d   1      58.713   0.560  30.766  0.00  0.00    -0.295 OA
ATOM     24  C   UNL d   1      59.285   0.402  30.194  0.00  0.00     0.185 C 
ENDBRANCH  21  23
ENDBRANCH   5  21
TORSDOF 8
ENDMDL
MODEL 4
REMARK VINA RESULT:       1.3      2.179      4.898
REMARK  8 active torsions:
REMARK  status: ('A' for Active; 'I' for Inactive)
REMARK    1  A    between atoms: S_3  and  C_1 
REMARK    2  A    between atoms: C_7  and  C_2 
REMARK    3  A    between atoms: N_9  and  S_3 
REMARK    4  A    between atoms: C_8  and  C_6 
REMARK    5  A    between atoms: O_21  and  C_7 
REMARK    6  A    between atoms: O_22  and  C_8 
REMARK    7  A    between atoms: C_14  and  N_9 
REMARK    8  A    between atoms: C_10  and  C_14 
ROOT
ATOM      1  C   UNL d   1      56.586   0.166  32.920  0.00  0.00     0.140 A 
ATOM      2  C   UNL d   1      56.163  -0.515  33.085  0.00  0.00     0.082 A 
ATOM      3  C   UNL d   1      55.869  -0.457  33.858  0.00  0.00     0.018 A 
ATOM      4  S   UNL d   1      56.550   0.637  33.591  0.00  0.00    -0.069 SA
ATOM      5  C   UNL d   1      56.111   0.243  34.149  0.00  0.00     0.093 A 
ATOM      6  C   UNL d   1      55.420  -0.994  34.264  0.00  0.00     0.001 C 
ENDROOT
BRANCH   1   7
ATOM      7  S   UNL d   1      56.934   0.247  32.191  0.00  0.00     0.291 S 
ATOM      8  O   UNL d   1      56.221   0.570  31.888  0.00  0.00    -0.198 OA
ATOM      9  O   UNL d   1      57.623  -0.059  32.466  0.00  0.00    -0.198 OA
BRANCH   7  10
ATOM     10  N   UNL d   1      57.275   0.336  31.445  0.00  0.00    -0.156 NA
BRANCH  10  11
ATOM     11  C   UNL d   1      58.094   0.272  31.344  0.00  0.00     0.119 C 
BRANCH  11  12
ATOM     12  C   UNL d   1      58.405   0.132  30.593  0.00  0.00     0.049 A 
ATOM     13  S   UNL d   1      58.780  -0.554  30.314  0.00  0.00    -0.085 SA
ATOM     14  C   UNL d   1      58.995  -0.439  29.536  0.00  0.00     0.035 A 
ATOM     15  C   UNL d   1      58.759   0.321  29.315  0.00  0.00     0.007 A 
ATOM     16  C   UNL d   1      58.394   0.670  29.973  0.00  0.00     0.009 A 
ENDBRANCH  11  12
ENDBRANCH  10  11
ENDBRANCH   7  10
ENDBRANCH   1   7
BRANCH   2  17
ATOM     17  C   UNL d   1      56.038  -1.164  32.578  0.00  0.00     0.297 C 
ATOM     18  O   UNL d   1      55.703  -1.048  31.837  0.00  0.00    -0.259 OA
BRANCH  17  19
ATOM     19  O   UNL d   1      56.254  -1.923  32.830  0.00  0.00    -0.296 OA
ATOM     20  C   UNL d   1      55.759  -2.558  32.688  0.00  0.00     0.185 C 
ENDBRANCH  17  19
ENDBRANCH   2  17
BRANCH   5  21
ATOM     21  C   UNL d   1      55.930   0.524  34.930  0.00  0.00     0.302 C 
ATOM     22  O   UNL d   1      55.151   0.650  35.122  0.00  0.00    -0.259 OA
BRANCH  21  23
ATOM     23  O   UNL d   1      56.537   0.663  35.479  0.00  0.00    -0.295 OA
ATOM     24  C   UNL d   1      56.379   0.681  36.288  0.00  0.00     0.185 C 
ENDBRANCH  21  23
ENDBRANCH   5  21
TORSDOF 8
ENDMDL
MODEL 5
REMARK VINA RESULT:       2.3      2.325      5.362
REMARK  8 active torsions:
REMARK  status: ('A' for Active; 'I' for Inactive)
REMARK    1  A    between atoms: S_3  and  C_1 
REMARK    2  A    between atoms: C_7  and  C_2 
REMARK    3  A    between atoms: N_9  and  S_3 
REMARK    4  A    between atoms: C_8  and  C_6 
REMARK    5  A    between atoms: O_21  and  C_7 
REMARK    6  A    between atoms: O_22  and  C_8 
REMARK    7  A    between atoms: C_14  and  N_9 
REMARK    8  A    between atoms: C_10  and  C_14 
ROOT
ATOM      1  C   UNL d   1      56.448   0.045  32.890  0.00  0.00     0.140 A 
ATOM      2  C   UNL d   1      56.649   0.348  33.623  0.00  0.00     0.082 A 
ATOM      3  C   UNL d   1      55.959   0.411  34.077  0.00  0.00     0.018 A 
ATOM      4  S   UNL d   1      55.637  -0.076  32.898  0.00  0.00    -0.069 SA
ATOM      5  C   UNL d   1      55.356   0.152  33.625  0.00  0.00     0.093 A 
ATOM      6  C   UNL d   1      55.881   0.682  34.836  0.00  0.00     0.001 C 
ENDROOT
BRANCH   1   7
ATOM      7  S   UNL d   1      57.031  -0.071  32.338  0.00  0.00     0.291 S 
ATOM      8  O   UNL d   1      57.312  -0.731  32.773  0.00  0.00    -0.198 OA
ATOM      9  O   UNL d   1      56.776   0.558  31.909  0.00  0.00    -0.198 OA
BRANCH   7  10
ATOM     10  N   UNL d   1      57.629  -0.200  31.784  0.00  0.00    -0.156 NA
BRANCH  10  11
ATOM     11  C   UNL d   1      57.445  -0.393  31.000  0.00  0.00     0.119 C 
BRANCH  11  12
ATOM     12  C   UNL d   1      58.034  -0.367  30.422  0.00  0.00     0.049 A 
ATOM     13  S   UNL d   1      58.089  -0.816  29.727  0.00  0.00    -0.085 SA
ATOM     14  C   UNL d   1      58.766  -0.600  29.327  0.00  0.00     0.035 A 
ATOM     15  C   UNL d   1      59.145  -0.013  29.765  0.00  0.00     0.007 A 
ATOM     16  C   UNL d   1      58.688   0.128  30.443  0.00  0.00     0.009 A 
ENDBRANCH  11  12
ENDBRANCH  10  11
ENDBRANCH   7  10
ENDBRANCH   1   7
BRANCH   2  17
ATOM     17  C   UNL d   1      57.410   0.562  33.887  0.00  0.00     0.297 C 
ATOM     18  O   UNL d   1      58.015   0.681  33.344  0.00  0.00    -0.259 OA
BRANCH  17  19
ATOM     19  O   UNL d   1      57.547   0.653  34.699  0.00  0.00    -0.296 OA
ATOM     20  C   UNL d   1      58.259   0.417  35.023  0.00  0.00     0.185 C 
ENDBRANCH  17  19
ENDBRANCH   2  17
BRANCH   5  21
ATOM     21  C   UNL d   1      54.546   0.122  33.879  0.00  0.00     0.302 C 
ATOM     22  O   UNL d   1      54.039  -0.379  33.491  0.00  0.00    -0.259 OA
BRANCH  21  23
ATOM     23  O   UNL d   1      54.287   0.596  34.509  0.00  0.00    -0.295 OA
ATOM     24  C   UNL d   1      53.483   0.671  34.677  0.00  0.00     0.185 C 
ENDBRANCH  21  23
ENDBRANCH   5  21
TORSDOF 8
ENDMDL
