MODEL 1
REMARK VINA RESULT:      -3.2      0.000      0.000
REMARK  4 active torsions:
REMARK  status: ('A' for Active; 'I' for Inactive)
REMARK    1  A    between atoms: C_3  and  S_1 
REMARK       I    between atoms: C_2  and  N_6 
REMARK    2  A    between atoms: C_11  and  C_2 
REMARK    3  A    between atoms: N_6  and  C_12 
REMARK    4  A    between atoms: C_15  and  C_11 
ROOT
ATOM      1  C   UNL d   1      29.103  16.187 -24.142  0.00  0.00     0.107 A 
ATOM      2  C   UNL d   1      29.145  16.993 -24.299  0.00  0.00     0.015 A 
ATOM      3  C   UNL d   1      29.791  15.733 -24.131  0.00  0.00     0.015 A 
ATOM      4  C   UNL d   1      30.561  16.896 -24.435  0.00  0.00     0.085 A 
ATOM      5  C   UNL d   1      30.521  16.087 -24.277  0.00  0.00     0.020 A 
ATOM      6  C   UNL d   1      29.875  17.347 -24.445  0.00  0.00     0.020 A 
ENDROOT
BRANCH   4   7
ATOM      7  N   UNL d   1      31.292  17.251 -24.581  0.00  0.00    -0.208 NA
ATOM      8  C   UNL d   1      31.846  17.320 -23.973  0.00  0.00     0.279 C 
ATOM      9  O   UNL d   1      31.670  17.034 -23.221  0.00  0.00    -0.265 OA
BRANCH   8  10
ATOM     10  C   UNL d   1      32.581  17.677 -24.121  0.00  0.00     0.062 C 
BRANCH  10  11
ATOM     11  C   UNL d   1      32.801  18.363 -23.718  0.00  0.00     0.005 A 
ATOM     12  C   UNL d   1      32.935  19.054 -24.147  0.00  0.00     0.000 A 
ATOM     13  C   UNL d   1      33.156  19.744 -23.745  0.00  0.00     0.000 A 
ATOM     14  C   UNL d   1      33.241  19.738 -22.920  0.00  0.00     0.000 A 
ATOM     15  C   UNL d   1      33.105  19.042 -22.499  0.00  0.00     0.000 A 
ATOM     16  C   UNL d   1      32.886  18.357 -22.894  0.00  0.00     0.000 A 
ENDBRANCH  10  11
ENDBRANCH   8  10
ENDBRANCH   4   7
BRANCH   1  17
ATOM     17  S   UNL d   1      28.372  15.832 -23.996  0.00  0.00     0.302 S 
ATOM     18  O   UNL d   1      28.334  16.213 -23.263  0.00  0.00    -0.197 OA
ATOM     19  O   UNL d   1      28.410  15.453 -24.727  0.00  0.00    -0.197 OA
ATOM     20  N   UNL d   1      27.641  15.477 -23.849  0.00  0.00    -0.043 N 
ENDBRANCH   1  17
TORSDOF 4
ENDMDL
MODEL 2
REMARK VINA RESULT:      -2.7      1.198      1.862
REMARK  4 active torsions:
REMARK  status: ('A' for Active; 'I' for Inactive)
REMARK    1  A    between atoms: C_3  and  S_1 
REMARK       I    between atoms: C_2  and  N_6 
REMARK    2  A    between atoms: C_11  and  C_2 
REMARK    3  A    between atoms: N_6  and  C_12 
REMARK    4  A    between atoms: C_15  and  C_11 
ROOT
ATOM      1  C   UNL d   1      30.560  16.437 -24.143  0.00  0.00     0.107 A 
ATOM      2  C   UNL d   1      31.036  16.135 -23.546  0.00  0.00     0.015 A 
ATOM      3  C   UNL d   1      30.765  17.144 -24.516  0.00  0.00     0.015 A 
ATOM      4  C   UNL d   1      31.926  17.240 -23.690  0.00  0.00     0.085 A 
ATOM      5  C   UNL d   1      31.448  17.545 -24.290  0.00  0.00     0.020 A 
ATOM      6  C   UNL d   1      31.719  16.536 -23.319  0.00  0.00     0.020 A 
ENDROOT
BRANCH   4   7
ATOM      7  N   UNL d   1      32.610  17.642 -23.463  0.00  0.00    -0.208 NA
ATOM      8  C   UNL d   1      32.552  18.381 -23.100  0.00  0.00     0.279 C 
ATOM      9  O   UNL d   1      31.813  18.717 -22.965  0.00  0.00    -0.265 OA
BRANCH   8  10
ATOM     10  C   UNL d   1      33.241  18.786 -22.872  0.00  0.00     0.062 C 
BRANCH  10  11
ATOM     11  C   UNL d   1      33.190  19.515 -22.489  0.00  0.00     0.005 A 
ATOM     12  C   UNL d   1      33.195  19.536 -21.665  0.00  0.00     0.000 A 
ATOM     13  C   UNL d   1      33.144  20.267 -21.279  0.00  0.00     0.000 A 
ATOM     14  C   UNL d   1      33.089  20.969 -21.717  0.00  0.00     0.000 A 
ATOM     15  C   UNL d   1      33.084  20.938 -22.541  0.00  0.00     0.000 A 
ATOM     16  C   UNL d   1      33.135  20.216 -22.928  0.00  0.00     0.000 A 
ENDBRANCH  10  11
ENDBRANCH   8  10
ENDBRANCH   4   7
BRANCH   1  17
ATOM     17  S   UNL d   1      29.876  16.036 -24.370  0.00  0.00     0.302 S 
ATOM     18  O   UNL d   1      29.427  16.519 -23.873  0.00  0.00    -0.197 OA
ATOM     19  O   UNL d   1      30.324  15.553 -24.866  0.00  0.00    -0.197 OA
ATOM     20  N   UNL d   1      29.191  15.633 -24.597  0.00  0.00    -0.043 N 
ENDBRANCH   1  17
TORSDOF 4
ENDMDL
MODEL 3
REMARK VINA RESULT:      -2.3      2.694      4.814
REMARK  4 active torsions:
REMARK  status: ('A' for Active; 'I' for Inactive)
REMARK    1  A    between atoms: C_3  and  S_1 
REMARK       I    between atoms: C_2  and  N_6 
REMARK    2  A    between atoms: C_11  and  C_2 
REMARK    3  A    between atoms: N_6  and  C_12 
REMARK    4  A    between atoms: C_15  and  C_11 
ROOT
ATOM      1  C   UNL d   1      32.889  20.287 -22.034  0.00  0.00     0.107 A 
ATOM      2  C   UNL d   1      32.635  20.306 -22.815  0.00  0.00     0.015 A 
ATOM      3  C   UNL d   1      33.193  19.589 -21.716  0.00  0.00     0.015 A 
ATOM      4  C   UNL d   1      32.985  18.932 -22.967  0.00  0.00     0.085 A 
ATOM      5  C   UNL d   1      33.241  18.911 -22.182  0.00  0.00     0.020 A 
ATOM      6  C   UNL d   1      32.683  19.628 -23.281  0.00  0.00     0.020 A 
ENDROOT
BRANCH   4   7
ATOM      7  N   UNL d   1      33.033  18.254 -23.434  0.00  0.00    -0.208 NA
ATOM      8  C   UNL d   1      32.351  17.940 -23.776  0.00  0.00     0.279 C 
ATOM      9  O   UNL d   1      31.623  18.303 -23.651  0.00  0.00    -0.265 OA
BRANCH   8  10
ATOM     10  C   UNL d   1      32.399  17.256 -24.246  0.00  0.00     0.062 C 
BRANCH  10  11
ATOM     11  C   UNL d   1      31.841  16.654 -24.168  0.00  0.00     0.005 A 
ATOM     12  C   UNL d   1      31.231  16.598 -24.721  0.00  0.00     0.000 A 
ATOM     13  C   UNL d   1      30.669  15.995 -24.643  0.00  0.00     0.000 A 
ATOM     14  C   UNL d   1      30.720  15.453 -24.017  0.00  0.00     0.000 A 
ATOM     15  C   UNL d   1      31.332  15.517 -23.469  0.00  0.00     0.000 A 
ATOM     16  C   UNL d   1      31.891  16.113 -23.542  0.00  0.00     0.000 A 
ENDBRANCH  10  11
ENDBRANCH   8  10
ENDBRANCH   4   7
BRANCH   1  17
ATOM     17  S   UNL d   1      32.841  20.965 -21.567  0.00  0.00     0.302 S 
ATOM     18  O   UNL d   1      33.204  21.403 -22.166  0.00  0.00    -0.197 OA
ATOM     19  O   UNL d   1      32.479  20.528 -20.968  0.00  0.00    -0.197 OA
ATOM     20  N   UNL d   1      32.793  21.645 -21.099  0.00  0.00    -0.043 N 
ENDBRANCH   1  17
TORSDOF 4
ENDMDL
