MODEL 1
REMARK VINA RESULT:       4.7      0.000      0.000
REMARK  1 active torsions:
REMARK  status: ('A' for Active; 'I' for Inactive)
REMARK    1  A    between atoms: C_4  and  C_1 
ROOT
ATOM      1  C   UNL d   1     -51.138  25.788  33.325  0.00  0.00     0.164 A 
ATOM      2  O   UNL d   1     -50.758  25.055  33.321  0.00  0.00    -0.301 OA
ATOM      3  C   UNL d   1     -51.950  25.657  33.322  0.00  0.00     0.033 A 
ATOM      4  C   UNL d   1     -51.340  24.469  33.316  0.00  0.00     0.100 A 
ATOM      5  C   UNL d   1     -52.080  24.843  33.317  0.00  0.00     0.025 A 
ATOM      6  C   UNL d   1     -51.297  23.647  33.311  0.00  0.00     0.025 A 
ATOM      7  C   UNL d   1     -52.772  24.393  33.312  0.00  0.00     0.002 A 
ATOM      8  C   UNL d   1     -52.728  23.560  33.307  0.00  0.00     0.000 A 
ATOM      9  C   UNL d   1     -51.992  23.188  33.306  0.00  0.00     0.002 A 
ENDROOT
BRANCH   1  10
ATOM     10  C   UNL d   1     -50.760  26.516  33.331  0.00  0.00     0.235 C 
ATOM     11  O   UNL d   1     -51.218  27.212  33.306  0.00  0.00    -0.642 OA
ATOM     12  O   UNL d   1     -49.936  26.564  33.360  0.00  0.00    -0.642 OA
ENDBRANCH   1  10
TORSDOF 1
ENDMDL
