MODEL 1
REMARK VINA RESULT:      32.3      0.000      0.000
REMARK  9 active torsions:
REMARK  status: ('A' for Active; 'I' for Inactive)
REMARK    1  A    between atoms: N_5  and  S_1 
REMARK    2  A    between atoms: C_8  and  S_1 
REMARK    3  A    between atoms: C_2  and  N_10 
REMARK    4  A    between atoms: C_9  and  N_5 
REMARK    5  A    between atoms: C_25  and  N_5 
REMARK    6  A    between atoms: C_13  and  C_9 
REMARK    7  A    between atoms: N_10  and  O_14 
REMARK    8  A    between atoms: C_17  and  C_13 
REMARK    9  A    between atoms: O_14  and  C_17 
ROOT
ATOM      1  C   UNL d   1      45.460 -17.647  40.002  0.00  0.00     0.240 C 
ATOM      2  O   UNL d   1      44.824 -17.262  40.369  0.00  0.00    -0.283 OA
ENDROOT
BRANCH   1   3
ATOM      3  C   UNL d   1      45.394 -18.194  40.623  0.00  0.00     0.136 C 
BRANCH   3   4
ATOM      4  N   UNL d   1      46.068 -18.603  40.874  0.00  0.00    -0.226 N 
BRANCH   4   5
ATOM      5  S   UNL d   1      46.274 -18.615  41.677  0.00  0.00     0.271 S 
ATOM      6  O   UNL d   1      46.645 -17.920  41.416  0.00  0.00    -0.200 OA
ATOM      7  O   UNL d   1      45.994 -19.246  42.128  0.00  0.00    -0.200 OA
BRANCH   5   8
ATOM      8  C   UNL d   1      46.341 -18.840  42.464  0.00  0.00     0.104 A 
ATOM      9  C   UNL d   1      46.529 -18.283  43.037  0.00  0.00     0.013 A 
ATOM     10  C   UNL d   1      46.596 -18.513  43.831  0.00  0.00     0.001 A 
ATOM     11  C   UNL d   1      46.472 -19.305  44.044  0.00  0.00     0.000 A 
ATOM     12  C   UNL d   1      46.285 -19.821  43.427  0.00  0.00     0.001 A 
ATOM     13  C   UNL d   1      46.533 -19.558  44.829  0.00  0.00     0.000 C 
ATOM     14  C   UNL d   1      46.210 -19.633  42.633  0.00  0.00     0.013 A 
ENDBRANCH   5   8
ENDBRANCH   4   5
BRANCH   4  15
ATOM     15  C   UNL d   1      46.632 -19.042  40.460  0.00  0.00     0.092 C 
ATOM     16  C   UNL d   1      46.643 -19.864  40.532  0.00  0.00     0.021 C 
ENDBRANCH   4  15
ENDBRANCH   3   4
ENDBRANCH   1   3
BRANCH   1  17
ATOM     17  C   UNL d   1      45.792 -17.344  39.311  0.00  0.00     0.193 C 
BRANCH  17  18
ATOM     18  O   UNL d   1      45.297 -17.096  38.696  0.00  0.00    -0.206 OA
BRANCH  18  19
ATOM     19  N   UNL d   1      45.620 -16.838  37.984  0.00  0.00    -0.126 NA
BRANCH  19  20
ATOM     20  C   UNL d   1      45.274 -16.209  37.574  0.00  0.00     0.108 A 
ATOM     21  C   UNL d   1      44.487 -16.168  37.319  0.00  0.00     0.020 A 
ATOM     22  C   UNL d   1      44.382 -15.445  36.935  0.00  0.00     0.002 A 
ATOM     23  C   UNL d   1      43.855 -16.694  37.387  0.00  0.00     0.002 A 
ATOM     24  C   UNL d   1      43.645 -15.249  36.619  0.00  0.00     0.000 A 
ATOM     25  C   UNL d   1      45.094 -15.035  36.948  0.00  0.00     0.002 A 
ATOM     26  C   UNL d   1      43.014 -15.775  36.687  0.00  0.00     0.000 A 
ATOM     27  C   UNL d   1      43.118 -16.498  37.071  0.00  0.00     0.000 A 
ATOM     28  C   UNL d   1      45.643 -15.508  37.343  0.00  0.00     0.020 A 
ATOM     29  C   UNL d   1      45.322 -14.299  36.658  0.00  0.00     0.000 A 
ATOM     30  C   UNL d   1      46.416 -15.247  37.447  0.00  0.00     0.002 A 
ATOM     31  C   UNL d   1      46.645 -14.511  37.156  0.00  0.00     0.000 A 
ATOM     32  C   UNL d   1      46.095 -14.035  36.760  0.00  0.00     0.000 A 
ENDBRANCH  19  20
ENDBRANCH  18  19
ENDBRANCH  17  18
ENDBRANCH   1  17
TORSDOF 9
ENDMDL
