MODEL 1
REMARK VINA RESULT:      -2.5      0.000      0.000
REMARK  6 active torsions:
REMARK  status: ('A' for Active; 'I' for Inactive)
REMARK    1  A    between atoms: C_7  and  N_1 
REMARK    2  A    between atoms: C_6  and  C_3 
REMARK       I    between atoms: N_9  and  C_6 
REMARK    3  A    between atoms: C_19  and  N_9 
REMARK    4  A    between atoms: C_10  and  C_19 
REMARK    5  A    between atoms: O_23  and  C_20 
REMARK    6  A    between atoms: C_24  and  O_23 
ROOT
ATOM      1  N   UNL d   1      31.692  17.171 -23.627  0.00  0.00    -0.276 N 
ATOM      2  C   UNL d   1      31.732  17.983 -23.642  0.00  0.00     0.181 A 
ATOM      3  C   UNL d   1      32.515  18.185 -23.488  0.00  0.00     0.126 A 
ATOM      4  C   UNL d   1      32.466  16.859 -23.460  0.00  0.00     0.152 A 
ATOM      5  S   UNL d   1      32.973  17.507 -23.375  0.00  0.00    -0.051 SA
ATOM      6  S   UNL d   1      32.679  16.054 -23.393  0.00  0.00    -0.052 SA
ATOM      7  N   UNL d   1      31.110  18.494 -23.784  0.00  0.00    -0.128 N 
ENDROOT
BRANCH   1   8
ATOM      8  C   UNL d   1      30.998  16.741 -23.757  0.00  0.00     0.067 A 
ATOM      9  C   UNL d   1      30.813  16.120 -23.269  0.00  0.00     0.020 A 
ATOM     10  C   UNL d   1      30.128  15.687 -23.387  0.00  0.00     0.026 A 
ATOM     11  C   UNL d   1      29.612  15.873 -24.005  0.00  0.00     0.100 A 
ATOM     12  C   UNL d   1      29.791  16.496 -24.500  0.00  0.00     0.026 A 
ATOM     13  C   UNL d   1      30.491  16.935 -24.375  0.00  0.00     0.020 A 
BRANCH  11  14
ATOM     14  O   UNL d   1      28.909  15.455 -24.155  0.00  0.00    -0.305 OA
BRANCH  14  15
ATOM     15  C   UNL d   1      28.304  15.453 -23.579  0.00  0.00     0.123 C 
ATOM     16  C   UNL d   1      27.507  15.460 -23.828  0.00  0.00     0.029 C 
ENDBRANCH  14  15
ENDBRANCH  11  14
ENDBRANCH   1   8
BRANCH   3  17
ATOM     17  C   UNL d   1      32.848  18.972 -23.442  0.00  0.00     0.288 C 
ATOM     18  N   UNL d   1      32.909  19.354 -22.725  0.00  0.00    -0.204 NA
ATOM     19  O   UNL d   1      33.112  19.343 -24.155  0.00  0.00    -0.265 OA
BRANCH  18  20
ATOM     20  C   UNL d   1      33.241  20.123 -22.720  0.00  0.00     0.127 C 
BRANCH  20  21
ATOM     21  C   UNL d   1      33.227  20.575 -21.997  0.00  0.00     0.119 A 
ATOM     22  O   UNL d   1      33.203  21.397 -22.026  0.00  0.00    -0.304 OA
ATOM     23  C   UNL d   1      33.195  21.664 -21.256  0.00  0.00     0.123 A 
ATOM     24  C   UNL d   1      33.213  21.044 -20.757  0.00  0.00     0.029 A 
ATOM     25  C   UNL d   1      33.234  20.350 -21.188  0.00  0.00     0.028 A 
ENDBRANCH  20  21
ENDBRANCH  18  20
ENDBRANCH   3  17
TORSDOF 6
ENDMDL
MODEL 2
REMARK VINA RESULT:      -2.2      1.254      1.554
REMARK  6 active torsions:
REMARK  status: ('A' for Active; 'I' for Inactive)
REMARK    1  A    between atoms: C_7  and  N_1 
REMARK    2  A    between atoms: C_6  and  C_3 
REMARK       I    between atoms: N_9  and  C_6 
REMARK    3  A    between atoms: C_19  and  N_9 
REMARK    4  A    between atoms: C_10  and  C_19 
REMARK    5  A    between atoms: O_23  and  C_20 
REMARK    6  A    between atoms: C_24  and  O_23 
ROOT
ATOM      1  N   UNL d   1      32.145  18.239 -23.928  0.00  0.00    -0.276 N 
ATOM      2  C   UNL d   1      32.114  18.582 -23.192  0.00  0.00     0.181 A 
ATOM      3  C   UNL d   1      32.781  19.060 -23.124  0.00  0.00     0.126 A 
ATOM      4  C   UNL d   1      32.847  18.506 -24.329  0.00  0.00     0.152 A 
ATOM      5  S   UNL d   1      33.236  19.022 -23.813  0.00  0.00    -0.051 SA
ATOM      6  S   UNL d   1      33.098  18.293 -25.097  0.00  0.00    -0.052 SA
ATOM      7  N   UNL d   1      31.529  18.471 -22.632  0.00  0.00    -0.128 N 
ENDROOT
BRANCH   1   8
ATOM      8  C   UNL d   1      31.574  17.716 -24.217  0.00  0.00     0.067 A 
ATOM      9  C   UNL d   1      31.627  16.926 -24.040  0.00  0.00     0.020 A 
ATOM     10  C   UNL d   1      31.067  16.397 -24.321  0.00  0.00     0.026 A 
ATOM     11  C   UNL d   1      30.437  16.658 -24.789  0.00  0.00     0.100 A 
ATOM     12  C   UNL d   1      30.378  17.451 -24.971  0.00  0.00     0.026 A 
ATOM     13  C   UNL d   1      30.951  17.986 -24.682  0.00  0.00     0.020 A 
BRANCH  11  14
ATOM     14  O   UNL d   1      29.852  16.151 -25.090  0.00  0.00    -0.305 OA
BRANCH  14  15
ATOM     15  C   UNL d   1      29.073  16.203 -24.793  0.00  0.00     0.123 C 
ATOM     16  C   UNL d   1      28.494  15.675 -25.082  0.00  0.00     0.029 C 
ENDBRANCH  14  15
ENDBRANCH  11  14
ENDBRANCH   1   8
BRANCH   3  17
ATOM     17  C   UNL d   1      33.008  19.542 -22.455  0.00  0.00     0.288 C 
ATOM     18  N   UNL d   1      33.000  20.356 -22.511  0.00  0.00    -0.204 NA
ATOM     19  O   UNL d   1      33.241  19.159 -21.738  0.00  0.00    -0.265 OA
BRANCH  18  20
ATOM     20  C   UNL d   1      33.229  20.794 -21.834  0.00  0.00     0.127 C 
BRANCH  20  21
ATOM     21  C   UNL d   1      32.962  21.600 -21.755  0.00  0.00     0.119 A 
ATOM     22  O   UNL d   1      32.411  21.795 -21.176  0.00  0.00    -0.304 OA
ATOM     23  C   UNL d   1      32.270  22.595 -21.239  0.00  0.00     0.123 A 
ATOM     24  C   UNL d   1      32.709  22.900 -21.829  0.00  0.00     0.029 A 
ATOM     25  C   UNL d   1      33.153  22.303 -22.171  0.00  0.00     0.028 A 
ENDBRANCH  20  21
ENDBRANCH  18  20
ENDBRANCH   3  17
TORSDOF 6
ENDMDL
MODEL 3
REMARK VINA RESULT:      -1.4      1.239      5.475
REMARK  6 active torsions:
REMARK  status: ('A' for Active; 'I' for Inactive)
REMARK    1  A    between atoms: C_7  and  N_1 
REMARK    2  A    between atoms: C_6  and  C_3 
REMARK       I    between atoms: N_9  and  C_6 
REMARK    3  A    between atoms: C_19  and  N_9 
REMARK    4  A    between atoms: C_10  and  C_19 
REMARK    5  A    between atoms: O_23  and  C_20 
REMARK    6  A    between atoms: C_24  and  O_23 
ROOT
ATOM      1  N   UNL d   1      32.943  19.679 -23.270  0.00  0.00    -0.276 N 
ATOM      2  C   UNL d   1      32.773  18.917 -23.041  0.00  0.00     0.181 A 
ATOM      3  C   UNL d   1      32.748  18.463 -23.726  0.00  0.00     0.126 A 
ATOM      4  C   UNL d   1      33.026  19.701 -24.117  0.00  0.00     0.152 A 
ATOM      5  S   UNL d   1      32.902  18.930 -24.390  0.00  0.00    -0.051 SA
ATOM      6  S   UNL d   1      33.201  20.369 -24.587  0.00  0.00    -0.052 SA
ATOM      7  N   UNL d   1      32.651  18.660 -22.275  0.00  0.00    -0.128 N 
ENDROOT
BRANCH   1   8
ATOM      8  C   UNL d   1      33.017  20.313 -22.744  0.00  0.00     0.067 A 
ATOM      9  C   UNL d   1      33.115  21.064 -23.034  0.00  0.00     0.020 A 
ATOM     10  C   UNL d   1      33.190  21.700 -22.523  0.00  0.00     0.026 A 
ATOM     11  C   UNL d   1      33.168  21.590 -21.704  0.00  0.00     0.100 A 
ATOM     12  C   UNL d   1      33.070  20.837 -21.407  0.00  0.00     0.026 A 
ATOM     13  C   UNL d   1      32.994  20.191 -21.931  0.00  0.00     0.020 A 
BRANCH  11  14
ATOM     14  O   UNL d   1      33.241  22.211 -21.157  0.00  0.00    -0.305 OA
BRANCH  14  15
ATOM     15  C   UNL d   1      32.713  22.857 -21.199  0.00  0.00     0.123 C 
ATOM     16  C   UNL d   1      32.623  23.350 -20.531  0.00  0.00     0.029 C 
ENDBRANCH  14  15
ENDBRANCH  11  14
ENDBRANCH   1   8
BRANCH   3  17
ATOM     17  C   UNL d   1      32.590  17.624 -23.787  0.00  0.00     0.288 C 
ATOM     18  N   UNL d   1      31.826  17.343 -23.746  0.00  0.00    -0.204 NA
ATOM     19  O   UNL d   1      33.241  17.094 -23.892  0.00  0.00    -0.265 OA
BRANCH  18  20
ATOM     20  C   UNL d   1      31.711  16.516 -23.810  0.00  0.00     0.127 C 
BRANCH  20  21
ATOM     21  C   UNL d   1      30.938  16.221 -24.017  0.00  0.00     0.119 A 
ATOM     22  O   UNL d   1      30.794  15.946 -24.779  0.00  0.00    -0.304 OA
ATOM     23  C   UNL d   1      30.016  15.705 -24.804  0.00  0.00     0.123 A 
ATOM     24  C   UNL d   1      29.677  15.819 -24.094  0.00  0.00     0.029 A 
ATOM     25  C   UNL d   1      30.227  16.140 -23.580  0.00  0.00     0.028 A 
ENDBRANCH  20  21
ENDBRANCH  18  20
ENDBRANCH   3  17
TORSDOF 6
ENDMDL
MODEL 4
REMARK VINA RESULT:      -1.3      1.844      5.862
REMARK  6 active torsions:
REMARK  status: ('A' for Active; 'I' for Inactive)
REMARK    1  A    between atoms: C_7  and  N_1 
REMARK    2  A    between atoms: C_6  and  C_3 
REMARK       I    between atoms: N_9  and  C_6 
REMARK    3  A    between atoms: C_19  and  N_9 
REMARK    4  A    between atoms: C_10  and  C_19 
REMARK    5  A    between atoms: O_23  and  C_20 
REMARK    6  A    between atoms: C_24  and  O_23 
ROOT
ATOM      1  N   UNL d   1      32.902  20.925 -22.225  0.00  0.00    -0.276 N 
ATOM      2  C   UNL d   1      32.794  20.124 -22.134  0.00  0.00     0.181 A 
ATOM      3  C   UNL d   1      32.908  19.783 -22.874  0.00  0.00     0.126 A 
ATOM      4  C   UNL d   1      33.088  21.088 -23.040  0.00  0.00     0.152 A 
ATOM      5  S   UNL d   1      33.088  20.361 -23.436  0.00  0.00    -0.051 SA
ATOM      6  S   UNL d   1      33.241  21.835 -23.380  0.00  0.00    -0.052 SA
ATOM      7  N   UNL d   1      32.607  19.739 -21.437  0.00  0.00    -0.128 N 
ENDROOT
BRANCH   1   8
ATOM      8  C   UNL d   1      32.836  21.472 -21.609  0.00  0.00     0.067 A 
ATOM      9  C   UNL d   1      33.079  21.267 -20.863  0.00  0.00     0.020 A 
ATOM     10  C   UNL d   1      33.019  21.801 -20.244  0.00  0.00     0.026 A 
ATOM     11  C   UNL d   1      32.710  22.558 -20.368  0.00  0.00     0.100 A 
ATOM     12  C   UNL d   1      32.465  22.770 -21.116  0.00  0.00     0.026 A 
ATOM     13  C   UNL d   1      32.528  22.223 -21.743  0.00  0.00     0.020 A 
BRANCH  11  14
ATOM     14  O   UNL d   1      32.635  23.125 -19.764  0.00  0.00    -0.305 OA
BRANCH  14  15
ATOM     15  C   UNL d   1      33.093  23.047 -19.070  0.00  0.00     0.123 C 
ATOM     16  C   UNL d   1      32.824  23.404 -18.365  0.00  0.00     0.029 C 
ENDBRANCH  14  15
ENDBRANCH  11  14
ENDBRANCH   1   8
BRANCH   3  17
ATOM     17  C   UNL d   1      32.857  18.953 -23.076  0.00  0.00     0.288 C 
ATOM     18  N   UNL d   1      32.449  18.714 -23.741  0.00  0.00    -0.204 NA
ATOM     19  O   UNL d   1      33.236  18.388 -22.574  0.00  0.00    -0.265 OA
BRANCH  18  20
ATOM     20  C   UNL d   1      32.422  17.893 -23.906  0.00  0.00     0.127 C 
BRANCH  20  21
ATOM     21  C   UNL d   1      31.708  17.561 -24.233  0.00  0.00     0.119 A 
ATOM     22  O   UNL d   1      31.394  16.869 -23.918  0.00  0.00    -0.304 OA
ATOM     23  C   UNL d   1      30.721  16.695 -24.342  0.00  0.00     0.123 A 
ATOM     24  C   UNL d   1      30.606  17.249 -24.903  0.00  0.00     0.029 A 
ATOM     25  C   UNL d   1      31.206  17.804 -24.861  0.00  0.00     0.028 A 
ENDBRANCH  20  21
ENDBRANCH  18  20
ENDBRANCH   3  17
TORSDOF 6
ENDMDL
MODEL 5
REMARK VINA RESULT:      -0.0      1.898      2.742
REMARK  6 active torsions:
REMARK  status: ('A' for Active; 'I' for Inactive)
REMARK    1  A    between atoms: C_7  and  N_1 
REMARK    2  A    between atoms: C_6  and  C_3 
REMARK       I    between atoms: N_9  and  C_6 
REMARK    3  A    between atoms: C_19  and  N_9 
REMARK    4  A    between atoms: C_10  and  C_19 
REMARK    5  A    between atoms: O_23  and  C_20 
REMARK    6  A    between atoms: C_24  and  O_23 
ROOT
ATOM      1  N   UNL d   1      32.868  19.051 -22.893  0.00  0.00    -0.276 N 
ATOM      2  C   UNL d   1      32.835  19.837 -23.098  0.00  0.00     0.181 A 
ATOM      3  C   UNL d   1      33.052  20.266 -22.430  0.00  0.00     0.126 A 
ATOM      4  C   UNL d   1      33.112  18.987 -22.080  0.00  0.00     0.152 A 
ATOM      5  S   UNL d   1      33.224  19.758 -21.802  0.00  0.00    -0.051 SA
ATOM      6  S   UNL d   1      33.219  18.284 -21.642  0.00  0.00    -0.052 SA
ATOM      7  N   UNL d   1      32.624  20.136 -23.829  0.00  0.00    -0.128 N 
ENDROOT
BRANCH   1   8
ATOM      8  C   UNL d   1      32.688  18.432 -23.410  0.00  0.00     0.067 A 
ATOM      9  C   UNL d   1      33.069  18.382 -24.124  0.00  0.00     0.020 A 
ATOM     10  C   UNL d   1      32.900  17.773 -24.646  0.00  0.00     0.026 A 
ATOM     11  C   UNL d   1      32.339  17.197 -24.454  0.00  0.00     0.100 A 
ATOM     12  C   UNL d   1      31.952  17.241 -23.738  0.00  0.00     0.026 A 
ATOM     13  C   UNL d   1      32.127  17.864 -23.210  0.00  0.00     0.020 A 
BRANCH  11  14
ATOM     14  O   UNL d   1      32.142  16.566 -24.958  0.00  0.00    -0.305 OA
BRANCH  14  15
ATOM     15  C   UNL d   1      31.359  16.277 -24.966  0.00  0.00     0.123 C 
ATOM     16  C   UNL d   1      31.230  15.460 -25.084  0.00  0.00     0.029 C 
ENDBRANCH  14  15
ENDBRANCH  11  14
ENDBRANCH   1   8
BRANCH   3  17
ATOM     17  C   UNL d   1      33.107  21.117 -22.355  0.00  0.00     0.288 C 
ATOM     18  N   UNL d   1      33.099  21.468 -21.619  0.00  0.00    -0.204 NA
ATOM     19  O   UNL d   1      33.167  21.584 -23.057  0.00  0.00    -0.265 OA
BRANCH  18  20
ATOM     20  C   UNL d   1      33.154  22.304 -21.586  0.00  0.00     0.127 C 
BRANCH  20  21
ATOM     21  C   UNL d   1      32.823  22.713 -20.915  0.00  0.00     0.119 A 
ATOM     22  O   UNL d   1      32.364  23.386 -21.030  0.00  0.00    -0.304 OA
ATOM     23  C   UNL d   1      32.131  23.646 -20.294  0.00  0.00     0.123 A 
ATOM     24  C   UNL d   1      32.426  23.164 -19.733  0.00  0.00     0.029 A 
ATOM     25  C   UNL d   1      32.863  22.571 -20.089  0.00  0.00     0.028 A 
ENDBRANCH  20  21
ENDBRANCH  18  20
ENDBRANCH   3  17
TORSDOF 6
ENDMDL
MODEL 6
REMARK VINA RESULT:       0.1      3.587      5.704
REMARK  6 active torsions:
REMARK  status: ('A' for Active; 'I' for Inactive)
REMARK    1  A    between atoms: C_7  and  N_1 
REMARK    2  A    between atoms: C_6  and  C_3 
REMARK       I    between atoms: N_9  and  C_6 
REMARK    3  A    between atoms: C_19  and  N_9 
REMARK    4  A    between atoms: C_10  and  C_19 
REMARK    5  A    between atoms: O_23  and  C_20 
REMARK    6  A    between atoms: C_24  and  O_23 
ROOT
ATOM      1  N   UNL d   1      32.548  22.088 -21.154  0.00  0.00    -0.276 N 
ATOM      2  C   UNL d   1      32.431  22.156 -20.352  0.00  0.00     0.181 A 
ATOM      3  C   UNL d   1      32.325  22.956 -20.194  0.00  0.00     0.126 A 
ATOM      4  C   UNL d   1      32.514  22.863 -21.505  0.00  0.00     0.152 A 
ATOM      5  S   UNL d   1      32.373  23.399 -20.890  0.00  0.00    -0.051 SA
ATOM      6  S   UNL d   1      32.604  23.052 -22.313  0.00  0.00    -0.052 SA
ATOM      7  N   UNL d   1      32.423  21.542 -19.812  0.00  0.00    -0.128 N 
ENDROOT
BRANCH   1   8
ATOM      8  C   UNL d   1      32.677  21.370 -21.542  0.00  0.00     0.067 A 
ATOM      9  C   UNL d   1      33.106  21.357 -22.230  0.00  0.00     0.020 A 
ATOM     10  C   UNL d   1      33.241  20.651 -22.624  0.00  0.00     0.026 A 
ATOM     11  C   UNL d   1      32.942  19.939 -22.328  0.00  0.00     0.100 A 
ATOM     12  C   UNL d   1      32.510  19.945 -21.637  0.00  0.00     0.026 A 
ATOM     13  C   UNL d   1      32.375  20.667 -21.239  0.00  0.00     0.020 A 
BRANCH  11  14
ATOM     14  O   UNL d   1      33.059  19.205 -22.701  0.00  0.00    -0.305 OA
BRANCH  14  15
ATOM     15  C   UNL d   1      32.597  19.007 -23.368  0.00  0.00     0.123 C 
ATOM     16  C   UNL d   1      32.778  18.311 -23.793  0.00  0.00     0.029 C 
ENDBRANCH  14  15
ENDBRANCH  11  14
ENDBRANCH   1   8
BRANCH   3  17
ATOM     17  C   UNL d   1      32.183  23.321 -19.432  0.00  0.00     0.288 C 
ATOM     18  N   UNL d   1      32.754  23.300 -18.851  0.00  0.00    -0.204 NA
ATOM     19  O   UNL d   1      31.440  23.702 -19.297  0.00  0.00    -0.265 OA
BRANCH  18  20
ATOM     20  C   UNL d   1      32.578  23.668 -18.119  0.00  0.00     0.127 C 
BRANCH  20  21
ATOM     21  C   UNL d   1      32.816  23.284 -17.396  0.00  0.00     0.119 A 
ATOM     22  O   UNL d   1      32.759  23.684 -16.680  0.00  0.00    -0.304 OA
ATOM     23  C   UNL d   1      33.024  23.177 -16.100  0.00  0.00     0.123 A 
ATOM     24  C   UNL d   1      33.241  22.485 -16.427  0.00  0.00     0.029 A 
ATOM     25  C   UNL d   1      33.123  22.519 -17.235  0.00  0.00     0.028 A 
ENDBRANCH  20  21
ENDBRANCH  18  20
ENDBRANCH   3  17
TORSDOF 6
ENDMDL
