MODEL 1
REMARK VINA RESULT:      -7.6      0.000      0.000
REMARK  5 active torsions:
REMARK  status: ('A' for Active; 'I' for Inactive)
REMARK    1  A    between atoms: C_12  and  N_1 
REMARK    2  A    between atoms: C_6  and  C_5 
REMARK    3  A    between atoms: C_7  and  C_6 
REMARK       I    between atoms: N_9  and  C_7 
REMARK    4  A    between atoms: C_13  and  N_9 
REMARK    5  A    between atoms: C_16  and  C_12 
ROOT
ATOM      1  N   UNL d   1      53.052  30.026  53.591  0.00  0.00    -0.235 N 
ATOM      2  C   UNL d   1      52.277  30.242  53.399  0.00  0.00     0.298 A 
ATOM      3  C   UNL d   1      53.549  30.652  53.422  0.00  0.00     0.274 A 
ATOM      4  S   UNL d   1      52.300  31.015  53.106  0.00  0.00    -0.022 SA
ATOM      5  C   UNL d   1      53.084  31.268  53.120  0.00  0.00     0.095 A 
ATOM      6  O   UNL d   1      51.598  29.779  53.480  0.00  0.00    -0.259 OA
ATOM      7  O   UNL d   1      54.359  30.670  53.529  0.00  0.00    -0.266 OA
ENDROOT
BRANCH   5   8
ATOM      8  C   UNL d   1      53.360  32.009  52.875  0.00  0.00     0.074 C 
BRANCH   8   9
ATOM      9  C   UNL d   1      53.103  32.692  53.262  0.00  0.00     0.280 C 
ATOM     10  N   UNL d   1      53.636  33.299  53.427  0.00  0.00    -0.208 NA
ATOM     11  O   UNL d   1      52.308  32.767  53.485  0.00  0.00    -0.265 OA
BRANCH  10  12
ATOM     12  C   UNL d   1      53.377  33.979  53.812  0.00  0.00     0.085 A 
ATOM     13  C   UNL d   1      52.990  34.572  53.392  0.00  0.00     0.019 A 
ATOM     14  C   UNL d   1      52.731  35.254  53.780  0.00  0.00     0.002 A 
ATOM     15  C   UNL d   1      52.860  35.341  54.591  0.00  0.00     0.000 A 
ATOM     16  C   UNL d   1      53.250  34.743  55.013  0.00  0.00     0.002 A 
ATOM     17  C   UNL d   1      53.504  34.068  54.619  0.00  0.00     0.019 A 
ENDBRANCH  10  12
ENDBRANCH   8   9
ENDBRANCH   5   8
BRANCH   1  18
ATOM     18  C   UNL d   1      53.280  29.300  53.901  0.00  0.00     0.086 C 
BRANCH  18  19
ATOM     19  C   UNL d   1      53.271  29.166  54.713  0.00  0.00     0.019 C 
ATOM     20  C   UNL d   1      53.517  28.444  55.015  0.00  0.00     0.002 C 
ENDBRANCH  18  19
ENDBRANCH   1  18
TORSDOF 5
ENDMDL
MODEL 2
REMARK VINA RESULT:      -7.5      1.459      1.677
REMARK  5 active torsions:
REMARK  status: ('A' for Active; 'I' for Inactive)
REMARK    1  A    between atoms: C_12  and  N_1 
REMARK    2  A    between atoms: C_6  and  C_5 
REMARK    3  A    between atoms: C_7  and  C_6 
REMARK       I    between atoms: N_9  and  C_7 
REMARK    4  A    between atoms: C_13  and  N_9 
REMARK    5  A    between atoms: C_16  and  C_12 
ROOT
ATOM      1  N   UNL d   1      53.377  30.156  53.763  0.00  0.00    -0.235 N 
ATOM      2  C   UNL d   1      52.871  30.087  53.113  0.00  0.00     0.298 A 
ATOM      3  C   UNL d   1      53.563  30.944  53.869  0.00  0.00     0.274 A 
ATOM      4  S   UNL d   1      52.744  30.848  52.816  0.00  0.00    -0.022 SA
ATOM      5  C   UNL d   1      53.171  31.376  53.282  0.00  0.00     0.095 A 
ATOM      6  O   UNL d   1      52.546  29.392  52.808  0.00  0.00    -0.259 OA
ATOM      7  O   UNL d   1      54.048  31.254  54.451  0.00  0.00    -0.266 OA
ENDROOT
BRANCH   5   8
ATOM      8  C   UNL d   1      53.202  32.198  53.181  0.00  0.00     0.074 C 
BRANCH   8   9
ATOM      9  C   UNL d   1      52.538  32.603  52.903  0.00  0.00     0.280 C 
ATOM     10  N   UNL d   1      52.246  33.252  53.319  0.00  0.00    -0.208 NA
ATOM     11  O   UNL d   1      52.166  32.358  52.204  0.00  0.00    -0.265 OA
BRANCH  10  12
ATOM     12  C   UNL d   1      51.585  33.655  53.040  0.00  0.00     0.085 A 
ATOM     13  C   UNL d   1      51.649  34.158  52.392  0.00  0.00     0.019 A 
ATOM     14  C   UNL d   1      50.984  34.561  52.112  0.00  0.00     0.002 A 
ATOM     15  C   UNL d   1      50.254  34.460  52.484  0.00  0.00     0.000 A 
ATOM     16  C   UNL d   1      50.191  33.953  53.137  0.00  0.00     0.002 A 
ATOM     17  C   UNL d   1      50.856  33.555  53.409  0.00  0.00     0.019 A 
ENDBRANCH  10  12
ENDBRANCH   8   9
ENDBRANCH   5   8
BRANCH   1  18
ATOM     18  C   UNL d   1      53.648  29.531  54.224  0.00  0.00     0.086 C 
BRANCH  18  19
ATOM     19  C   UNL d   1      53.141  29.135  54.737  0.00  0.00     0.019 C 
ATOM     20  C   UNL d   1      53.426  28.532  55.215  0.00  0.00     0.002 C 
ENDBRANCH  18  19
ENDBRANCH   1  18
TORSDOF 5
ENDMDL
MODEL 3
REMARK VINA RESULT:      -6.8      1.441      4.403
REMARK  5 active torsions:
REMARK  status: ('A' for Active; 'I' for Inactive)
REMARK    1  A    between atoms: C_12  and  N_1 
REMARK    2  A    between atoms: C_6  and  C_5 
REMARK    3  A    between atoms: C_7  and  C_6 
REMARK       I    between atoms: N_9  and  C_7 
REMARK    4  A    between atoms: C_13  and  N_9 
REMARK    5  A    between atoms: C_16  and  C_12 
ROOT
ATOM      1  N   UNL d   1      52.217  34.010  53.276  0.00  0.00    -0.235 N 
ATOM      2  C   UNL d   1      52.621  34.120  53.988  0.00  0.00     0.298 A 
ATOM      3  C   UNL d   1      52.544  33.373  52.883  0.00  0.00     0.274 A 
ATOM      4  S   UNL d   1      53.207  33.539  54.033  0.00  0.00    -0.022 SA
ATOM      5  C   UNL d   1      53.160  33.078  53.352  0.00  0.00     0.095 A 
ATOM      6  O   UNL d   1      52.475  34.700  54.558  0.00  0.00    -0.259 OA
ATOM      7  O   UNL d   1      52.308  33.077  52.158  0.00  0.00    -0.266 OA
ENDROOT
BRANCH   5   8
ATOM      8  C   UNL d   1      53.645  32.432  53.167  0.00  0.00     0.074 C 
BRANCH   8   9
ATOM      9  C   UNL d   1      53.532  31.711  53.552  0.00  0.00     0.280 C 
ATOM     10  N   UNL d   1      53.456  31.016  53.114  0.00  0.00    -0.208 NA
ATOM     11  O   UNL d   1      53.494  31.684  54.380  0.00  0.00    -0.265 OA
BRANCH  10  12
ATOM     12  C   UNL d   1      53.344  30.298  53.499  0.00  0.00     0.085 A 
ATOM     13  C   UNL d   1      53.948  29.972  53.953  0.00  0.00     0.019 A 
ATOM     14  C   UNL d   1      53.834  29.251  54.340  0.00  0.00     0.002 A 
ATOM     15  C   UNL d   1      53.112  28.856  54.271  0.00  0.00     0.000 A 
ATOM     16  C   UNL d   1      52.504  29.185  53.813  0.00  0.00     0.002 A 
ATOM     17  C   UNL d   1      52.626  29.903  53.432  0.00  0.00     0.019 A 
ENDBRANCH  10  12
ENDBRANCH   8   9
ENDBRANCH   5   8
BRANCH   1  18
ATOM     18  C   UNL d   1      51.589  34.469  53.009  0.00  0.00     0.086 C 
BRANCH  18  19
ATOM     19  C   UNL d   1      50.815  34.195  53.059  0.00  0.00     0.019 C 
ATOM     20  C   UNL d   1      50.198  34.638  52.748  0.00  0.00     0.002 C 
ENDBRANCH  18  19
ENDBRANCH   1  18
TORSDOF 5
ENDMDL
MODEL 4
REMARK VINA RESULT:      -6.8      2.765      4.123
REMARK  5 active torsions:
REMARK  status: ('A' for Active; 'I' for Inactive)
REMARK    1  A    between atoms: C_12  and  N_1 
REMARK    2  A    between atoms: C_6  and  C_5 
REMARK    3  A    between atoms: C_7  and  C_6 
REMARK       I    between atoms: N_9  and  C_7 
REMARK    4  A    between atoms: C_13  and  N_9 
REMARK    5  A    between atoms: C_16  and  C_12 
ROOT
ATOM      1  N   UNL d   1      53.294  34.113  54.411  0.00  0.00    -0.235 N 
ATOM      2  C   UNL d   1      53.075  34.865  54.150  0.00  0.00     0.298 A 
ATOM      3  C   UNL d   1      52.862  33.555  54.000  0.00  0.00     0.274 A 
ATOM      4  S   UNL d   1      52.497  34.767  53.567  0.00  0.00    -0.022 SA
ATOM      5  C   UNL d   1      52.365  33.959  53.474  0.00  0.00     0.095 A 
ATOM      6  O   UNL d   1      53.371  35.589  54.415  0.00  0.00    -0.259 OA
ATOM      7  O   UNL d   1      52.909  32.743  54.088  0.00  0.00    -0.266 OA
ENDROOT
BRANCH   5   8
ATOM      8  C   UNL d   1      51.830  33.611  52.946  0.00  0.00     0.074 C 
BRANCH   8   9
ATOM      9  C   UNL d   1      51.218  34.062  52.625  0.00  0.00     0.280 C 
ATOM     10  N   UNL d   1      50.435  33.904  52.831  0.00  0.00    -0.208 NA
ATOM     11  O   UNL d   1      51.390  34.674  52.093  0.00  0.00    -0.265 OA
BRANCH  10  12
ATOM     12  C   UNL d   1      49.827  34.355  52.509  0.00  0.00     0.085 A 
ATOM     13  C   UNL d   1      49.596  34.241  51.727  0.00  0.00     0.019 A 
ATOM     14  C   UNL d   1      48.985  34.695  51.405  0.00  0.00     0.002 A 
ATOM     15  C   UNL d   1      48.605  35.263  51.868  0.00  0.00     0.000 A 
ATOM     16  C   UNL d   1      48.839  35.377  52.656  0.00  0.00     0.002 A 
ATOM     17  C   UNL d   1      49.447  34.921  52.968  0.00  0.00     0.019 A 
ENDBRANCH  10  12
ENDBRANCH   8   9
ENDBRANCH   5   8
BRANCH   1  18
ATOM     18  C   UNL d   1      53.855  33.955  54.990  0.00  0.00     0.086 C 
BRANCH  18  19
ATOM     19  C   UNL d   1      54.625  33.750  54.787  0.00  0.00     0.019 C 
ATOM     20  C   UNL d   1      55.196  33.657  55.370  0.00  0.00     0.002 C 
ENDBRANCH  18  19
ENDBRANCH   1  18
TORSDOF 5
ENDMDL
MODEL 5
REMARK VINA RESULT:      -6.7      2.734      4.183
REMARK  5 active torsions:
REMARK  status: ('A' for Active; 'I' for Inactive)
REMARK    1  A    between atoms: C_12  and  N_1 
REMARK    2  A    between atoms: C_6  and  C_5 
REMARK    3  A    between atoms: C_7  and  C_6 
REMARK       I    between atoms: N_9  and  C_7 
REMARK    4  A    between atoms: C_13  and  N_9 
REMARK    5  A    between atoms: C_16  and  C_12 
ROOT
ATOM      1  N   UNL d   1      50.416  34.382  52.293  0.00  0.00    -0.235 N 
ATOM      2  C   UNL d   1      50.373  34.274  53.111  0.00  0.00     0.298 A 
ATOM      3  C   UNL d   1      51.113  34.053  52.020  0.00  0.00     0.274 A 
ATOM      4  S   UNL d   1      51.057  33.871  53.344  0.00  0.00    -0.022 SA
ATOM      5  C   UNL d   1      51.513  33.735  52.671  0.00  0.00     0.095 A 
ATOM      6  O   UNL d   1      49.766  34.518  53.613  0.00  0.00    -0.259 OA
ATOM      7  O   UNL d   1      51.371  34.040  51.244  0.00  0.00    -0.266 OA
ENDROOT
BRANCH   5   8
ATOM      8  C   UNL d   1      52.245  33.348  52.650  0.00  0.00     0.074 C 
BRANCH   8   9
ATOM      9  C   UNL d   1      52.819  33.523  53.217  0.00  0.00     0.280 C 
ATOM     10  N   UNL d   1      53.298  32.924  53.519  0.00  0.00    -0.208 NA
ATOM     11  O   UNL d   1      52.915  34.303  53.483  0.00  0.00    -0.265 OA
BRANCH  10  12
ATOM     12  C   UNL d   1      53.870  33.100  54.084  0.00  0.00     0.085 A 
ATOM     13  C   UNL d   1      54.612  33.371  53.851  0.00  0.00     0.019 A 
ATOM     14  C   UNL d   1      55.185  33.548  54.420  0.00  0.00     0.002 A 
ATOM     15  C   UNL d   1      55.014  33.454  55.222  0.00  0.00     0.000 A 
ATOM     16  C   UNL d   1      54.266  33.181  55.454  0.00  0.00     0.002 A 
ATOM     17  C   UNL d   1      53.701  33.007  54.883  0.00  0.00     0.019 A 
ENDBRANCH  10  12
ENDBRANCH   8   9
ENDBRANCH   5   8
BRANCH   1  18
ATOM     18  C   UNL d   1      49.849  34.758  51.832  0.00  0.00     0.086 C 
BRANCH  18  19
ATOM     19  C   UNL d   1      49.230  34.334  51.496  0.00  0.00     0.019 C 
ATOM     20  C   UNL d   1      48.680  34.714  51.019  0.00  0.00     0.002 C 
ENDBRANCH  18  19
ENDBRANCH   1  18
TORSDOF 5
ENDMDL
