MODEL 1
REMARK VINA RESULT:      25.0      0.000      0.000
REMARK  4 active torsions:
REMARK  status: ('A' for Active; 'I' for Inactive)
REMARK    1  A    between atoms: C_15  and  N_5 
REMARK    2  A    between atoms: N_13  and  C_7 
REMARK    3  A    between atoms: C_18  and  N_13 
REMARK    4  A    between atoms: C_16  and  C_15 
ROOT
ATOM      1  N   UNL d   1      46.288 -17.805  43.630  0.00  0.00     0.039 N 
ATOM      2  C   UNL d   1      46.335 -18.339  44.255  0.00  0.00     0.755 A 
ATOM      3  C   UNL d   1      46.350 -18.053  42.856  0.00  0.00     0.134 A 
ATOM      4  C   UNL d   1      46.461 -18.856  42.687  0.00  0.00     0.081 A 
ATOM      5  N   UNL d   1      46.446 -19.146  44.088  0.00  0.00    -0.103 N 
ATOM      6  C   UNL d   1      46.509 -19.403  43.303  0.00  0.00     0.281 A 
ATOM      7  C   UNL d   1      46.179 -17.059  43.957  0.00  0.00     0.768 A 
ATOM      8  N   UNL d   1      46.254 -17.925  44.955  0.00  0.00     0.060 NA
ATOM      9  S   UNL d   1      46.324 -17.649  42.140  0.00  0.00    -0.068 SA
ATOM     10  N   UNL d   1      46.158 -17.133  44.773  0.00  0.00     0.061 NA
ATOM     11  C   UNL d   1      46.504 -18.946  41.868  0.00  0.00     0.013 A 
ATOM     12  C   UNL d   1      46.419 -18.200  41.530  0.00  0.00     0.031 A 
ATOM     13  O   UNL d   1      46.621 -20.205  43.134  0.00  0.00    -0.266 OA
ATOM     14  C   UNL d   1      46.608 -19.606  41.390  0.00  0.00     0.001 A 
ATOM     15  C   UNL d   1      46.437 -18.106  40.710  0.00  0.00     0.006 A 
ATOM     16  C   UNL d   1      46.627 -19.520  40.572  0.00  0.00     0.000 A 
ATOM     17  C   UNL d   1      46.542 -18.766  40.230  0.00  0.00     0.001 A 
ENDROOT
BRANCH   7  18
ATOM     18  N   UNL d   1      46.102 -16.351  43.532  0.00  0.00    -0.059 NA
BRANCH  18  19
ATOM     19  C   UNL d   1      45.779 -15.677  43.894  0.00  0.00     0.100 A 
ATOM     20  C   UNL d   1      46.154 -14.944  43.796  0.00  0.00     0.020 A 
ATOM     21  C   UNL d   1      45.837 -14.269  44.155  0.00  0.00     0.002 A 
ATOM     22  C   UNL d   1      45.147 -14.333  44.609  0.00  0.00     0.000 A 
ATOM     23  C   UNL d   1      44.772 -15.070  44.705  0.00  0.00     0.002 A 
ATOM     24  C   UNL d   1      45.096 -15.744  44.343  0.00  0.00     0.020 A 
ENDBRANCH  18  19
ENDBRANCH   7  18
BRANCH   5  25
ATOM     25  C   UNL d   1      46.494 -19.689  44.702  0.00  0.00     0.101 C 
BRANCH  25  26
ATOM     26  C   UNL d   1      45.977 -20.329  44.732  0.00  0.00     0.020 C 
ATOM     27  C   UNL d   1      45.190 -20.222  44.948  0.00  0.00     0.002 C 
ENDBRANCH  25  26
ENDBRANCH   5  25
TORSDOF 4
ENDMDL
