MODEL 1
REMARK VINA RESULT:       6.1      0.000      0.000
REMARK  0 active torsions:
REMARK  status: ('A' for Active; 'I' for Inactive)
ROOT
ATOM      1  N   UNL d   1      59.914  49.703  51.740  0.00  0.00    -0.219 NA
ATOM      2  C   UNL d   1      60.738  49.704  51.641  0.00  0.00     0.215 A 
ATOM      3  S   UNL d   1      60.897  49.706  50.826  0.00  0.00    -0.045 SA
ATOM      4  C   UNL d   1      59.565  49.705  50.991  0.00  0.00     0.090 A 
ATOM      5  C   UNL d   1      60.169  49.707  50.428  0.00  0.00     0.058 A 
ATOM      6  N   UNL d   1      61.306  49.703  52.238  0.00  0.00    -0.120 N 
ATOM      7  C   UNL d   1      58.758  49.704  50.841  0.00  0.00     0.021 C 
ENDROOT
TORSDOF 0
ENDMDL
MODEL 2
REMARK VINA RESULT:       6.2      0.782      1.769
REMARK  0 active torsions:
REMARK  status: ('A' for Active; 'I' for Inactive)
ROOT
ATOM      1  N   UNL d   1      59.938  49.703  51.674  0.00  0.00    -0.219 NA
ATOM      2  C   UNL d   1      59.587  49.704  50.922  0.00  0.00     0.215 A 
ATOM      3  S   UNL d   1      60.196  49.707  50.357  0.00  0.00    -0.045 SA
ATOM      4  C   UNL d   1      60.759  49.706  51.575  0.00  0.00     0.090 A 
ATOM      5  C   UNL d   1      60.918  49.708  50.765  0.00  0.00     0.058 A 
ATOM      6  N   UNL d   1      58.781  49.702  50.754  0.00  0.00    -0.120 N 
ATOM      7  C   UNL d   1      61.311  49.706  52.182  0.00  0.00     0.021 C 
ENDROOT
TORSDOF 0
ENDMDL
