MODEL 1
REMARK VINA RESULT:      -4.1      0.000      0.000
REMARK  3 active torsions:
REMARK  status: ('A' for Active; 'I' for Inactive)
REMARK    1  A    between atoms: C_2  and  O_3 
REMARK    2  A    between atoms: O_3  and  C_5 
REMARK    3  A    between atoms: C_5  and  C_4 
ROOT
ATOM      1  C   UNL d   1     -41.152-122.717 -53.272  0.00  0.00     0.100 A 
ATOM      2  C   UNL d   1     -41.153-123.529 -53.127  0.00  0.00     0.025 A 
ATOM      3  C   UNL d   1     -41.159-122.185 -52.642  0.00  0.00     0.025 A 
ATOM      4  C   UNL d   1     -41.161-123.817 -52.351  0.00  0.00     0.002 A 
ATOM      5  C   UNL d   1     -41.167-122.475 -51.867  0.00  0.00     0.002 A 
ATOM      6  C   UNL d   1     -41.168-123.279 -51.724  0.00  0.00     0.000 A 
ENDROOT
BRANCH   1   7
ATOM      7  O   UNL d   1     -41.143-122.435 -54.045  0.00  0.00    -0.303 OA
BRANCH   7   8
ATOM      8  C   UNL d   1     -41.849-122.369 -54.474  0.00  0.00     0.145 C 
BRANCH   8   9
ATOM      9  C   UNL d   1     -41.850-122.029 -55.223  0.00  0.00     0.149 C 
ATOM     10  N   UNL d   1     -42.538-122.014 -55.675  0.00  0.00    -0.144 N 
ENDBRANCH   8   9
ENDBRANCH   7   8
ENDBRANCH   1   7
TORSDOF 3
ENDMDL
MODEL 2
REMARK VINA RESULT:      -2.8      2.375      3.140
REMARK  3 active torsions:
REMARK  status: ('A' for Active; 'I' for Inactive)
REMARK    1  A    between atoms: C_2  and  O_3 
REMARK    2  A    between atoms: O_3  and  C_5 
REMARK    3  A    between atoms: C_5  and  C_4 
ROOT
ATOM      1  C   UNL d   1     -41.744-122.668 -50.257  0.00  0.00     0.100 A 
ATOM      2  C   UNL d   1     -42.518-122.446 -50.080  0.00  0.00     0.025 A 
ATOM      3  C   UNL d   1     -41.349-123.208 -49.776  0.00  0.00     0.025 A 
ATOM      4  C   UNL d   1     -42.906-122.763 -49.421  0.00  0.00     0.002 A 
ATOM      5  C   UNL d   1     -41.737-123.524 -49.117  0.00  0.00     0.002 A 
ATOM      6  C   UNL d   1     -42.504-123.304 -48.942  0.00  0.00     0.000 A 
ENDROOT
BRANCH   1   7
ATOM      7  O   UNL d   1     -41.363-122.350 -50.914  0.00  0.00    -0.303 OA
BRANCH   7   8
ATOM      8  C   UNL d   1     -41.455-122.697 -51.660  0.00  0.00     0.145 C 
BRANCH   8   9
ATOM      9  C   UNL d   1     -41.122-122.348 -52.326  0.00  0.00     0.149 C 
ATOM     10  N   UNL d   1     -41.162-122.722 -53.058  0.00  0.00    -0.144 N 
ENDBRANCH   8   9
ENDBRANCH   7   8
ENDBRANCH   1   7
TORSDOF 3
ENDMDL
MODEL 3
REMARK VINA RESULT:      -2.1      3.962      4.899
REMARK  3 active torsions:
REMARK  status: ('A' for Active; 'I' for Inactive)
REMARK    1  A    between atoms: C_2  and  O_3 
REMARK    2  A    between atoms: O_3  and  C_5 
REMARK    3  A    between atoms: C_5  and  C_4 
ROOT
ATOM      1  C   UNL d   1     -41.755-123.250 -48.486  0.00  0.00     0.100 A 
ATOM      2  C   UNL d   1     -42.537-123.376 -48.256  0.00  0.00     0.025 A 
ATOM      3  C   UNL d   1     -41.141-123.381 -47.953  0.00  0.00     0.025 A 
ATOM      4  C   UNL d   1     -42.713-123.633 -47.489  0.00  0.00     0.002 A 
ATOM      5  C   UNL d   1     -41.318-123.639 -47.187  0.00  0.00     0.002 A 
ATOM      6  C   UNL d   1     -42.093-123.763 -46.958  0.00  0.00     0.000 A 
ENDROOT
BRANCH   1   7
ATOM      7  O   UNL d   1     -41.586-122.994 -49.250  0.00  0.00    -0.303 OA
BRANCH   7   8
ATOM      8  C   UNL d   1     -41.480-123.543 -49.862  0.00  0.00     0.145 C 
BRANCH   8   9
ATOM      9  C   UNL d   1     -41.228-123.295 -50.605  0.00  0.00     0.149 C 
ATOM     10  N   UNL d   1     -41.230-123.815 -51.242  0.00  0.00    -0.144 N 
ENDBRANCH   8   9
ENDBRANCH   7   8
ENDBRANCH   1   7
TORSDOF 3
ENDMDL
MODEL 4
REMARK VINA RESULT:      -1.4      3.973      5.066
REMARK  3 active torsions:
REMARK  status: ('A' for Active; 'I' for Inactive)
REMARK    1  A    between atoms: C_2  and  O_3 
REMARK    2  A    between atoms: O_3  and  C_5 
REMARK    3  A    between atoms: C_5  and  C_4 
ROOT
ATOM      1  C   UNL d   1     -41.759-123.403 -49.592  0.00  0.00     0.100 A 
ATOM      2  C   UNL d   1     -41.259-122.746 -49.606  0.00  0.00     0.025 A 
ATOM      3  C   UNL d   1     -42.127-123.657 -50.284  0.00  0.00     0.025 A 
ATOM      4  C   UNL d   1     -41.123-122.338 -50.313  0.00  0.00     0.002 A 
ATOM      5  C   UNL d   1     -41.989-123.248 -50.990  0.00  0.00     0.002 A 
ATOM      6  C   UNL d   1     -41.494-122.598 -51.004  0.00  0.00     0.000 A 
ENDROOT
BRANCH   1   7
ATOM      7  O   UNL d   1     -41.892-123.805 -48.886  0.00  0.00    -0.303 OA
BRANCH   7   8
ATOM      8  C   UNL d   1     -42.237-123.417 -48.241  0.00  0.00     0.145 C 
BRANCH   8   9
ATOM      9  C   UNL d   1     -42.146-123.715 -47.479  0.00  0.00     0.149 C 
ATOM     10  N   UNL d   1     -42.782-123.726 -46.957  0.00  0.00    -0.144 N 
ENDBRANCH   8   9
ENDBRANCH   7   8
ENDBRANCH   1   7
TORSDOF 3
ENDMDL
