MODEL 1
REMARK VINA RESULT:      -5.0      0.000      0.000
REMARK  2 active torsions:
REMARK  status: ('A' for Active; 'I' for Inactive)
REMARK       I    between atoms: C_2  and  N_4 
REMARK       I    between atoms: N_7  and  C_2 
REMARK    1  A    between atoms: N_4  and  C_8 
REMARK    2  A    between atoms: C_12  and  N_7 
ROOT
ATOM      1  C   UNL d   1      57.374  -0.034  31.335  0.00  0.00     0.369 C 
ATOM      2  N   UNL d   1      57.739  -0.021  30.602  0.00  0.00    -0.190 NA
ATOM      3  N   UNL d   1      56.624  -0.359  31.420  0.00  0.00    -0.191 NA
ATOM      4  O   UNL d   1      57.764   0.283  31.989  0.00  0.00    -0.242 OA
ENDROOT
BRANCH   2   5
ATOM      5  C   UNL d   1      58.485   0.302  30.515  0.00  0.00     0.098 A 
ATOM      6  C   UNL d   1      58.462   0.071  29.719  0.00  0.00     0.118 A 
ATOM      7  S   UNL d   1      59.171   0.304  29.365  0.00  0.00     0.213 S 
ATOM      8  O   UNL d   1      58.644  -0.079  28.865  0.00  0.00    -0.217 OA
ATOM      9  O   UNL d   1      59.899   0.565  29.084  0.00  0.00    -0.217 OA
ATOM     10  C   UNL d   1      59.634   0.677  29.935  0.00  0.00     0.100 A 
ATOM     11  C   UNL d   1      59.213   0.678  30.649  0.00  0.00     0.032 A 
ENDBRANCH   2   5
BRANCH   3  12
ATOM     12  C   UNL d   1      56.260  -0.370  32.158  0.00  0.00     0.086 A 
ATOM     13  C   UNL d   1      56.207  -1.077  32.578  0.00  0.00     0.019 A 
ATOM     14  C   UNL d   1      55.848  -1.090  33.308  0.00  0.00     0.002 A 
ATOM     15  C   UNL d   1      55.535  -0.399  33.630  0.00  0.00     0.000 A 
ATOM     16  C   UNL d   1      55.588   0.309  33.210  0.00  0.00     0.002 A 
ATOM     17  C   UNL d   1      55.951   0.320  32.473  0.00  0.00     0.019 A 
ENDBRANCH   3  12
TORSDOF 2
ENDMDL
MODEL 2
REMARK VINA RESULT:      -3.4      2.148      4.329
REMARK  2 active torsions:
REMARK  status: ('A' for Active; 'I' for Inactive)
REMARK       I    between atoms: C_2  and  N_4 
REMARK       I    between atoms: N_7  and  C_2 
REMARK    1  A    between atoms: N_4  and  C_8 
REMARK    2  A    between atoms: C_12  and  N_7 
ROOT
ATOM      1  C   UNL d   1      57.052   0.093  31.839  0.00  0.00     0.369 C 
ATOM      2  N   UNL d   1      56.895   0.092  32.643  0.00  0.00    -0.190 NA
ATOM      3  N   UNL d   1      57.817  -0.033  31.565  0.00  0.00    -0.191 NA
ATOM      4  O   UNL d   1      56.437   0.221  31.305  0.00  0.00    -0.242 OA
ENDROOT
BRANCH   2   5
ATOM      5  C   UNL d   1      56.136   0.216  32.918  0.00  0.00     0.098 A 
ATOM      6  C   UNL d   1      56.460   0.357  33.668  0.00  0.00     0.118 A 
ATOM      7  S   UNL d   1      55.840   0.525  34.187  0.00  0.00     0.213 S 
ATOM      8  O   UNL d   1      56.588   0.539  34.525  0.00  0.00    -0.217 OA
ATOM      9  O   UNL d   1      55.171   0.682  34.642  0.00  0.00    -0.217 OA
ATOM     10  C   UNL d   1      55.133   0.489  33.765  0.00  0.00     0.100 A 
ATOM     11  C   UNL d   1      55.312   0.298  32.979  0.00  0.00     0.032 A 
ENDBRANCH   2   5
BRANCH   3  12
ATOM     12  C   UNL d   1      57.971  -0.031  30.757  0.00  0.00     0.086 A 
ATOM     13  C   UNL d   1      57.949   0.678  30.337  0.00  0.00     0.019 A 
ATOM     14  C   UNL d   1      58.101   0.682  29.538  0.00  0.00     0.002 A 
ATOM     15  C   UNL d   1      58.277  -0.021  29.144  0.00  0.00     0.000 A 
ATOM     16  C   UNL d   1      58.299  -0.731  29.564  0.00  0.00     0.002 A 
ATOM     17  C   UNL d   1      58.145  -0.732  30.371  0.00  0.00     0.019 A 
ENDBRANCH   3  12
TORSDOF 2
ENDMDL
MODEL 3
REMARK VINA RESULT:      -3.0      9.892     10.255
REMARK  2 active torsions:
REMARK  status: ('A' for Active; 'I' for Inactive)
REMARK       I    between atoms: C_2  and  N_4 
REMARK       I    between atoms: N_7  and  C_2 
REMARK    1  A    between atoms: N_4  and  C_8 
REMARK    2  A    between atoms: C_12  and  N_7 
ROOT
ATOM      1  C   UNL d   1      59.280  -9.484  34.002  0.00  0.00     0.369 C 
ATOM      2  N   UNL d   1      58.701  -9.774  33.500  0.00  0.00    -0.190 NA
ATOM      3  N   UNL d   1      59.159  -9.473  34.815  0.00  0.00    -0.191 NA
ATOM      4  O   UNL d   1      59.987  -9.200  33.685  0.00  0.00    -0.242 OA
ENDROOT
BRANCH   2   5
ATOM      5  C   UNL d   1      58.819  -9.786  32.692  0.00  0.00     0.098 A 
ATOM      6  C   UNL d   1      57.996  -9.792  32.599  0.00  0.00     0.118 A 
ATOM      7  S   UNL d   1      57.830  -9.805  31.790  0.00  0.00     0.213 S 
ATOM      8  O   UNL d   1      57.170  -9.802  32.278  0.00  0.00    -0.217 OA
ATOM      9  O   UNL d   1      57.744  -9.818  30.971  0.00  0.00    -0.217 OA
ATOM     10  C   UNL d   1      58.545  -9.807  31.379  0.00  0.00     0.100 A 
ATOM     11  C   UNL d   1      59.160  -9.795  31.935  0.00  0.00     0.032 A 
ENDBRANCH   2   5
BRANCH   3  12
ATOM     12  C   UNL d   1      59.742  -9.181  35.315  0.00  0.00     0.086 A 
ATOM     13  C   UNL d   1      59.687  -8.410  35.603  0.00  0.00     0.019 A 
ATOM     14  C   UNL d   1      60.262  -8.119  36.098  0.00  0.00     0.002 A 
ATOM     15  C   UNL d   1      60.903  -8.591  36.315  0.00  0.00     0.000 A 
ATOM     16  C   UNL d   1      60.959  -9.362  36.027  0.00  0.00     0.002 A 
ATOM     17  C   UNL d   1      60.376  -9.654  35.527  0.00  0.00     0.019 A 
ENDBRANCH   3  12
TORSDOF 2
ENDMDL
