MODEL 1
REMARK VINA RESULT:      -3.3      0.000      0.000
REMARK  3 active torsions:
REMARK  status: ('A' for Active; 'I' for Inactive)
REMARK    1  A    between atoms: N_6  and  C_2 
REMARK    2  A    between atoms: C_7  and  C_5 
REMARK    3  A    between atoms: C_9  and  C_7 
ROOT
ATOM      1  N   UNL d   1      32.867  16.928 -23.443  0.00  0.00    -0.183 NA
ATOM      2  C   UNL d   1      32.373  17.542 -23.676  0.00  0.00     0.183 A 
ATOM      3  S   UNL d   1      31.672  17.214 -23.954  0.00  0.00    -0.045 SA
ATOM      4  C   UNL d   1      32.472  16.219 -23.577  0.00  0.00     0.287 A 
ATOM      5  C   UNL d   1      31.731  16.391 -23.894  0.00  0.00     0.090 A 
ATOM      6  O   UNL d   1      32.767  15.465 -23.421  0.00  0.00    -0.265 OA
ENDROOT
BRANCH   5   7
ATOM      7  C   UNL d   1      31.154  15.843 -24.111  0.00  0.00     0.011 C 
BRANCH   7   8
ATOM      8  C   UNL d   1      30.367  15.969 -23.907  0.00  0.00     0.001 A 
ATOM      9  C   UNL d   1      29.870  16.378 -24.430  0.00  0.00     0.001 A 
ATOM     10  C   UNL d   1      29.080  16.505 -24.228  0.00  0.00     0.011 A 
ATOM     11  C   UNL d   1      28.786  16.226 -23.508  0.00  0.00     0.058 A 
ATOM     12  C   UNL d   1      29.282  15.820 -22.991  0.00  0.00     0.011 A 
ATOM     13 CL   UNL d   1      27.990  16.375 -23.345  0.00  0.00    -0.082 Cl
ATOM     14  C   UNL d   1      30.067  15.689 -23.182  0.00  0.00     0.001 A 
ENDBRANCH   7   8
ENDBRANCH   5   7
BRANCH   2  15
ATOM     15  N   UNL d   1      32.664  18.314 -23.588  0.00  0.00    -0.280 N 
ATOM     16  C   UNL d   1      32.861  18.762 -24.249  0.00  0.00     0.109 A 
ATOM     17  C   UNL d   1      33.153  19.536 -24.157  0.00  0.00     0.142 A 
ATOM     18  O   UNL d   1      33.241  19.847 -23.401  0.00  0.00    -0.300 OA
ATOM     19  C   UNL d   1      33.041  19.395 -22.731  0.00  0.00     0.142 A 
ATOM     20  C   UNL d   1      32.755  18.633 -22.830  0.00  0.00     0.109 A 
ENDBRANCH   2  15
TORSDOF 3
ENDMDL
MODEL 2
REMARK VINA RESULT:      -3.1      2.042      3.983
REMARK  3 active torsions:
REMARK  status: ('A' for Active; 'I' for Inactive)
REMARK    1  A    between atoms: N_6  and  C_2 
REMARK    2  A    between atoms: C_7  and  C_5 
REMARK    3  A    between atoms: C_9  and  C_7 
ROOT
ATOM      1  N   UNL d   1      31.282  15.824 -24.587  0.00  0.00    -0.183 NA
ATOM      2  C   UNL d   1      30.940  16.321 -24.029  0.00  0.00     0.183 A 
ATOM      3  S   UNL d   1      31.534  16.787 -23.705  0.00  0.00    -0.045 SA
ATOM      4  C   UNL d   1      32.089  15.982 -24.608  0.00  0.00     0.287 A 
ATOM      5  C   UNL d   1      32.250  16.579 -24.062  0.00  0.00     0.090 A 
ATOM      6  O   UNL d   1      32.642  15.609 -25.092  0.00  0.00    -0.265 OA
ENDROOT
BRANCH   5   7
ATOM      7  C   UNL d   1      32.989  16.908 -23.903  0.00  0.00     0.011 C 
BRANCH   7   8
ATOM      8  C   UNL d   1      33.049  17.686 -23.645  0.00  0.00     0.001 A 
ATOM      9  C   UNL d   1      33.181  17.841 -22.842  0.00  0.00     0.001 A 
ATOM     10  C   UNL d   1      33.241  18.622 -22.581  0.00  0.00     0.011 A 
ATOM     11  C   UNL d   1      33.169  19.245 -23.118  0.00  0.00     0.058 A 
ATOM     12  C   UNL d   1      33.038  19.089 -23.915  0.00  0.00     0.011 A 
ATOM     13 CL   UNL d   1      33.235  20.011 -22.815  0.00  0.00    -0.082 Cl
ATOM     14  C   UNL d   1      32.977  18.318 -24.184  0.00  0.00     0.001 A 
ENDBRANCH   7   8
ENDBRANCH   5   7
BRANCH   2  15
ATOM     15  N   UNL d   1      30.120  16.254 -23.916  0.00  0.00    -0.280 N 
ATOM     16  C   UNL d   1      29.601  16.717 -24.356  0.00  0.00     0.109 A 
ATOM     17  C   UNL d   1      28.779  16.647 -24.240  0.00  0.00     0.142 A 
ATOM     18  O   UNL d   1      28.494  16.112 -23.684  0.00  0.00    -0.300 OA
ATOM     19  C   UNL d   1      29.019  15.643 -23.240  0.00  0.00     0.142 A 
ATOM     20  C   UNL d   1      29.827  15.718 -23.359  0.00  0.00     0.109 A 
ENDBRANCH   2  15
TORSDOF 3
ENDMDL
MODEL 3
REMARK VINA RESULT:      -2.4      2.110      3.052
REMARK  3 active torsions:
REMARK  status: ('A' for Active; 'I' for Inactive)
REMARK    1  A    between atoms: N_6  and  C_2 
REMARK    2  A    between atoms: C_7  and  C_5 
REMARK    3  A    between atoms: C_9  and  C_7 
ROOT
ATOM      1  N   UNL d   1      33.239  20.300 -23.501  0.00  0.00    -0.183 NA
ATOM      2  C   UNL d   1      33.238  19.881 -22.794  0.00  0.00     0.183 A 
ATOM      3  S   UNL d   1      33.239  19.079 -22.972  0.00  0.00    -0.045 SA
ATOM      4  C   UNL d   1      33.240  19.756 -24.118  0.00  0.00     0.287 A 
ATOM      5  C   UNL d   1      33.239  18.998 -23.795  0.00  0.00     0.090 A 
ATOM      6  O   UNL d   1      33.240  19.938 -24.923  0.00  0.00    -0.265 OA
ENDROOT
BRANCH   5   7
ATOM      7  C   UNL d   1      33.240  18.288 -24.216  0.00  0.00     0.011 C 
BRANCH   7   8
ATOM      8  C   UNL d   1      32.705  17.694 -24.025  0.00  0.00     0.001 A 
ATOM      9  C   UNL d   1      31.953  17.692 -24.376  0.00  0.00     0.001 A 
ATOM     10  C   UNL d   1      31.415  17.097 -24.185  0.00  0.00     0.011 A 
ATOM     11  C   UNL d   1      31.624  16.506 -23.647  0.00  0.00     0.058 A 
ATOM     12  C   UNL d   1      32.370  16.510 -23.300  0.00  0.00     0.011 A 
ATOM     13 CL   UNL d   1      31.055  15.929 -23.484  0.00  0.00    -0.082 Cl
ATOM     14  C   UNL d   1      32.912  17.096 -23.482  0.00  0.00     0.001 A 
ENDBRANCH   7   8
ENDBRANCH   5   7
BRANCH   2  15
ATOM     15  N   UNL d   1      33.238  20.326 -22.093  0.00  0.00    -0.280 N 
ATOM     16  C   UNL d   1      33.239  21.148 -22.122  0.00  0.00     0.109 A 
ATOM     17  C   UNL d   1      33.238  21.590 -21.416  0.00  0.00     0.142 A 
ATOM     18  O   UNL d   1      33.237  21.198 -20.694  0.00  0.00    -0.300 OA
ATOM     19  C   UNL d   1      33.235  20.366 -20.664  0.00  0.00     0.142 A 
ATOM     20  C   UNL d   1      33.236  19.937 -21.363  0.00  0.00     0.109 A 
ENDBRANCH   2  15
TORSDOF 3
ENDMDL
MODEL 4
REMARK VINA RESULT:      -1.9      1.361      1.939
REMARK  3 active torsions:
REMARK  status: ('A' for Active; 'I' for Inactive)
REMARK    1  A    between atoms: N_6  and  C_2 
REMARK    2  A    between atoms: C_7  and  C_5 
REMARK    3  A    between atoms: C_9  and  C_7 
ROOT
ATOM      1  N   UNL d   1      33.158  18.430 -22.503  0.00  0.00    -0.183 NA
ATOM      2  C   UNL d   1      32.841  19.075 -22.903  0.00  0.00     0.183 A 
ATOM      3  S   UNL d   1      32.477  18.798 -23.585  0.00  0.00    -0.045 SA
ATOM      4  C   UNL d   1      32.991  17.753 -22.940  0.00  0.00     0.287 A 
ATOM      5  C   UNL d   1      32.568  17.976 -23.612  0.00  0.00     0.090 A 
ATOM      6  O   UNL d   1      33.208  16.983 -22.740  0.00  0.00    -0.265 OA
ENDROOT
BRANCH   5   7
ATOM      7  C   UNL d   1      32.289  17.472 -24.201  0.00  0.00     0.011 C 
BRANCH   7   8
ATOM      8  C   UNL d   1      31.481  17.341 -24.284  0.00  0.00     0.001 A 
ATOM      9  C   UNL d   1      31.032  17.845 -24.765  0.00  0.00     0.001 A 
ATOM     10  C   UNL d   1      30.221  17.715 -24.849  0.00  0.00     0.011 A 
ATOM     11  C   UNL d   1      29.859  17.085 -24.455  0.00  0.00     0.058 A 
ATOM     12  C   UNL d   1      30.308  16.585 -23.978  0.00  0.00     0.011 A 
ATOM     13 CL   UNL d   1      29.046  16.990 -24.566  0.00  0.00    -0.082 Cl
ATOM     14  C   UNL d   1      31.112  16.706 -23.888  0.00  0.00     0.001 A 
ENDBRANCH   7   8
ENDBRANCH   5   7
BRANCH   2  15
ATOM     15  N   UNL d   1      32.946  19.822 -22.556  0.00  0.00    -0.280 N 
ATOM     16  C   UNL d   1      33.103  19.888 -21.752  0.00  0.00     0.109 A 
ATOM     17  C   UNL d   1      33.208  20.640 -21.408  0.00  0.00     0.142 A 
ATOM     18  O   UNL d   1      33.154  21.311 -21.880  0.00  0.00    -0.300 OA
ATOM     19  C   UNL d   1      32.996  21.244 -22.695  0.00  0.00     0.142 A 
ATOM     20  C   UNL d   1      32.894  20.501 -23.026  0.00  0.00     0.109 A 
ENDBRANCH   2  15
TORSDOF 3
ENDMDL
MODEL 5
REMARK VINA RESULT:      -1.3      5.361      7.119
REMARK  3 active torsions:
REMARK  status: ('A' for Active; 'I' for Inactive)
REMARK    1  A    between atoms: N_6  and  C_2 
REMARK    2  A    between atoms: C_7  and  C_5 
REMARK    3  A    between atoms: C_9  and  C_7 
ROOT
ATOM      1  N   UNL d   1      32.106  23.517 -19.672  0.00  0.00    -0.183 NA
ATOM      2  C   UNL d   1      32.687  23.125 -19.243  0.00  0.00     0.183 A 
ATOM      3  S   UNL d   1      33.179  22.738 -19.775  0.00  0.00    -0.045 SA
ATOM      4  C   UNL d   1      32.238  23.371 -20.471  0.00  0.00     0.287 A 
ATOM      5  C   UNL d   1      32.903  22.889 -20.540  0.00  0.00     0.090 A 
ATOM      6  O   UNL d   1      31.783  23.659 -21.096  0.00  0.00    -0.265 OA
ENDROOT
BRANCH   5   7
ATOM      7  C   UNL d   1      33.231  22.608 -21.243  0.00  0.00     0.011 C 
BRANCH   7   8
ATOM      8  C   UNL d   1      33.157  21.815 -21.445  0.00  0.00     0.001 A 
ATOM      9  C   UNL d   1      32.999  21.607 -22.232  0.00  0.00     0.001 A 
ATOM     10  C   UNL d   1      32.925  20.811 -22.437  0.00  0.00     0.011 A 
ATOM     11  C   UNL d   1      33.009  20.224 -21.861  0.00  0.00     0.058 A 
ATOM     12  C   UNL d   1      33.166  20.434 -21.080  0.00  0.00     0.011 A 
ATOM     13 CL   UNL d   1      32.927  19.441 -22.109  0.00  0.00    -0.082 Cl
ATOM     14  C   UNL d   1      33.241  21.220 -20.867  0.00  0.00     0.001 A 
ENDBRANCH   7   8
ENDBRANCH   5   7
BRANCH   2  15
ATOM     15  N   UNL d   1      32.659  23.197 -18.417  0.00  0.00    -0.280 N 
ATOM     16  C   UNL d   1      33.241  22.850 -17.949  0.00  0.00     0.109 A 
ATOM     17  C   UNL d   1      33.209  22.925 -17.120  0.00  0.00     0.142 A 
ATOM     18  O   UNL d   1      32.594  23.347 -16.776  0.00  0.00    -0.300 OA
ATOM     19  C   UNL d   1      32.005  23.698 -17.249  0.00  0.00     0.142 A 
ATOM     20  C   UNL d   1      32.043  23.620 -18.064  0.00  0.00     0.109 A 
ENDBRANCH   2  15
TORSDOF 3
ENDMDL
MODEL 6
REMARK VINA RESULT:      -0.9      2.313      4.206
REMARK  3 active torsions:
REMARK  status: ('A' for Active; 'I' for Inactive)
REMARK    1  A    between atoms: N_6  and  C_2 
REMARK    2  A    between atoms: C_7  and  C_5 
REMARK    3  A    between atoms: C_9  and  C_7 
ROOT
ATOM      1  N   UNL d   1      31.293  16.899 -24.731  0.00  0.00    -0.183 NA
ATOM      2  C   UNL d   1      30.872  17.476 -24.325  0.00  0.00     0.183 A 
ATOM      3  S   UNL d   1      31.411  18.001 -23.997  0.00  0.00    -0.045 SA
ATOM      4  C   UNL d   1      32.094  17.067 -24.654  0.00  0.00     0.287 A 
ATOM      5  C   UNL d   1      32.173  17.750 -24.199  0.00  0.00     0.090 A 
ATOM      6  O   UNL d   1      32.713  16.628 -24.977  0.00  0.00    -0.265 OA
ENDROOT
BRANCH   5   7
ATOM      7  C   UNL d   1      32.881  18.115 -23.986  0.00  0.00     0.011 C 
BRANCH   7   8
ATOM      8  C   UNL d   1      32.970  18.927 -24.073  0.00  0.00     0.001 A 
ATOM      9  C   UNL d   1      33.041  19.405 -23.400  0.00  0.00     0.001 A 
ATOM     10  C   UNL d   1      33.130  20.221 -23.485  0.00  0.00     0.011 A 
ATOM     11  C   UNL d   1      33.148  20.560 -24.238  0.00  0.00     0.058 A 
ATOM     12  C   UNL d   1      33.078  20.083 -24.906  0.00  0.00     0.011 A 
ATOM     13 CL   UNL d   1      33.239  21.380 -24.279  0.00  0.00    -0.082 Cl
ATOM     14  C   UNL d   1      32.989  19.273 -24.832  0.00  0.00     0.001 A 
ENDBRANCH   7   8
ENDBRANCH   5   7
BRANCH   2  15
ATOM     15  N   UNL d   1      30.044  17.413 -24.330  0.00  0.00    -0.280 N 
ATOM     16  C   UNL d   1      29.626  17.491 -25.035  0.00  0.00     0.109 A 
ATOM     17  C   UNL d   1      28.795  17.427 -25.036  0.00  0.00     0.142 A 
ATOM     18  O   UNL d   1      28.400  17.287 -24.329  0.00  0.00    -0.300 OA
ATOM     19  C   UNL d   1      28.823  17.208 -23.616  0.00  0.00     0.142 A 
ATOM     20  C   UNL d   1      29.640  17.272 -23.623  0.00  0.00     0.109 A 
ENDBRANCH   2  15
TORSDOF 3
ENDMDL
