MODEL 1
REMARK VINA RESULT:      -2.9      0.000      0.000
REMARK  5 active torsions:
REMARK  status: ('A' for Active; 'I' for Inactive)
REMARK    1  A    between atoms: C_6  and  C_1 
REMARK    2  A    between atoms: C_7  and  C_4 
REMARK    3  A    between atoms: O_14  and  C_6 
REMARK    4  A    between atoms: O_15  and  C_9 
REMARK    5  A    between atoms: O_16  and  C_10 
ROOT
ATOM      1  C   UNL d   1      32.863  21.101 -21.606  0.00  0.00     0.027 A 
ATOM      2  C   UNL d   1      33.052  21.723 -22.120  0.00  0.00     0.028 A 
ATOM      3  C   UNL d   1      32.959  22.502 -21.877  0.00  0.00     0.116 A 
ATOM      4  C   UNL d   1      32.676  22.668 -21.117  0.00  0.00     0.116 A 
ATOM      5  C   UNL d   1      32.581  21.267 -20.846  0.00  0.00     0.004 A 
ATOM      6  C   UNL d   1      32.488  22.054 -20.605  0.00  0.00     0.026 A 
ENDROOT
BRANCH   1   7
ATOM      7  C   UNL d   1      32.956  20.318 -21.848  0.00  0.00     0.127 A 
ATOM      8  C   UNL d   1      32.775  20.023 -22.594  0.00  0.00     0.054 A 
ATOM      9  C   UNL d   1      32.952  19.215 -22.597  0.00  0.00     0.173 A 
ATOM     10  N   UNL d   1      33.241  19.018 -21.850  0.00  0.00    -0.121 NA
ATOM     11  O   UNL d   1      33.241  19.705 -21.392  0.00  0.00    -0.211 OA
BRANCH   9  12
ATOM     12  C   UNL d   1      32.858  18.701 -23.228  0.00  0.00     0.316 C 
ATOM     13  O   UNL d   1      33.027  18.953 -23.999  0.00  0.00    -0.257 OA
BRANCH  12  14
ATOM     14  O   UNL d   1      32.595  17.931 -23.097  0.00  0.00    -0.294 OA
ATOM     15  C   UNL d   1      32.250  17.511 -23.711  0.00  0.00     0.185 C 
ENDBRANCH  12  14
ENDBRANCH   9  12
ENDBRANCH   1   7
BRANCH   3  16
ATOM     16  O   UNL d   1      33.147  23.116 -22.389  0.00  0.00    -0.326 OA
ATOM     17  C   UNL d   1      33.139  22.990 -23.200  0.00  0.00     0.181 C 
ENDBRANCH   3  16
BRANCH   4  18
ATOM     18  O   UNL d   1      32.585  23.446 -20.878  0.00  0.00    -0.326 OA
ATOM     19  C   UNL d   1      32.388  23.613 -20.096  0.00  0.00     0.181 C 
ENDBRANCH   4  18
TORSDOF 5
ENDMDL
MODEL 2
REMARK VINA RESULT:      -2.8      1.295      4.309
REMARK  5 active torsions:
REMARK  status: ('A' for Active; 'I' for Inactive)
REMARK    1  A    between atoms: C_6  and  C_1 
REMARK    2  A    between atoms: C_7  and  C_4 
REMARK    3  A    between atoms: O_14  and  C_6 
REMARK    4  A    between atoms: O_15  and  C_9 
REMARK    5  A    between atoms: O_16  and  C_10 
ROOT
ATOM      1  C   UNL d   1      33.080  19.582 -22.697  0.00  0.00     0.027 A 
ATOM      2  C   UNL d   1      33.009  19.441 -23.510  0.00  0.00     0.028 A 
ATOM      3  C   UNL d   1      33.054  18.675 -23.802  0.00  0.00     0.116 A 
ATOM      4  C   UNL d   1      33.170  18.040 -23.284  0.00  0.00     0.116 A 
ATOM      5  C   UNL d   1      33.197  18.947 -22.179  0.00  0.00     0.004 A 
ATOM      6  C   UNL d   1      33.241  18.176 -22.477  0.00  0.00     0.026 A 
ENDROOT
BRANCH   1   7
ATOM      7  C   UNL d   1      33.036  20.351 -22.402  0.00  0.00     0.127 A 
ATOM      8  C   UNL d   1      32.777  20.561 -21.651  0.00  0.00     0.054 A 
ATOM      9  C   UNL d   1      32.823  21.384 -21.588  0.00  0.00     0.173 A 
ATOM     10  N   UNL d   1      33.111  21.675 -22.304  0.00  0.00    -0.121 NA
ATOM     11  O   UNL d   1      33.241  21.031 -22.803  0.00  0.00    -0.211 OA
BRANCH   9  12
ATOM     12  C   UNL d   1      32.619  21.832 -20.933  0.00  0.00     0.316 C 
ATOM     13  O   UNL d   1      31.828  22.044 -20.804  0.00  0.00    -0.257 OA
BRANCH  12  14
ATOM     14  O   UNL d   1      33.200  22.074 -20.401  0.00  0.00    -0.294 OA
ATOM     15  C   UNL d   1      32.991  22.528 -19.751  0.00  0.00     0.185 C 
ENDBRANCH  12  14
ENDBRANCH   9  12
ENDBRANCH   1   7
BRANCH   3  16
ATOM     16  O   UNL d   1      32.983  18.539 -24.609  0.00  0.00    -0.326 OA
ATOM     17  C   UNL d   1      32.420  18.948 -25.046  0.00  0.00     0.181 C 
ENDBRANCH   3  16
BRANCH   4  18
ATOM     18  O   UNL d   1      33.214  17.277 -23.578  0.00  0.00    -0.326 OA
ATOM     19  C   UNL d   1      32.955  16.645 -23.118  0.00  0.00     0.181 C 
ENDBRANCH   4  18
TORSDOF 5
ENDMDL
MODEL 3
REMARK VINA RESULT:      -2.8      3.717      5.145
REMARK  5 active torsions:
REMARK  status: ('A' for Active; 'I' for Inactive)
REMARK    1  A    between atoms: C_6  and  C_1 
REMARK    2  A    between atoms: C_7  and  C_4 
REMARK    3  A    between atoms: O_14  and  C_6 
REMARK    4  A    between atoms: O_15  and  C_9 
REMARK    5  A    between atoms: O_16  and  C_10 
ROOT
ATOM      1  C   UNL d   1      31.596  17.336 -24.471  0.00  0.00     0.027 A 
ATOM      2  C   UNL d   1      32.138  17.414 -23.850  0.00  0.00     0.028 A 
ATOM      3  C   UNL d   1      32.684  18.028 -23.853  0.00  0.00     0.116 A 
ATOM      4  C   UNL d   1      32.695  18.570 -24.479  0.00  0.00     0.116 A 
ATOM      5  C   UNL d   1      31.606  17.878 -25.097  0.00  0.00     0.004 A 
ATOM      6  C   UNL d   1      32.159  18.495 -25.097  0.00  0.00     0.026 A 
ENDROOT
BRANCH   1   7
ATOM      7  C   UNL d   1      31.046  16.720 -24.469  0.00  0.00     0.127 A 
ATOM      8  C   UNL d   1      30.257  16.785 -24.249  0.00  0.00     0.054 A 
ATOM      9  C   UNL d   1      29.910  16.038 -24.330  0.00  0.00     0.173 A 
ATOM     10  N   UNL d   1      30.491  15.519 -24.600  0.00  0.00    -0.121 NA
ATOM     11  O   UNL d   1      31.192  15.947 -24.684  0.00  0.00    -0.211 OA
BRANCH   9  12
ATOM     12  C   UNL d   1      29.129  15.847 -24.171  0.00  0.00     0.316 C 
ATOM     13  O   UNL d   1      28.591  15.746 -24.793  0.00  0.00    -0.257 OA
BRANCH  12  14
ATOM     14  O   UNL d   1      28.878  15.755 -23.392  0.00  0.00    -0.294 OA
ATOM     15  C   UNL d   1      28.075  15.748 -23.223  0.00  0.00     0.185 C 
ENDBRANCH  12  14
ENDBRANCH   9  12
ENDBRANCH   1   7
BRANCH   3  16
ATOM     16  O   UNL d   1      33.220  18.103 -23.236  0.00  0.00    -0.326 OA
ATOM     17  C   UNL d   1      33.180  17.592 -22.594  0.00  0.00     0.181 C 
ENDBRANCH   3  16
BRANCH   4  18
ATOM     18  O   UNL d   1      33.241  19.180 -24.480  0.00  0.00    -0.326 OA
ATOM     19  C   UNL d   1      33.152  19.808 -25.004  0.00  0.00     0.181 C 
ENDBRANCH   4  18
TORSDOF 5
ENDMDL
MODEL 4
REMARK VINA RESULT:      -2.4      1.174      1.567
REMARK  5 active torsions:
REMARK  status: ('A' for Active; 'I' for Inactive)
REMARK    1  A    between atoms: C_6  and  C_1 
REMARK    2  A    between atoms: C_7  and  C_4 
REMARK    3  A    between atoms: O_14  and  C_6 
REMARK    4  A    between atoms: O_15  and  C_9 
REMARK    5  A    between atoms: O_16  and  C_10 
ROOT
ATOM      1  C   UNL d   1      33.064  20.118 -22.537  0.00  0.00     0.027 A 
ATOM      2  C   UNL d   1      33.144  20.909 -22.772  0.00  0.00     0.028 A 
ATOM      3  C   UNL d   1      33.161  21.507 -22.210  0.00  0.00     0.116 A 
ATOM      4  C   UNL d   1      33.099  21.322 -21.405  0.00  0.00     0.116 A 
ATOM      5  C   UNL d   1      33.001  19.933 -21.732  0.00  0.00     0.004 A 
ATOM      6  C   UNL d   1      33.019  20.539 -21.168  0.00  0.00     0.026 A 
ENDROOT
BRANCH   1   7
ATOM      7  C   UNL d   1      33.046  19.516 -23.100  0.00  0.00     0.127 A 
ATOM      8  C   UNL d   1      32.828  18.736 -22.960  0.00  0.00     0.054 A 
ATOM      9  C   UNL d   1      32.889  18.323 -23.673  0.00  0.00     0.173 A 
ATOM     10  N   UNL d   1      33.145  18.855 -24.250  0.00  0.00    -0.121 NA
ATOM     11  O   UNL d   1      33.240  19.591 -23.889  0.00  0.00    -0.211 OA
BRANCH   9  12
ATOM     12  C   UNL d   1      32.725  17.529 -23.790  0.00  0.00     0.316 C 
ATOM     13  O   UNL d   1      33.234  16.951 -23.486  0.00  0.00    -0.257 OA
BRANCH  12  14
ATOM     14  O   UNL d   1      32.052  17.303 -24.209  0.00  0.00    -0.294 OA
ATOM     15  C   UNL d   1      31.757  16.543 -24.123  0.00  0.00     0.185 C 
ENDBRANCH  12  14
ENDBRANCH   9  12
ENDBRANCH   1   7
BRANCH   3  16
ATOM     16  O   UNL d   1      33.241  22.289 -22.446  0.00  0.00    -0.326 OA
ATOM     17  C   UNL d   1      33.229  22.479 -23.245  0.00  0.00     0.181 C 
ENDBRANCH   3  16
BRANCH   4  18
ATOM     18  O   UNL d   1      33.117  21.921 -20.847  0.00  0.00    -0.326 OA
ATOM     19  C   UNL d   1      33.046  21.738 -20.048  0.00  0.00     0.181 C 
ENDBRANCH   4  18
TORSDOF 5
ENDMDL
MODEL 5
REMARK VINA RESULT:      -1.3      1.828      4.616
REMARK  5 active torsions:
REMARK  status: ('A' for Active; 'I' for Inactive)
REMARK    1  A    between atoms: C_6  and  C_1 
REMARK    2  A    between atoms: C_7  and  C_4 
REMARK    3  A    between atoms: O_14  and  C_6 
REMARK    4  A    between atoms: O_15  and  C_9 
REMARK    5  A    between atoms: O_16  and  C_10 
ROOT
ATOM      1  C   UNL d   1      32.695  22.055 -21.139  0.00  0.00     0.027 A 
ATOM      2  C   UNL d   1      32.727  21.249 -20.949  0.00  0.00     0.028 A 
ATOM      3  C   UNL d   1      32.908  20.695 -21.528  0.00  0.00     0.116 A 
ATOM      4  C   UNL d   1      33.060  20.941 -22.304  0.00  0.00     0.116 A 
ATOM      5  C   UNL d   1      32.847  22.300 -21.915  0.00  0.00     0.004 A 
ATOM      6  C   UNL d   1      33.030  21.738 -22.496  0.00  0.00     0.026 A 
ENDROOT
BRANCH   1   7
ATOM      7  C   UNL d   1      32.513  22.613 -20.560  0.00  0.00     0.127 A 
ATOM      8  C   UNL d   1      32.709  22.557 -19.763  0.00  0.00     0.054 A 
ATOM      9  C   UNL d   1      32.422  23.233 -19.384  0.00  0.00     0.173 A 
ATOM     10  N   UNL d   1      32.050  23.701 -19.951  0.00  0.00    -0.121 NA
ATOM     11  O   UNL d   1      32.110  23.312 -20.677  0.00  0.00    -0.211 OA
BRANCH   9  12
ATOM     12  C   UNL d   1      32.493  23.408 -18.586  0.00  0.00     0.316 C 
ATOM     13  O   UNL d   1      33.241  23.431 -18.230  0.00  0.00    -0.257 OA
BRANCH  12  14
ATOM     14  O   UNL d   1      31.820  23.562 -18.136  0.00  0.00    -0.294 OA
ATOM     15  C   UNL d   1      31.871  23.562 -17.318  0.00  0.00     0.185 C 
ENDBRANCH  12  14
ENDBRANCH   9  12
ENDBRANCH   1   7
BRANCH   3  16
ATOM     16  O   UNL d   1      32.938  19.897 -21.335  0.00  0.00    -0.326 OA
ATOM     17  C   UNL d   1      33.103  19.667 -20.565  0.00  0.00     0.181 C 
ENDBRANCH   3  16
BRANCH   4  18
ATOM     18  O   UNL d   1      33.241  20.385 -22.878  0.00  0.00    -0.326 OA
ATOM     19  C   UNL d   1      33.169  20.582 -23.674  0.00  0.00     0.181 C 
ENDBRANCH   4  18
TORSDOF 5
ENDMDL
MODEL 6
REMARK VINA RESULT:      -0.2      1.454      2.111
REMARK  5 active torsions:
REMARK  status: ('A' for Active; 'I' for Inactive)
REMARK    1  A    between atoms: C_6  and  C_1 
REMARK    2  A    between atoms: C_7  and  C_4 
REMARK    3  A    between atoms: O_14  and  C_6 
REMARK    4  A    between atoms: O_15  and  C_9 
REMARK    5  A    between atoms: O_16  and  C_10 
ROOT
ATOM      1  C   UNL d   1      32.960  21.553 -19.976  0.00  0.00     0.027 A 
ATOM      2  C   UNL d   1      32.645  22.275 -20.232  0.00  0.00     0.028 A 
ATOM      3  C   UNL d   1      32.607  22.914 -19.717  0.00  0.00     0.116 A 
ATOM      4  C   UNL d   1      32.883  22.838 -18.940  0.00  0.00     0.116 A 
ATOM      5  C   UNL d   1      33.236  21.476 -19.199  0.00  0.00     0.004 A 
ATOM      6  C   UNL d   1      33.196  22.123 -18.683  0.00  0.00     0.026 A 
ENDROOT
BRANCH   1   7
ATOM      7  C   UNL d   1      33.000  20.910 -20.491  0.00  0.00     0.127 A 
ATOM      8  C   UNL d   1      32.825  20.929 -21.295  0.00  0.00     0.054 A 
ATOM      9  C   UNL d   1      32.938  20.167 -21.596  0.00  0.00     0.173 A 
ATOM     10  N   UNL d   1      33.181  19.684 -20.974  0.00  0.00    -0.121 NA
ATOM     11  O   UNL d   1      33.218  20.149 -20.293  0.00  0.00    -0.211 OA
BRANCH   9  12
ATOM     12  C   UNL d   1      32.827  19.933 -22.374  0.00  0.00     0.316 C 
ATOM     13  O   UNL d   1      32.352  19.276 -22.546  0.00  0.00    -0.257 OA
BRANCH  12  14
ATOM     14  O   UNL d   1      33.188  20.349 -22.986  0.00  0.00    -0.294 OA
ATOM     15  C   UNL d   1      32.860  20.331 -23.737  0.00  0.00     0.185 C 
ENDBRANCH  12  14
ENDBRANCH   9  12
ENDBRANCH   1   7
BRANCH   3  16
ATOM     16  O   UNL d   1      32.294  23.628 -19.974  0.00  0.00    -0.326 OA
ATOM     17  C   UNL d   1      31.493  23.688 -20.143  0.00  0.00     0.181 C 
ENDBRANCH   3  16
BRANCH   4  18
ATOM     18  O   UNL d   1      32.843  23.477 -18.429  0.00  0.00    -0.326 OA
ATOM     19  C   UNL d   1      33.118  23.401 -17.658  0.00  0.00     0.181 C 
ENDBRANCH   4  18
TORSDOF 5
ENDMDL
