MODEL 1
REMARK VINA RESULT:      46.0      0.000      0.000
REMARK  4 active torsions:
REMARK  status: ('A' for Active; 'I' for Inactive)
REMARK    1  A    between atoms: N_8  and  C_2 
REMARK    2  A    between atoms: C_9  and  C_3 
REMARK       I    between atoms: C_6  and  N_7 
REMARK    3  A    between atoms: C_11  and  C_6 
REMARK    4  A    between atoms: N_7  and  N_8 
ROOT
ATOM      1  N   UNL d   1     -56.191-100.046 -44.598  0.00  0.00    -0.221 NA
ATOM      2  C   UNL d   1     -55.386 -99.928 -44.609  0.00  0.00     0.186 A 
ATOM      3  C   UNL d   1     -56.540 -99.319 -44.663  0.00  0.00     0.090 A 
ATOM      4  S   UNL d   1     -55.240 -99.135 -44.680  0.00  0.00    -0.047 SA
ATOM      5  C   UNL d   1     -55.957 -98.756 -44.714  0.00  0.00     0.058 A 
ENDROOT
BRANCH   2   6
ATOM      6  N   UNL d   1     -54.798-100.527 -44.557  0.00  0.00    -0.275 N 
ATOM      7  H   UNL d   1     -54.313-100.671 -45.206  0.00  0.00     0.189 HD
BRANCH   6   8
ATOM      8  N   UNL d   1     -54.715-100.962 -43.859  0.00  0.00    -0.264 N 
ATOM      9  C   UNL d   1     -54.914-101.764 -43.863  0.00  0.00     0.271 C 
ATOM     10  O   UNL d   1     -54.831-102.198 -43.164  0.00  0.00    -0.266 OA
ATOM     11  H   UNL d   1     -54.438-100.588 -43.186  0.00  0.00     0.190 HD
BRANCH   9  12
ATOM     12  C   UNL d   1     -55.189-102.127 -44.538  0.00  0.00     0.057 A 
ATOM     13  C   UNL d   1     -55.976-102.386 -44.538  0.00  0.00     0.005 A 
ATOM     14  C   UNL d   1     -56.284-102.758 -45.210  0.00  0.00     0.000 A 
ATOM     15  C   UNL d   1     -55.822-102.875 -45.878  0.00  0.00     0.000 A 
ATOM     16  C   UNL d   1     -55.021-102.608 -45.870  0.00  0.00     0.000 A 
ATOM     17  C   UNL d   1     -54.714-102.238 -45.203  0.00  0.00     0.005 A 
ENDBRANCH   9  12
ENDBRANCH   6   8
ENDBRANCH   2   6
BRANCH   3  18
ATOM     18  C   UNL d   1     -57.351 -99.178 -44.674  0.00  0.00     0.018 A 
ATOM     19  C   UNL d   1     -57.783 -99.232 -43.972  0.00  0.00     0.002 A 
ATOM     20  C   UNL d   1     -58.594 -99.093 -43.977  0.00  0.00     0.000 A 
ATOM     21  C   UNL d   1     -58.975 -98.899 -44.690  0.00  0.00     0.000 A 
ATOM     22  C   UNL d   1     -58.543 -98.846 -45.392  0.00  0.00     0.000 A 
ATOM     23  C   UNL d   1     -59.788 -98.758 -44.706  0.00  0.00     0.000 C 
ATOM     24  C   UNL d   1     -57.726 -98.986 -45.383  0.00  0.00     0.002 A 
ENDBRANCH   3  18
TORSDOF 4
ENDMDL
