MODEL 1
REMARK VINA RESULT:      -4.7      0.000      0.000
REMARK  1 active torsions:
REMARK  status: ('A' for Active; 'I' for Inactive)
REMARK    1  A    between atoms: C_2  and  N_1 
ROOT
ATOM      1  C   UNL d   1     -42.147-121.983 -54.561  0.00  0.00     0.130 A 
ATOM      2  C   UNL d   1     -41.815-122.706 -54.622  0.00  0.00     0.067 A 
ATOM      3  C   UNL d   1     -41.467-123.074 -53.964  0.00  0.00     0.215 A 
ATOM      4  C   UNL d   1     -41.465-122.686 -53.235  0.00  0.00     0.120 A 
ATOM      5  C   UNL d   1     -42.155-121.576 -53.837  0.00  0.00     0.025 A 
ATOM      6  C   UNL d   1     -41.815-121.924 -53.171  0.00  0.00     0.022 A 
ATOM      7  N   UNL d   1     -41.126-123.035 -52.574  0.00  0.00    -0.241 NA
ATOM      8  O   UNL d   1     -41.126-123.817 -54.027  0.00  0.00    -0.285 OA
ATOM      9  C   UNL d   1     -41.814-121.537 -52.447  0.00  0.00     0.003 A 
ATOM     10  C   UNL d   1     -41.134-122.628 -51.850  0.00  0.00     0.099 A 
ATOM     11  C   UNL d   1     -41.466-121.905 -51.789  0.00  0.00     0.021 A 
ENDROOT
BRANCH   1  12
ATOM     12  N   UNL d   1     -42.476-121.664 -55.238  0.00  0.00    -0.114 N 
ATOM     13  O   UNL d   1     -42.013-121.179 -55.720  0.00  0.00    -0.532 OA
ATOM     14  O   UNL d   1     -43.252-121.831 -55.423  0.00  0.00    -0.532 OA
ENDBRANCH   1  12
TORSDOF 1
ENDMDL
MODEL 2
REMARK VINA RESULT:      -4.7      1.984      3.440
REMARK  1 active torsions:
REMARK  status: ('A' for Active; 'I' for Inactive)
REMARK    1  A    between atoms: C_2  and  N_1 
ROOT
ATOM      1  C   UNL d   1     -41.630-122.965 -51.242  0.00  0.00     0.130 A 
ATOM      2  C   UNL d   1     -41.469-122.196 -51.381  0.00  0.00     0.067 A 
ATOM      3  C   UNL d   1     -41.296-121.926 -52.147  0.00  0.00     0.215 A 
ATOM      4  C   UNL d   1     -41.291-122.463 -52.774  0.00  0.00     0.120 A 
ATOM      5  C   UNL d   1     -41.630-123.520 -51.859  0.00  0.00     0.025 A 
ATOM      6  C   UNL d   1     -41.461-123.273 -52.628  0.00  0.00     0.022 A 
ATOM      7  N   UNL d   1     -41.123-122.214 -53.538  0.00  0.00    -0.241 NA
ATOM      8  O   UNL d   1     -41.130-121.136 -52.290  0.00  0.00    -0.285 OA
ATOM      9  C   UNL d   1     -41.456-123.808 -53.250  0.00  0.00     0.003 A 
ATOM     10  C   UNL d   1     -41.123-122.769 -54.156  0.00  0.00     0.099 A 
ATOM     11  C   UNL d   1     -41.284-123.538 -54.017  0.00  0.00     0.021 A 
ENDROOT
BRANCH   1  12
ATOM     12  N   UNL d   1     -41.793-123.179 -50.470  0.00  0.00    -0.114 N 
ATOM     13  O   UNL d   1     -42.580-123.240 -50.228  0.00  0.00    -0.532 OA
ATOM     14  O   UNL d   1     -41.177-123.327 -49.957  0.00  0.00    -0.532 OA
ENDBRANCH   1  12
TORSDOF 1
ENDMDL
MODEL 3
REMARK VINA RESULT:      -4.4      1.483      2.247
REMARK  1 active torsions:
REMARK  status: ('A' for Active; 'I' for Inactive)
REMARK    1  A    between atoms: C_2  and  N_1 
ROOT
ATOM      1  C   UNL d   1     -41.234-122.700 -53.196  0.00  0.00     0.130 A 
ATOM      2  C   UNL d   1     -41.209-121.948 -52.931  0.00  0.00     0.067 A 
ATOM      3  C   UNL d   1     -41.175-121.781 -52.118  0.00  0.00     0.215 A 
ATOM      4  C   UNL d   1     -41.165-122.404 -51.577  0.00  0.00     0.120 A 
ATOM      5  C   UNL d   1     -41.226-123.341 -52.668  0.00  0.00     0.025 A 
ATOM      6  C   UNL d   1     -41.191-123.197 -51.856  0.00  0.00     0.022 A 
ATOM      7  N   UNL d   1     -41.131-122.258 -50.770  0.00  0.00    -0.241 NA
ATOM      8  O   UNL d   1     -41.149-121.008 -51.846  0.00  0.00    -0.285 OA
ATOM      9  C   UNL d   1     -41.182-123.817 -51.319  0.00  0.00     0.003 A 
ATOM     10  C   UNL d   1     -41.123-122.899 -50.241  0.00  0.00     0.099 A 
ATOM     11  C   UNL d   1     -41.147-123.651 -50.506  0.00  0.00     0.021 A 
ENDROOT
BRANCH   1  12
ATOM     12  N   UNL d   1     -41.268-122.810 -54.006  0.00  0.00    -0.114 N 
ATOM     13  O   UNL d   1     -41.395-122.158 -54.496  0.00  0.00    -0.532 OA
ATOM     14  O   UNL d   1     -41.175-123.561 -54.311  0.00  0.00    -0.532 OA
ENDBRANCH   1  12
TORSDOF 1
ENDMDL
MODEL 4
REMARK VINA RESULT:      -4.3      1.408      2.697
REMARK  1 active torsions:
REMARK  status: ('A' for Active; 'I' for Inactive)
REMARK    1  A    between atoms: C_2  and  N_1 
ROOT
ATOM      1  C   UNL d   1     -41.598-122.160 -52.735  0.00  0.00     0.130 A 
ATOM      2  C   UNL d   1     -41.323-122.865 -52.991  0.00  0.00     0.067 A 
ATOM      3  C   UNL d   1     -41.405-123.094 -53.785  0.00  0.00     0.215 A 
ATOM      4  C   UNL d   1     -41.775-122.584 -54.318  0.00  0.00     0.120 A 
ATOM      5  C   UNL d   1     -41.974-121.633 -53.256  0.00  0.00     0.025 A 
ATOM      6  C   UNL d   1     -42.064-121.841 -54.049  0.00  0.00     0.022 A 
ATOM      7  N   UNL d   1     -41.864-122.794 -55.107  0.00  0.00    -0.241 NA
ATOM      8  O   UNL d   1     -41.123-123.817 -54.047  0.00  0.00    -0.285 OA
ATOM      9  C   UNL d   1     -42.433-121.334 -54.578  0.00  0.00     0.003 A 
ATOM     10  C   UNL d   1     -42.240-122.267 -55.627  0.00  0.00     0.099 A 
ATOM     11  C   UNL d   1     -42.515-121.562 -55.372  0.00  0.00     0.021 A 
ENDROOT
BRANCH   1  12
ATOM     12  N   UNL d   1     -41.493-121.982 -51.944  0.00  0.00    -0.114 N 
ATOM     13  O   UNL d   1     -41.764-122.513 -51.373  0.00  0.00    -0.532 OA
ATOM     14  O   UNL d   1     -41.123-121.286 -51.736  0.00  0.00    -0.532 OA
ENDBRANCH   1  12
TORSDOF 1
ENDMDL
MODEL 5
REMARK VINA RESULT:      -3.5      3.461      4.960
REMARK  1 active torsions:
REMARK  status: ('A' for Active; 'I' for Inactive)
REMARK    1  A    between atoms: C_2  and  N_1 
ROOT
ATOM      1  C   UNL d   1     -42.233-123.267 -48.973  0.00  0.00     0.130 A 
ATOM      2  C   UNL d   1     -42.749-122.724 -49.248  0.00  0.00     0.067 A 
ATOM      3  C   UNL d   1     -42.749-122.500 -50.049  0.00  0.00     0.215 A 
ATOM      4  C   UNL d   1     -42.207-122.845 -50.566  0.00  0.00     0.120 A 
ATOM      5  C   UNL d   1     -41.680-123.625 -49.478  0.00  0.00     0.025 A 
ATOM      6  C   UNL d   1     -41.663-123.417 -50.276  0.00  0.00     0.022 A 
ATOM      7  N   UNL d   1     -42.192-122.636 -51.360  0.00  0.00    -0.241 NA
ATOM      8  O   UNL d   1     -43.279-121.942 -50.331  0.00  0.00    -0.285 OA
ATOM      9  C   UNL d   1     -41.123-123.761 -50.789  0.00  0.00     0.003 A 
ATOM     10  C   UNL d   1     -41.639-122.995 -51.865  0.00  0.00     0.099 A 
ATOM     11  C   UNL d   1     -41.123-123.538 -51.589  0.00  0.00     0.021 A 
ENDROOT
BRANCH   1  12
ATOM     12  N   UNL d   1     -42.274-123.452 -48.178  0.00  0.00    -0.114 N 
ATOM     13  O   UNL d   1     -42.992-123.707 -47.861  0.00  0.00    -0.532 OA
ATOM     14  O   UNL d   1     -41.606-123.382 -47.716  0.00  0.00    -0.532 OA
ENDBRANCH   1  12
TORSDOF 1
ENDMDL
MODEL 6
REMARK VINA RESULT:      -3.4      2.782      3.878
REMARK  1 active torsions:
REMARK  status: ('A' for Active; 'I' for Inactive)
REMARK    1  A    between atoms: C_2  and  N_1 
ROOT
ATOM      1  C   UNL d   1     -41.678-122.540 -51.097  0.00  0.00     0.130 A 
ATOM      2  C   UNL d   1     -42.425-122.313 -50.935  0.00  0.00     0.067 A 
ATOM      3  C   UNL d   1     -42.775-122.483 -50.201  0.00  0.00     0.215 A 
ATOM      4  C   UNL d   1     -42.342-122.893 -49.631  0.00  0.00     0.120 A 
ATOM      5  C   UNL d   1     -41.226-122.954 -50.537  0.00  0.00     0.025 A 
ATOM      6  C   UNL d   1     -41.554-123.133 -49.802  0.00  0.00     0.022 A 
ATOM      7  N   UNL d   1     -42.672-123.070 -48.900  0.00  0.00    -0.241 NA
ATOM      8  O   UNL d   1     -43.543-122.249 -50.035  0.00  0.00    -0.285 OA
ATOM      9  C   UNL d   1     -41.122-123.541 -49.236  0.00  0.00     0.003 A 
ATOM     10  C   UNL d   1     -42.220-123.484 -48.340  0.00  0.00     0.099 A 
ATOM     11  C   UNL d   1     -41.472-123.711 -48.502  0.00  0.00     0.021 A 
ENDROOT
BRANCH   1  12
ATOM     12  N   UNL d   1     -41.380-122.349 -51.834  0.00  0.00    -0.114 N 
ATOM     13  O   UNL d   1     -41.346-122.931 -52.418  0.00  0.00    -0.532 OA
ATOM     14  O   UNL d   1     -41.123-121.588 -51.976  0.00  0.00    -0.532 OA
ENDBRANCH   1  12
TORSDOF 1
ENDMDL
