MODEL 1
REMARK VINA RESULT:     132.6      0.000      0.000
REMARK  6 active torsions:
REMARK  status: ('A' for Active; 'I' for Inactive)
REMARK    1  A    between atoms: N_6  and  S_1 
REMARK    2  A    between atoms: C_12  and  S_1 
REMARK    3  A    between atoms: C_2  and  N_5 
REMARK    4  A    between atoms: C_4  and  C_7 
REMARK       I    between atoms: N_5  and  C_4 
REMARK    5  A    between atoms: C_10  and  N_6 
REMARK    6  A    between atoms: C_15  and  C_8 
ROOT
ATOM      1  C   UNL d   1      56.900  48.417  50.694  0.00  0.00     0.076 A 
ATOM      2  C   UNL d   1      57.543  48.919  50.757  0.00  0.00     0.098 A 
ATOM      3  C   UNL d   1      56.225  48.552  51.149  0.00  0.00     0.006 A 
ATOM      4  C   UNL d   1      57.518  49.563  51.278  0.00  0.00     0.020 A 
ATOM      5  C   UNL d   1      56.200  49.197  51.669  0.00  0.00     0.000 A 
ATOM      6  C   UNL d   1      56.850  49.703  51.732  0.00  0.00     0.002 A 
ENDROOT
BRANCH   1   7
ATOM      7  C   UNL d   1      56.924  47.775  50.176  0.00  0.00     0.282 C 
ATOM      8  N   UNL d   1      56.952  47.012  50.470  0.00  0.00    -0.183 NA
ATOM      9  O   UNL d   1      56.921  47.905  49.362  0.00  0.00    -0.265 OA
BRANCH   8  10
ATOM     10  C   UNL d   1      56.977  46.367  49.949  0.00  0.00     0.197 A 
ATOM     11  N   UNL d   1      57.276  45.637  50.120  0.00  0.00    -0.221 NA
ATOM     12  C   UNL d   1      57.193  45.163  49.452  0.00  0.00     0.090 A 
ATOM     13  C   UNL d   1      56.833  45.623  48.865  0.00  0.00     0.058 A 
ATOM     14  S   UNL d   1      56.697  46.378  49.175  0.00  0.00    -0.046 SA
BRANCH  12  15
ATOM     15  C   UNL d   1      57.394  44.377  49.297  0.00  0.00     0.018 A 
ATOM     16  C   UNL d   1      56.837  43.770  49.421  0.00  0.00     0.004 A 
ATOM     17  C   UNL d   1      57.041  42.986  49.265  0.00  0.00     0.030 A 
ATOM     18  C   UNL d   1      57.798  42.814  48.987  0.00  0.00     0.140 A 
ATOM     19  C   UNL d   1      58.348  43.411  48.865  0.00  0.00     0.030 A 
ATOM     20  F   UNL d   1      58.004  42.033  48.830  0.00  0.00    -0.204 F 
ATOM     21  C   UNL d   1      58.151  44.192  49.018  0.00  0.00     0.004 A 
ENDBRANCH  12  15
ENDBRANCH   8  10
ENDBRANCH   1   7
BRANCH   2  22
ATOM     22  N   UNL d   1      58.218  48.783  50.303  0.00  0.00    -0.158 NA
BRANCH  22  23
ATOM     23  S   UNL d   1      58.985  48.969  50.612  0.00  0.00     0.285 S 
ATOM     24  O   UNL d   1      59.164  49.348  49.904  0.00  0.00    -0.198 OA
ATOM     25  O   UNL d   1      58.773  48.577  51.320  0.00  0.00    -0.198 OA
BRANCH  23  26
ATOM     26  C   UNL d   1      59.720  49.147  50.910  0.00  0.00     0.105 A 
ATOM     27  C   UNL d   1      59.782  49.460  51.670  0.00  0.00     0.013 A 
ATOM     28  C   UNL d   1      60.548  49.646  51.981  0.00  0.00     0.001 A 
ATOM     29  C   UNL d   1      61.212  49.515  51.529  0.00  0.00     0.000 A 
ATOM     30  C   UNL d   1      61.141  49.197  50.757  0.00  0.00     0.001 A 
ATOM     31  C   UNL d   1      61.946  49.700  51.845  0.00  0.00     0.000 C 
ATOM     32  C   UNL d   1      60.393  49.014  50.452  0.00  0.00     0.013 A 
ENDBRANCH  23  26
ENDBRANCH  22  23
ENDBRANCH   2  22
TORSDOF 6
ENDMDL
