MODEL 1
REMARK VINA RESULT:      34.2      0.000      0.000
REMARK  4 active torsions:
REMARK  status: ('A' for Active; 'I' for Inactive)
REMARK    1  A    between atoms: N_10  and  C_2 
REMARK    2  A    between atoms: N_11  and  C_6 
REMARK    3  A    between atoms: C_12  and  N_11 
REMARK    4  A    between atoms: O_19  and  C_15 
ROOT
ATOM      1  N   UNL d   1      46.188 -18.862  42.663  0.00  0.00    -0.041 NA
ATOM      2  C   UNL d   1      46.193 -18.133  42.379  0.00  0.00     0.738 A 
ATOM      3  C   UNL d   1      46.332 -18.986  43.422  0.00  0.00     0.187 A 
ATOM      4  N   UNL d   1      46.343 -17.525  42.856  0.00  0.00    -0.041 NA
ATOM      5  C   UNL d   1      46.484 -18.380  43.903  0.00  0.00     0.094 A 
ATOM      6  C   UNL d   1      46.490 -17.642  43.620  0.00  0.00     0.185 A 
ATOM      7  N   UNL d   1      46.474 -19.848  44.478  0.00  0.00    -0.162 NA
ATOM      8  N   UNL d   1      46.326 -19.724  43.705  0.00  0.00    -0.208 N 
ATOM      9  C   UNL d   1      46.624 -19.240  44.955  0.00  0.00     0.127 A 
ATOM     10  C   UNL d   1      46.176 -20.329  43.230  0.00  0.00     0.123 C 
ENDROOT
BRANCH   6  11
ATOM     11  N   UNL d   1      46.646 -17.003  44.110  0.00  0.00    -0.226 NA
BRANCH  11  12
ATOM     12  C   UNL d   1      46.058 -16.453  44.274  0.00  0.00     0.085 A 
ATOM     13  C   UNL d   1      46.140 -15.659  44.038  0.00  0.00     0.043 A 
ATOM     14  C   UNL d   1      45.552 -15.104  44.202  0.00  0.00     0.096 A 
ATOM     15  C   UNL d   1      44.867 -15.345  44.608  0.00  0.00     0.024 A 
ATOM     16  C   UNL d   1      44.781 -16.127  44.843  0.00  0.00     0.004 A 
ATOM     17  C   UNL d   1      45.377 -16.683  44.676  0.00  0.00     0.019 A 
BRANCH  14  18
ATOM     18  O   UNL d   1      45.636 -14.318  43.967  0.00  0.00    -0.328 OA
ATOM     19  C   UNL d   1      45.672 -13.598  44.376  0.00  0.00     0.181 C 
ENDBRANCH  14  18
ENDBRANCH  11  12
ENDBRANCH   6  11
BRANCH   2  20
ATOM     20  N   UNL d   1      46.039 -17.998  41.574  0.00  0.00    -0.133 N 
ATOM     21  C   UNL d   1      46.645 -17.754  41.072  0.00  0.00     0.125 A 
ATOM     22  C   UNL d   1      46.491 -17.620  40.271  0.00  0.00     0.142 A 
ATOM     23  O   UNL d   1      45.723 -17.730  39.969  0.00  0.00    -0.300 OA
ATOM     24  C   UNL d   1      45.113 -17.974  40.473  0.00  0.00     0.142 A 
ATOM     25  C   UNL d   1      45.271 -18.108  41.276  0.00  0.00     0.125 A 
ENDBRANCH   2  20
TORSDOF 4
ENDMDL
