MODEL 1
REMARK VINA RESULT:      -5.8      0.000      0.000
REMARK  4 active torsions:
REMARK  status: ('A' for Active; 'I' for Inactive)
REMARK    1  A    between atoms: C_17  and  C_4 
REMARK    2  A    between atoms: C_6  and  C_8 
REMARK       I    between atoms: C_8  and  N_16 
REMARK    3  A    between atoms: N_16  and  C_18 
REMARK    4  A    between atoms: C_18  and  C_17 
ROOT
ATOM      1  C   UNL d   1     -41.502-122.044 -51.550  0.00  0.00     0.042 C 
ENDROOT
BRANCH   1   2
ATOM      2  C   UNL d   1     -41.710-122.351 -50.809  0.00  0.00     0.103 A 
ATOM      3  N   UNL d   1     -42.460-122.330 -50.460  0.00  0.00    -0.221 NA
ATOM      4  C   UNL d   1     -42.411-122.704 -49.718  0.00  0.00     0.179 A 
ATOM      5  N   UNL d   1     -41.628-122.955 -49.611  0.00  0.00    -0.282 N 
ATOM      6  S   UNL d   1     -42.841-122.920 -49.050  0.00  0.00    -0.048 SA
ATOM      7  C   UNL d   1     -41.198-122.735 -50.288  0.00  0.00     0.101 A 
ATOM      8  C   UNL d   1     -41.579-123.325 -48.878  0.00  0.00     0.089 A 
ATOM      9  C   UNL d   1     -42.325-123.305 -48.529  0.00  0.00     0.057 A 
ENDBRANCH   1   2
BRANCH   1  10
ATOM     10  C   UNL d   1     -41.509-122.538 -52.213  0.00  0.00     0.104 C 
BRANCH  10  11
ATOM     11  N   UNL d   1     -41.647-122.218 -52.970  0.00  0.00    -0.206 NA
ATOM     12  C   UNL d   1     -41.677-122.715 -53.631  0.00  0.00     0.285 C 
ATOM     13  O   UNL d   1     -41.571-123.530 -53.538  0.00  0.00    -0.265 OA
BRANCH  12  14
ATOM     14  C   UNL d   1     -41.814-122.399 -54.380  0.00  0.00     0.087 A 
ATOM     15  S   UNL d   1     -41.327-122.497 -55.049  0.00  0.00    -0.082 SA
ATOM     16  C   UNL d   1     -41.675-122.087 -55.675  0.00  0.00     0.036 A 
ATOM     17  C   UNL d   1     -42.375-121.737 -55.387  0.00  0.00     0.008 A 
ATOM     18  C   UNL d   1     -42.447-121.935 -54.600  0.00  0.00     0.012 A 
ENDBRANCH  12  14
ENDBRANCH  10  11
ENDBRANCH   1  10
TORSDOF 4
ENDMDL
MODEL 2
REMARK VINA RESULT:      -5.3      1.114      4.879
REMARK  4 active torsions:
REMARK  status: ('A' for Active; 'I' for Inactive)
REMARK    1  A    between atoms: C_17  and  C_4 
REMARK    2  A    between atoms: C_6  and  C_8 
REMARK       I    between atoms: C_8  and  N_16 
REMARK    3  A    between atoms: N_16  and  C_18 
REMARK    4  A    between atoms: C_18  and  C_17 
ROOT
ATOM      1  C   UNL d   1     -41.177-122.508 -52.011  0.00  0.00     0.042 C 
ENDROOT
BRANCH   1   2
ATOM      2  C   UNL d   1     -41.362-122.473 -52.818  0.00  0.00     0.103 A 
ATOM      3  N   UNL d   1     -41.810-121.889 -53.196  0.00  0.00    -0.221 NA
ATOM      4  C   UNL d   1     -41.852-122.078 -54.005  0.00  0.00     0.179 A 
ATOM      5  N   UNL d   1     -41.429-122.781 -54.124  0.00  0.00    -0.282 N 
ATOM      6  S   UNL d   1     -42.153-121.836 -54.732  0.00  0.00    -0.048 SA
ATOM      7  C   UNL d   1     -41.127-123.021 -53.388  0.00  0.00     0.101 A 
ATOM      8  C   UNL d   1     -41.471-122.968 -54.924  0.00  0.00     0.089 A 
ATOM      9  C   UNL d   1     -41.917-122.387 -55.301  0.00  0.00     0.057 A 
ENDBRANCH   1   2
BRANCH   1  10
ATOM     10  C   UNL d   1     -41.788-122.529 -51.454  0.00  0.00     0.104 C 
BRANCH  10  11
ATOM     11  N   UNL d   1     -41.642-122.814 -50.684  0.00  0.00    -0.206 NA
ATOM     12  C   UNL d   1     -42.228-122.758 -50.103  0.00  0.00     0.285 C 
ATOM     13  O   UNL d   1     -42.959-122.418 -50.287  0.00  0.00    -0.265 OA
BRANCH  12  14
ATOM     14  C   UNL d   1     -42.083-123.040 -49.341  0.00  0.00     0.087 A 
ATOM     15  S   UNL d   1     -42.655-123.167 -48.749  0.00  0.00    -0.082 SA
ATOM     16  C   UNL d   1     -42.265-123.450 -48.080  0.00  0.00     0.036 A 
ATOM     17  C   UNL d   1     -41.453-123.497 -48.264  0.00  0.00     0.008 A 
ATOM     18  C   UNL d   1     -41.357-123.244 -49.033  0.00  0.00     0.012 A 
ENDBRANCH  12  14
ENDBRANCH  10  11
ENDBRANCH   1  10
TORSDOF 4
ENDMDL
MODEL 3
REMARK VINA RESULT:      -5.0      0.960      1.074
REMARK  4 active torsions:
REMARK  status: ('A' for Active; 'I' for Inactive)
REMARK    1  A    between atoms: C_17  and  C_4 
REMARK    2  A    between atoms: C_6  and  C_8 
REMARK       I    between atoms: C_8  and  N_16 
REMARK    3  A    between atoms: N_16  and  C_18 
REMARK    4  A    between atoms: C_18  and  C_17 
ROOT
ATOM      1  C   UNL d   1     -41.509-123.737 -51.156  0.00  0.00     0.042 C 
ENDROOT
BRANCH   1   2
ATOM      2  C   UNL d   1     -41.691-123.612 -50.357  0.00  0.00     0.103 A 
ATOM      3  N   UNL d   1     -42.420-123.368 -50.050  0.00  0.00    -0.221 NA
ATOM      4  C   UNL d   1     -42.349-123.315 -49.223  0.00  0.00     0.179 A 
ATOM      5  N   UNL d   1     -41.573-123.527 -49.021  0.00  0.00    -0.282 N 
ATOM      6  S   UNL d   1     -42.752-123.134 -48.529  0.00  0.00    -0.048 SA
ATOM      7  C   UNL d   1     -41.170-123.710 -49.725  0.00  0.00     0.101 A 
ATOM      8  C   UNL d   1     -41.502-123.475 -48.203  0.00  0.00     0.089 A 
ATOM      9  C   UNL d   1     -42.228-123.233 -47.897  0.00  0.00     0.057 A 
ENDBRANCH   1   2
BRANCH   1  10
ATOM     10  C   UNL d   1     -41.374-123.087 -51.649  0.00  0.00     0.104 C 
BRANCH  10  11
ATOM     11  N   UNL d   1     -41.491-123.156 -52.472  0.00  0.00    -0.206 NA
ATOM     12  C   UNL d   1     -41.366-122.504 -52.965  0.00  0.00     0.285 C 
ATOM     13  O   UNL d   1     -41.123-121.783 -52.640  0.00  0.00    -0.265 OA
BRANCH  12  14
ATOM     14  C   UNL d   1     -41.482-122.573 -53.778  0.00  0.00     0.087 A 
ATOM     15  S   UNL d   1     -41.336-123.252 -54.239  0.00  0.00    -0.082 SA
ATOM     16  C   UNL d   1     -41.528-123.071 -55.020  0.00  0.00     0.036 A 
ATOM     17  C   UNL d   1     -41.793-122.281 -55.037  0.00  0.00     0.008 A 
ATOM     18  C   UNL d   1     -41.759-121.990 -54.276  0.00  0.00     0.012 A 
ENDBRANCH  12  14
ENDBRANCH  10  11
ENDBRANCH   1  10
TORSDOF 4
ENDMDL
