MODEL 1
REMARK VINA RESULT:      30.2      0.000      0.000
REMARK  3 active torsions:
REMARK  status: ('A' for Active; 'I' for Inactive)
REMARK    1  A    between atoms: N_2  and  C_1 
REMARK    2  A    between atoms: C_5  and  C_4 
REMARK       I    between atoms: N_6  and  C_5 
REMARK    3  A    between atoms: C_9  and  N_6 
ROOT
ATOM      1  C   UNL d   1     -50.848  24.472  33.548  0.00  0.00     0.285 C 
ATOM      2  N   UNL d   1     -50.458  25.198  33.608  0.00  0.00    -0.205 NA
ATOM      3  O   UNL d   1     -50.441  23.786  33.415  0.00  0.00    -0.265 OA
ENDROOT
BRANCH   1   4
ATOM      4  C   UNL d   1     -51.664  24.430  33.620  0.00  0.00     0.089 A 
ATOM      5  S   UNL d   1     -52.052  23.854  34.016  0.00  0.00    -0.059 SA
ATOM      6  C   UNL d   1     -52.852  23.973  33.984  0.00  0.00     0.156 A 
ATOM      7  C   UNL d   1     -52.977  24.676  33.534  0.00  0.00     0.031 A 
ATOM      8  C   UNL d   1     -52.231  24.961  33.307  0.00  0.00     0.014 A 
BRANCH   6   9
ATOM      9  N   UNL d   1     -53.410  23.500  34.322  0.00  0.00    -0.107 N 
ATOM     10  O   UNL d   1     -53.390  23.189  35.089  0.00  0.00    -0.531 OA
ATOM     11  O   UNL d   1     -54.074  23.266  33.945  0.00  0.00    -0.531 OA
ENDBRANCH   6   9
ENDBRANCH   1   4
BRANCH   2  12
ATOM     12  C   UNL d   1     -50.887  25.877  33.742  0.00  0.00     0.112 A 
ATOM     13  C   UNL d   1     -50.627  26.421  34.305  0.00  0.00     0.158 A 
ATOM     14  F   UNL d   1     -49.931  26.282  34.739  0.00  0.00    -0.203 F 
ATOM     15  C   UNL d   1     -51.056  27.100  34.439  0.00  0.00     0.031 A 
ATOM     16  C   UNL d   1     -51.747  27.241  34.010  0.00  0.00     0.002 A 
ATOM     17  C   UNL d   1     -52.010  26.713  33.455  0.00  0.00     0.002 A 
ATOM     18  C   UNL d   1     -51.578  26.018  33.313  0.00  0.00     0.021 A 
ENDBRANCH   2  12
TORSDOF 3
ENDMDL
MODEL 2
REMARK VINA RESULT:      32.2      2.147      3.001
REMARK  3 active torsions:
REMARK  status: ('A' for Active; 'I' for Inactive)
REMARK    1  A    between atoms: N_2  and  C_1 
REMARK    2  A    between atoms: C_5  and  C_4 
REMARK       I    between atoms: N_6  and  C_5 
REMARK    3  A    between atoms: C_9  and  N_6 
ROOT
ATOM      1  C   UNL d   1     -50.251  25.709  33.539  0.00  0.00     0.285 C 
ATOM      2  N   UNL d   1     -50.233  24.915  33.312  0.00  0.00    -0.205 NA
ATOM      3  O   UNL d   1     -49.581  26.162  33.534  0.00  0.00    -0.265 OA
ENDROOT
BRANCH   1   4
ATOM      4  C   UNL d   1     -50.954  26.059  33.775  0.00  0.00     0.089 A 
ATOM      5  S   UNL d   1     -51.316  26.654  33.382  0.00  0.00    -0.059 SA
ATOM      6  C   UNL d   1     -51.997  26.875  33.759  0.00  0.00     0.156 A 
ATOM      7  C   UNL d   1     -52.069  26.382  34.440  0.00  0.00     0.031 A 
ATOM      8  C   UNL d   1     -51.414  25.872  34.448  0.00  0.00     0.014 A 
BRANCH   6   9
ATOM      9  N   UNL d   1     -52.500  27.456  33.517  0.00  0.00    -0.107 N 
ATOM     10  O   UNL d   1     -53.296  27.360  33.308  0.00  0.00    -0.531 OA
ATOM     11  O   UNL d   1     -52.284  28.221  33.446  0.00  0.00    -0.531 OA
ENDBRANCH   6   9
ENDBRANCH   1   4
BRANCH   2  12
ATOM     12  C   UNL d   1     -50.918  24.476  33.323  0.00  0.00     0.112 A 
ATOM     13  C   UNL d   1     -50.877  23.652  33.336  0.00  0.00     0.158 A 
ATOM     14  F   UNL d   1     -50.141  23.265  33.336  0.00  0.00    -0.203 F 
ATOM     15  C   UNL d   1     -51.562  23.213  33.347  0.00  0.00     0.031 A 
ATOM     16  C   UNL d   1     -52.294  23.594  33.346  0.00  0.00     0.002 A 
ATOM     17  C   UNL d   1     -52.346  24.402  33.334  0.00  0.00     0.002 A 
ATOM     18  C   UNL d   1     -51.651  24.857  33.323  0.00  0.00     0.021 A 
ENDBRANCH   2  12
TORSDOF 3
ENDMDL
