MODEL 1
REMARK VINA RESULT:      -3.1      0.000      0.000
REMARK  4 active torsions:
REMARK  status: ('A' for Active; 'I' for Inactive)
REMARK    1  A    between atoms: C_8  and  N_1 
REMARK    2  A    between atoms: C_11  and  C_13 
REMARK       I    between atoms: N_14  and  C_11 
REMARK    3  A    between atoms: C_18  and  N_14 
REMARK    4  A    between atoms: C_20  and  C_18 
ROOT
ATOM      1  C   UNL d   1      58.337   0.250  30.939  0.00  0.00     0.066 A 
ATOM      2  C   UNL d   1      58.228  -0.267  30.305  0.00  0.00     0.022 A 
ATOM      3  C   UNL d   1      58.829  -0.352  29.741  0.00  0.00     0.059 A 
ATOM      4  C   UNL d   1      59.041   0.682  31.015  0.00  0.00     0.017 A 
ATOM      5  C   UNL d   1      59.533   0.081  29.818  0.00  0.00     0.005 A 
ATOM      6  C   UNL d   1      59.634   0.594  30.453  0.00  0.00     0.002 A 
ENDROOT
BRANCH   1   7
ATOM      7  N   UNL d   1      57.745   0.338  31.501  0.00  0.00    -0.261 N 
ATOM      8  C   UNL d   1      58.035   0.327  32.271  0.00  0.00     0.174 A 
ATOM      9  O   UNL d   1      57.693   0.392  33.024  0.00  0.00    -0.316 OA
ATOM     10  C   UNL d   1      56.868   0.453  31.838  0.00  0.00     0.079 A 
ATOM     11  C   UNL d   1      58.827   0.239  32.469  0.00  0.00     0.055 C 
ATOM     12  C   UNL d   1      56.929   0.492  33.313  0.00  0.00     0.094 A 
ATOM     13  C   UNL d   1      57.000   0.510  34.141  0.00  0.00     0.024 A 
ATOM     14  C   UNL d   1      56.182   0.570  32.971  0.00  0.00     0.022 A 
ATOM     15  C   UNL d   1      56.331   0.604  34.612  0.00  0.00     0.002 A 
ATOM     16  C   UNL d   1      55.587   0.682  34.262  0.00  0.00    -0.000 A 
ATOM     17  C   UNL d   1      55.512   0.665  33.442  0.00  0.00    -0.001 A 
ATOM     18  C   UNL d   1      55.892   0.581  32.202  0.00  0.00     0.137 A 
ATOM     19  N   UNL d   1      56.229   0.517  31.441  0.00  0.00    -0.216 NA
ATOM     20  C   UNL d   1      56.992   0.417  31.152  0.00  0.00     0.348 A 
ATOM     21  O   UNL d   1      57.021   0.387  30.334  0.00  0.00    -0.245 OA
ENDBRANCH   1   7
BRANCH   3  22
ATOM     22  C   UNL d   1      58.719  -0.868  29.107  0.00  0.00     0.279 C 
ATOM     23  N   UNL d   1      59.065  -1.614  29.120  0.00  0.00    -0.206 NA
ATOM     24  O   UNL d   1      58.261  -0.631  28.462  0.00  0.00    -0.265 OA
BRANCH  23  25
ATOM     25  C   UNL d   1      58.954  -2.131  28.483  0.00  0.00     0.102 C 
BRANCH  25  26
ATOM     26  C   UNL d   1      59.333  -2.861  28.480  0.00  0.00     0.019 A 
ATOM     27  C   UNL d   1      60.157  -2.906  28.475  0.00  0.00     0.002 A 
ATOM     28  C   UNL d   1      60.528  -3.641  28.472  0.00  0.00     0.000 A 
ATOM     29  C   UNL d   1      60.087  -4.337  28.473  0.00  0.00     0.000 A 
ATOM     30  C   UNL d   1      59.257  -4.289  28.478  0.00  0.00     0.000 A 
ATOM     31  C   UNL d   1      58.883  -3.557  28.481  0.00  0.00     0.002 A 
ENDBRANCH  25  26
ENDBRANCH  23  25
ENDBRANCH   3  22
TORSDOF 4
ENDMDL
