MODEL 1
REMARK VINA RESULT:      66.2      0.000      0.000
REMARK  8 active torsions:
REMARK  status: ('A' for Active; 'I' for Inactive)
REMARK    1  A    between atoms: C_5  and  C_1 
REMARK    2  A    between atoms: C_9  and  N_2 
REMARK    3  A    between atoms: C_8  and  C_5 
REMARK    4  A    between atoms: C_7  and  C_9 
REMARK       I    between atoms: N_12  and  C_7 
REMARK       I    between atoms: N_10  and  C_8 
REMARK    5  A    between atoms: C_20  and  N_10 
REMARK    6  A    between atoms: C_11  and  C_20 
REMARK    7  A    between atoms: C_23  and  N_12 
REMARK    8  A    between atoms: C_24  and  N_12 
ROOT
ATOM      1  C   UNL d   1     -55.468-100.096 -43.750  0.00  0.00     0.063 A 
ATOM      2  N   UNL d   1     -54.996-101.232 -43.220  0.00  0.00    -0.300 N 
ATOM      3  C   UNL d   1     -55.241-100.467 -43.035  0.00  0.00     0.084 A 
ATOM      4  C   UNL d   1     -55.359-100.636 -44.364  0.00  0.00     0.021 A 
ATOM      5  C   UNL d   1     -55.064-101.343 -44.030  0.00  0.00     0.064 A 
ATOM      6  C   UNL d   1     -55.484-100.586 -45.169  0.00  0.00     0.002 A 
ATOM      7  C   UNL d   1     -54.903-101.986 -44.522  0.00  0.00     0.018 A 
ATOM      8  C   UNL d   1     -55.322-101.231 -45.664  0.00  0.00     0.000 A 
ATOM      9  C   UNL d   1     -55.031-101.930 -45.333  0.00  0.00     0.002 A 
ENDROOT
BRANCH   1  10
ATOM     10  C   UNL d   1     -55.749 -99.326 -43.821  0.00  0.00     0.254 C 
ATOM     11  O   UNL d   1     -55.476 -98.848 -44.439  0.00  0.00    -0.281 OA
BRANCH  10  12
ATOM     12  C   UNL d   1     -56.300 -99.029 -43.284  0.00  0.00     0.318 C 
ATOM     13  N   UNL d   1     -57.029 -98.755 -43.554  0.00  0.00    -0.202 NA
ATOM     14  O   UNL d   1     -56.113 -99.010 -42.483  0.00  0.00    -0.262 OA
BRANCH  13  15
ATOM     15  C   UNL d   1     -57.204 -98.779 -44.350  0.00  0.00     0.127 C 
BRANCH  15  16
ATOM     16  C   UNL d   1     -57.975 -98.894 -44.597  0.00  0.00     0.119 A 
ATOM     17  O   UNL d   1     -58.221 -99.171 -45.338  0.00  0.00    -0.304 OA
ATOM     18  C   UNL d   1     -59.047 -99.203 -45.352  0.00  0.00     0.123 A 
ATOM     19  C   UNL d   1     -59.325 -98.942 -44.609  0.00  0.00     0.029 A 
ATOM     20  C   UNL d   1     -58.672 -98.755 -44.153  0.00  0.00     0.028 A 
ENDBRANCH  15  16
ENDBRANCH  13  15
ENDBRANCH  10  12
ENDBRANCH   1  10
BRANCH   2  21
ATOM     21  C   UNL d   1     -54.725-101.793 -42.678  0.00  0.00     0.142 C 
BRANCH  21  22
ATOM     22  C   UNL d   1     -55.258-102.267 -42.274  0.00  0.00     0.282 C 
ATOM     23  N   UNL d   1     -55.258-102.281 -41.449  0.00  0.00    -0.271 N 
ATOM     24  O   UNL d   1     -55.797-102.732 -42.695  0.00  0.00    -0.265 OA
BRANCH  23  25
ATOM     25  C   UNL d   1     -55.797-102.761 -41.045  0.00  0.00     0.083 C 
ATOM     26  C   UNL d   1     -55.924-102.648 -40.238  0.00  0.00     0.021 C 
ENDBRANCH  23  25
BRANCH  23  27
ATOM     27  C   UNL d   1     -54.722-101.819 -41.028  0.00  0.00     0.083 C 
ATOM     28  C   UNL d   1     -54.764-101.783 -40.209  0.00  0.00     0.021 C 
ENDBRANCH  23  27
ENDBRANCH  21  22
ENDBRANCH   2  21
TORSDOF 8
ENDMDL
