MODEL 1
REMARK VINA RESULT:      -7.0      0.000      0.000
REMARK  4 active torsions:
REMARK  status: ('A' for Active; 'I' for Inactive)
REMARK    1  A    between atoms: N_3  and  C_1 
REMARK       I    between atoms: C_7  and  N_3 
REMARK    2  A    between atoms: C_12  and  N_3 
REMARK    3  A    between atoms: C_17  and  C_12 
REMARK    4  A    between atoms: N_18  and  C_17 
ROOT
ATOM      1  C   UNL d   1      52.654  32.813  53.281  0.00  0.00     0.182 A 
ATOM      2  N   UNL d   1      51.975  32.937  53.752  0.00  0.00    -0.222 NA
ATOM      3  S   UNL d   1      52.536  33.200  52.555  0.00  0.00    -0.048 SA
ATOM      4  C   UNL d   1      51.444  33.397  53.318  0.00  0.00     0.092 A 
ATOM      5  C   UNL d   1      51.786  33.559  52.586  0.00  0.00     0.052 A 
ATOM      6  C   UNL d   1      50.701  33.682  53.503  0.00  0.00     0.046 A 
ATOM      7  C   UNL d   1      51.373  34.013  52.037  0.00  0.00     0.034 A 
ATOM      8  C   UNL d   1      50.298  34.132  52.953  0.00  0.00     0.121 A 
ATOM      9  C   UNL d   1      50.629  34.297  52.226  0.00  0.00     0.120 A 
ATOM     10  O   UNL d   1      50.091  34.759  51.794  0.00  0.00    -0.300 OA
ATOM     11  O   UNL d   1      49.549  34.492  52.979  0.00  0.00    -0.299 OA
ATOM     12  C   UNL d   1      49.419  34.881  52.263  0.00  0.00     0.304 A 
ENDROOT
BRANCH   1  13
ATOM     13  N   UNL d   1      53.324  32.378  53.506  0.00  0.00    -0.251 N 
ATOM     14  C   UNL d   1      53.317  31.555  53.409  0.00  0.00     0.267 C 
ATOM     15  O   UNL d   1      52.661  31.178  53.097  0.00  0.00    -0.267 OA
ATOM     16  C   UNL d   1      53.986  31.120  53.634  0.00  0.00     0.066 C 
BRANCH  13  17
ATOM     17  C   UNL d   1      53.986  32.760  53.821  0.00  0.00     0.104 C 
BRANCH  17  18
ATOM     18  C   UNL d   1      54.113  32.760  54.636  0.00  0.00     0.100 C 
BRANCH  18  19
ATOM     19  N   UNL d   1      54.680  33.265  54.966  0.00  0.00    -0.299 N 
ATOM     20  C   UNL d   1      54.629  33.478  55.761  0.00  0.00     0.100 C 
ATOM     21  C   UNL d   1      55.296  33.555  54.501  0.00  0.00     0.100 C 
ENDBRANCH  18  19
ENDBRANCH  17  18
ENDBRANCH  13  17
ENDBRANCH   1  13
TORSDOF 4
ENDMDL
MODEL 2
REMARK VINA RESULT:      -6.8      1.130      2.029
REMARK  4 active torsions:
REMARK  status: ('A' for Active; 'I' for Inactive)
REMARK    1  A    between atoms: N_3  and  C_1 
REMARK       I    between atoms: C_7  and  N_3 
REMARK    2  A    between atoms: C_12  and  N_3 
REMARK    3  A    between atoms: C_17  and  C_12 
REMARK    4  A    between atoms: N_18  and  C_17 
ROOT
ATOM      1  C   UNL d   1      52.551  33.026  53.269  0.00  0.00     0.182 A 
ATOM      2  N   UNL d   1      52.294  33.147  52.483  0.00  0.00    -0.222 NA
ATOM      3  S   UNL d   1      51.994  33.375  53.777  0.00  0.00    -0.048 SA
ATOM      4  C   UNL d   1      51.585  33.567  52.509  0.00  0.00     0.092 A 
ATOM      5  C   UNL d   1      51.399  33.707  53.300  0.00  0.00     0.052 A 
ATOM      6  C   UNL d   1      51.093  33.834  51.912  0.00  0.00     0.046 A 
ATOM      7  C   UNL d   1      50.712  34.120  53.489  0.00  0.00     0.034 A 
ATOM      8  C   UNL d   1      50.414  34.243  52.108  0.00  0.00     0.121 A 
ATOM      9  C   UNL d   1      50.223  34.386  52.888  0.00  0.00     0.120 A 
ATOM     10  O   UNL d   1      49.509  34.808  52.908  0.00  0.00    -0.300 OA
ATOM     11  O   UNL d   1      49.817  34.577  51.635  0.00  0.00    -0.299 OA
ATOM     12  C   UNL d   1      49.256  34.927  52.128  0.00  0.00     0.304 A 
ENDROOT
BRANCH   1  13
ATOM     13  N   UNL d   1      53.242  32.626  53.494  0.00  0.00    -0.251 N 
ATOM     14  C   UNL d   1      53.960  33.041  53.500  0.00  0.00     0.267 C 
ATOM     15  O   UNL d   1      53.986  33.831  53.288  0.00  0.00    -0.267 OA
ATOM     16  C   UNL d   1      54.651  32.642  53.724  0.00  0.00     0.066 C 
BRANCH  13  17
ATOM     17  C   UNL d   1      53.216  31.828  53.708  0.00  0.00     0.104 C 
BRANCH  17  18
ATOM     18  C   UNL d   1      53.403  31.245  53.155  0.00  0.00     0.100 C 
BRANCH  18  19
ATOM     19  N   UNL d   1      53.224  30.453  53.311  0.00  0.00    -0.299 N 
ATOM     20  C   UNL d   1      53.529  30.086  53.983  0.00  0.00     0.100 C 
ATOM     21  C   UNL d   1      52.739  30.030  52.795  0.00  0.00     0.100 C 
ENDBRANCH  18  19
ENDBRANCH  17  18
ENDBRANCH  13  17
ENDBRANCH   1  13
TORSDOF 4
ENDMDL
MODEL 3
REMARK VINA RESULT:      -6.4      1.947      4.223
REMARK  4 active torsions:
REMARK  status: ('A' for Active; 'I' for Inactive)
REMARK    1  A    between atoms: N_3  and  C_1 
REMARK       I    between atoms: C_7  and  N_3 
REMARK    2  A    between atoms: C_12  and  N_3 
REMARK    3  A    between atoms: C_17  and  C_12 
REMARK    4  A    between atoms: N_18  and  C_17 
ROOT
ATOM      1  C   UNL d   1      52.746  32.793  53.209  0.00  0.00     0.182 A 
ATOM      2  N   UNL d   1      52.571  32.160  52.692  0.00  0.00    -0.222 NA
ATOM      3  S   UNL d   1      53.063  32.473  53.907  0.00  0.00    -0.048 SA
ATOM      4  C   UNL d   1      52.779  31.457  53.071  0.00  0.00     0.092 A 
ATOM      5  C   UNL d   1      53.081  31.648  53.815  0.00  0.00     0.052 A 
ATOM      6  C   UNL d   1      52.730  30.678  52.828  0.00  0.00     0.046 A 
ATOM      7  C   UNL d   1      53.334  31.045  54.316  0.00  0.00     0.034 A 
ATOM      8  C   UNL d   1      52.984  30.086  53.332  0.00  0.00     0.121 A 
ATOM      9  C   UNL d   1      53.283  30.266  54.069  0.00  0.00     0.120 A 
ATOM     10  O   UNL d   1      53.491  29.556  54.445  0.00  0.00    -0.300 OA
ATOM     11  O   UNL d   1      53.003  29.260  53.244  0.00  0.00    -0.299 OA
ATOM     12  C   UNL d   1      53.316  28.930  53.932  0.00  0.00     0.304 A 
ENDROOT
BRANCH   1  13
ATOM     13  N   UNL d   1      52.622  33.597  53.045  0.00  0.00    -0.251 N 
ATOM     14  C   UNL d   1      53.178  34.150  53.313  0.00  0.00     0.267 C 
ATOM     15  O   UNL d   1      53.838  33.908  53.732  0.00  0.00    -0.267 OA
ATOM     16  C   UNL d   1      53.054  34.954  53.150  0.00  0.00     0.066 C 
BRANCH  13  17
ATOM     17  C   UNL d   1      51.955  33.842  52.621  0.00  0.00     0.104 C 
BRANCH  17  18
ATOM     18  C   UNL d   1      51.314  34.176  53.018  0.00  0.00     0.100 C 
BRANCH  18  19
ATOM     19  N   UNL d   1      50.610  34.330  52.612  0.00  0.00    -0.299 N 
ATOM     20  C   UNL d   1      49.932  34.548  53.028  0.00  0.00     0.100 C 
ATOM     21  C   UNL d   1      50.586  34.267  51.790  0.00  0.00     0.100 C 
ENDBRANCH  18  19
ENDBRANCH  17  18
ENDBRANCH  13  17
ENDBRANCH   1  13
TORSDOF 4
ENDMDL
MODEL 4
REMARK VINA RESULT:      -6.1      2.089      3.143
REMARK  4 active torsions:
REMARK  status: ('A' for Active; 'I' for Inactive)
REMARK    1  A    between atoms: N_3  and  C_1 
REMARK       I    between atoms: C_7  and  N_3 
REMARK    2  A    between atoms: C_12  and  N_3 
REMARK    3  A    between atoms: C_17  and  C_12 
REMARK    4  A    between atoms: N_18  and  C_17 
ROOT
ATOM      1  C   UNL d   1      53.284  31.670  53.638  0.00  0.00     0.182 A 
ATOM      2  N   UNL d   1      52.630  32.190  53.607  0.00  0.00    -0.222 NA
ATOM      3  S   UNL d   1      53.933  32.094  53.936  0.00  0.00    -0.048 SA
ATOM      4  C   UNL d   1      52.877  32.927  53.883  0.00  0.00     0.092 A 
ATOM      5  C   UNL d   1      53.674  32.870  54.085  0.00  0.00     0.052 A 
ATOM      6  C   UNL d   1      52.474  33.633  53.973  0.00  0.00     0.046 A 
ATOM      7  C   UNL d   1      54.066  33.531  54.380  0.00  0.00     0.034 A 
ATOM      8  C   UNL d   1      52.870  34.284  54.267  0.00  0.00     0.121 A 
ATOM      9  C   UNL d   1      53.659  34.236  54.469  0.00  0.00     0.120 A 
ATOM     10  O   UNL d   1      53.901  34.980  54.746  0.00  0.00    -0.300 OA
ATOM     11  O   UNL d   1      52.615  35.061  54.417  0.00  0.00    -0.299 OA
ATOM     12  C   UNL d   1      53.252  35.493  54.714  0.00  0.00     0.304 A 
ENDROOT
BRANCH   1  13
ATOM     13  N   UNL d   1      53.277  30.873  53.410  0.00  0.00    -0.251 N 
ATOM     14  C   UNL d   1      53.002  30.676  52.653  0.00  0.00     0.267 C 
ATOM     15  O   UNL d   1      52.742  31.258  52.140  0.00  0.00    -0.267 OA
ATOM     16  C   UNL d   1      52.995  29.879  52.424  0.00  0.00     0.066 C 
BRANCH  13  17
ATOM     17  C   UNL d   1      53.540  30.285  53.928  0.00  0.00     0.104 C 
BRANCH  17  18
ATOM     18  C   UNL d   1      53.017  29.706  54.195  0.00  0.00     0.100 C 
BRANCH  18  19
ATOM     19  N   UNL d   1      53.250  29.178  54.787  0.00  0.00    -0.299 N 
ATOM     20  C   UNL d   1      53.694  28.510  54.594  0.00  0.00     0.100 C 
ATOM     21  C   UNL d   1      53.040  29.319  55.572  0.00  0.00     0.100 C 
ENDBRANCH  18  19
ENDBRANCH  17  18
ENDBRANCH  13  17
ENDBRANCH   1  13
TORSDOF 4
ENDMDL
MODEL 5
REMARK VINA RESULT:      -5.4      1.947      4.463
REMARK  4 active torsions:
REMARK  status: ('A' for Active; 'I' for Inactive)
REMARK    1  A    between atoms: N_3  and  C_1 
REMARK       I    between atoms: C_7  and  N_3 
REMARK    2  A    between atoms: C_12  and  N_3 
REMARK    3  A    between atoms: C_17  and  C_12 
REMARK    4  A    between atoms: N_18  and  C_17 
ROOT
ATOM      1  C   UNL d   1      51.121  34.246  52.934  0.00  0.00     0.182 A 
ATOM      2  N   UNL d   1      51.639  34.853  53.181  0.00  0.00    -0.222 NA
ATOM      3  S   UNL d   1      51.414  33.525  53.224  0.00  0.00    -0.048 SA
ATOM      4  C   UNL d   1      52.245  34.506  53.620  0.00  0.00     0.092 A 
ATOM      5  C   UNL d   1      52.109  33.693  53.647  0.00  0.00     0.052 A 
ATOM      6  C   UNL d   1      52.897  34.832  53.993  0.00  0.00     0.046 A 
ATOM      7  C   UNL d   1      52.634  33.207  54.054  0.00  0.00     0.034 A 
ATOM      8  C   UNL d   1      53.413  34.342  54.395  0.00  0.00     0.121 A 
ATOM      9  C   UNL d   1      53.285  33.537  54.426  0.00  0.00     0.120 A 
ATOM     10  O   UNL d   1      53.898  33.194  54.868  0.00  0.00    -0.300 OA
ATOM     11  O   UNL d   1      54.108  34.506  54.819  0.00  0.00    -0.299 OA
ATOM     12  C   UNL d   1      54.410  33.797  55.113  0.00  0.00     0.304 A 
ENDROOT
BRANCH   1  13
ATOM     13  N   UNL d   1      50.436  34.353  52.478  0.00  0.00    -0.251 N 
ATOM     14  C   UNL d   1      50.482  34.252  51.656  0.00  0.00     0.267 C 
ATOM     15  O   UNL d   1      51.191  34.049  51.301  0.00  0.00    -0.267 OA
ATOM     16  C   UNL d   1      49.798  34.360  51.201  0.00  0.00     0.066 C 
BRANCH  13  17
ATOM     17  C   UNL d   1      49.720  34.558  52.837  0.00  0.00     0.104 C 
BRANCH  17  18
ATOM     18  C   UNL d   1      49.399  35.309  52.719  0.00  0.00     0.100 C 
BRANCH  18  19
ATOM     19  N   UNL d   1      48.696  35.523  53.100  0.00  0.00    -0.299 N 
ATOM     20  C   UNL d   1      48.711  35.770  53.886  0.00  0.00     0.100 C 
ATOM     21  C   UNL d   1      47.979  35.490  52.693  0.00  0.00     0.100 C 
ENDBRANCH  18  19
ENDBRANCH  17  18
ENDBRANCH  13  17
ENDBRANCH   1  13
TORSDOF 4
ENDMDL
