MODEL 1
REMARK VINA RESULT:      41.0      0.000      0.000
REMARK  5 active torsions:
REMARK  status: ('A' for Active; 'I' for Inactive)
REMARK    1  A    between atoms: O_6  and  C_1 
REMARK    2  A    between atoms: C_2  and  C_4 
REMARK    3  A    between atoms: O_7  and  C_3 
REMARK    4  A    between atoms: C_8  and  O_6 
REMARK    5  A    between atoms: C_9  and  O_7 
ROOT
ATOM      1  C   UNL d   1      60.477  48.758  50.866  0.00  0.00     0.126 A 
ATOM      2  C   UNL d   1      59.730  49.096  50.785  0.00  0.00     0.126 A 
ATOM      3  C   UNL d   1      60.603  49.360  52.161  0.00  0.00     0.067 A 
ATOM      4  C   UNL d   1      60.915  48.888  51.553  0.00  0.00     0.033 A 
ATOM      5  C   UNL d   1      59.418  49.568  51.393  0.00  0.00     0.027 A 
ATOM      6  C   UNL d   1      59.857  49.695  52.075  0.00  0.00     0.008 A 
ENDROOT
BRANCH   1   7
ATOM      7  O   UNL d   1      60.787  48.289  50.262  0.00  0.00    -0.271 OA
BRANCH   7   8
ATOM      8  C   UNL d   1      61.210  47.606  50.444  0.00  0.00     0.300 C 
ATOM      9  O   UNL d   1      60.808  46.925  50.725  0.00  0.00    -0.259 OA
ATOM     10  C   UNL d   1      62.029  47.593  50.350  0.00  0.00     0.074 C 
ENDBRANCH   7   8
ENDBRANCH   1   7
BRANCH   2  11
ATOM     11  O   UNL d   1      59.284  48.962  50.082  0.00  0.00    -0.271 OA
BRANCH  11  12
ATOM     12  C   UNL d   1      58.616  49.414  49.926  0.00  0.00     0.300 C 
ATOM     13  O   UNL d   1      58.440  49.640  49.152  0.00  0.00    -0.259 OA
ATOM     14  C   UNL d   1      58.119  49.642  50.551  0.00  0.00     0.074 C 
ENDBRANCH  11  12
ENDBRANCH   2  11
BRANCH   3  15
ATOM     15  C   UNL d   1      61.042  49.500  52.867  0.00  0.00     0.211 C 
ATOM     16  O   UNL d   1      60.644  49.494  53.591  0.00  0.00    -0.644 OA
ATOM     17  O   UNL d   1      61.864  49.641  52.829  0.00  0.00    -0.644 OA
ENDBRANCH   3  15
TORSDOF 5
ENDMDL
MODEL 2
REMARK VINA RESULT:      41.2      1.206      2.979
REMARK  5 active torsions:
REMARK  status: ('A' for Active; 'I' for Inactive)
REMARK    1  A    between atoms: O_6  and  C_1 
REMARK    2  A    between atoms: C_2  and  C_4 
REMARK    3  A    between atoms: O_7  and  C_3 
REMARK    4  A    between atoms: C_8  and  O_6 
REMARK    5  A    between atoms: C_9  and  O_7 
ROOT
ATOM      1  C   UNL d   1      59.981  49.606  51.032  0.00  0.00     0.126 A 
ATOM      2  C   UNL d   1      60.249  49.640  50.254  0.00  0.00     0.126 A 
ATOM      3  C   UNL d   1      58.627  49.644  50.563  0.00  0.00     0.067 A 
ATOM      4  C   UNL d   1      59.171  49.607  51.189  0.00  0.00     0.033 A 
ATOM      5  C   UNL d   1      59.704  49.677  49.628  0.00  0.00     0.027 A 
ATOM      6  C   UNL d   1      58.899  49.678  49.788  0.00  0.00     0.008 A 
ENDROOT
BRANCH   1   7
ATOM      7  O   UNL d   1      60.522  49.570  51.654  0.00  0.00    -0.271 OA
BRANCH   7   8
ATOM      8  C   UNL d   1      60.267  49.372  52.413  0.00  0.00     0.300 C 
ATOM      9  O   UNL d   1      59.484  49.092  52.534  0.00  0.00    -0.259 OA
ATOM     10  C   UNL d   1      60.782  49.450  53.052  0.00  0.00     0.074 C 
ENDBRANCH   7   8
ENDBRANCH   1   7
BRANCH   2  11
ATOM     11  O   UNL d   1      61.076  49.639  50.095  0.00  0.00    -0.271 OA
BRANCH  11  12
ATOM     12  C   UNL d   1      61.472  48.928  49.981  0.00  0.00     0.300 C 
ATOM     13  O   UNL d   1      61.388  48.516  49.270  0.00  0.00    -0.259 OA
ATOM     14  C   UNL d   1      61.957  48.627  50.583  0.00  0.00     0.074 C 
ENDBRANCH  11  12
ENDBRANCH   2  11
BRANCH   3  15
ATOM     15  C   UNL d   1      57.797  49.646  50.712  0.00  0.00     0.211 C 
ATOM     16  O   UNL d   1      57.532  49.704  51.492  0.00  0.00    -0.644 OA
ATOM     17  O   UNL d   1      57.257  49.590  50.078  0.00  0.00    -0.644 OA
ENDBRANCH   3  15
TORSDOF 5
ENDMDL
