MODEL 1
REMARK VINA RESULT:     112.4      0.000      0.000
REMARK  5 active torsions:
REMARK  status: ('A' for Active; 'I' for Inactive)
REMARK    1  A    between atoms: N_5  and  C_1 
REMARK    2  A    between atoms: C_8  and  C_3 
REMARK       I    between atoms: C_7  and  N_5 
REMARK    3  A    between atoms: C_11  and  C_7 
REMARK    4  A    between atoms: C_21  and  C_20 
REMARK    5  A    between atoms: C_24  and  C_21 
ROOT
ATOM      1  N   UNL d   1      61.239  46.228  50.011  0.00  0.00    -0.165 NA
ATOM      2  C   UNL d   1      61.618  46.949  50.014  0.00  0.00     0.282 C 
ATOM      3  O   UNL d   1      62.421  47.003  49.823  0.00  0.00    -0.265 OA
ENDROOT
BRANCH   1   4
ATOM      4  C   UNL d   1      61.652  45.543  49.817  0.00  0.00     0.297 A 
ATOM      5  O   UNL d   1      61.744  44.887  50.307  0.00  0.00    -0.253 OA
ATOM      6  C   UNL d   1      62.195  44.326  49.898  0.00  0.00     0.206 A 
ATOM      7  N   UNL d   1      62.375  44.640  49.163  0.00  0.00    -0.119 NA
ATOM      8  N   UNL d   1      62.040  45.391  49.113  0.00  0.00    -0.101 NA
BRANCH   6   9
ATOM      9  C   UNL d   1      62.419  43.584  50.187  0.00  0.00     0.045 A 
ATOM     10  C   UNL d   1      62.442  42.926  49.676  0.00  0.00     0.030 A 
ATOM     11  C   UNL d   1      62.661  42.208  49.965  0.00  0.00     0.123 A 
ATOM     12  O   UNL d   1      62.682  41.559  49.449  0.00  0.00    -0.301 OA
ATOM     13  C   UNL d   1      62.861  42.113  50.755  0.00  0.00     0.123 A 
ATOM     14  C   UNL d   1      62.902  40.823  49.726  0.00  0.00     0.149 A 
ATOM     15  C   UNL d   1      63.103  40.725  50.519  0.00  0.00     0.149 A 
ATOM     16  O   UNL d   1      63.085  41.363  51.040  0.00  0.00    -0.301 OA
ATOM     17  C   UNL d   1      62.842  42.742  51.263  0.00  0.00     0.027 A 
ATOM     18  C   UNL d   1      62.619  43.494  50.985  0.00  0.00     0.006 A 
ENDBRANCH   6   9
ENDBRANCH   1   4
BRANCH   2  19
ATOM     19  C   UNL d   1      61.205  47.636  50.208  0.00  0.00     0.058 A 
ATOM     20  C   UNL d   1      61.279  48.292  49.717  0.00  0.00     0.005 A 
ATOM     21  C   UNL d   1      60.864  48.982  49.911  0.00  0.00     0.000 A 
ATOM     22  C   UNL d   1      60.387  49.011  50.583  0.00  0.00     0.000 A 
ATOM     23  C   UNL d   1      60.324  48.345  51.065  0.00  0.00     0.000 A 
ATOM     24  C   UNL d   1      60.735  47.658  50.874  0.00  0.00     0.005 A 
BRANCH  22  25
ATOM     25  C   UNL d   1      59.978  49.698  50.770  0.00  0.00     0.000 C 
BRANCH  25  26
ATOM     26  C   UNL d   1      59.154  49.700  50.788  0.00  0.00     0.000 A 
ATOM     27  C   UNL d   1      58.723  49.697  50.080  0.00  0.00     0.000 A 
ATOM     28  C   UNL d   1      57.899  49.698  50.102  0.00  0.00     0.000 A 
ATOM     29  C   UNL d   1      57.498  49.702  50.835  0.00  0.00     0.000 A 
ATOM     30  C   UNL d   1      57.931  49.706  51.539  0.00  0.00     0.000 A 
ATOM     31  C   UNL d   1      58.760  49.704  51.520  0.00  0.00     0.000 A 
ENDBRANCH  25  26
ENDBRANCH  22  25
ENDBRANCH   2  19
TORSDOF 5
ENDMDL
