MODEL 1
REMARK VINA RESULT:      -2.8      0.000      0.000
REMARK  4 active torsions:
REMARK  status: ('A' for Active; 'I' for Inactive)
REMARK    1  A    between atoms: C_6  and  N_1 
REMARK    2  A    between atoms: C_12  and  C_6 
REMARK    3  A    between atoms: O_18  and  C_7 
REMARK    4  A    between atoms: O_19  and  C_10 
ROOT
ATOM      1  N   UNL d   1      33.240  19.070 -23.622  0.00  0.00    -0.251 N 
ATOM      2  C   UNL d   1      33.240  19.426 -24.378  0.00  0.00     0.378 A 
ATOM      3  C   UNL d   1      33.240  19.675 -23.057  0.00  0.00     0.092 A 
ATOM      4  O   UNL d   1      33.240  20.248 -24.276  0.00  0.00    -0.258 OA
ATOM      5  C   UNL d   1      33.239  20.402 -23.460  0.00  0.00     0.121 A 
ATOM      6  O   UNL d   1      33.241  19.023 -25.096  0.00  0.00    -0.237 OA
ATOM      7  C   UNL d   1      33.239  19.652 -22.236  0.00  0.00     0.020 A 
ATOM      8  C   UNL d   1      33.239  21.106 -23.024  0.00  0.00     0.026 A 
ATOM      9  C   UNL d   1      33.239  20.360 -21.812  0.00  0.00     0.002 A 
ATOM     10  C   UNL d   1      33.238  21.083 -22.204  0.00  0.00     0.002 A 
ATOM     11  C   UNL d   1      33.238  20.331 -20.983  0.00  0.00     0.000 C 
ENDROOT
BRANCH   1  12
ATOM     12  C   UNL d   1      33.241  18.268 -23.428  0.00  0.00     0.085 C 
BRANCH  12  13
ATOM     13  C   UNL d   1      32.615  17.787 -23.671  0.00  0.00     0.020 A 
ATOM     14  C   UNL d   1      32.764  17.134 -24.135  0.00  0.00     0.028 A 
ATOM     15  C   UNL d   1      32.150  16.650 -24.381  0.00  0.00     0.116 A 
ATOM     16  C   UNL d   1      31.374  16.832 -24.154  0.00  0.00     0.116 A 
ATOM     17  C   UNL d   1      31.225  17.490 -23.686  0.00  0.00     0.026 A 
ATOM     18  C   UNL d   1      31.851  17.971 -23.443  0.00  0.00     0.004 A 
BRANCH  15  19
ATOM     19  O   UNL d   1      32.296  15.995 -24.847  0.00  0.00    -0.326 OA
ATOM     20  C   UNL d   1      33.011  15.692 -24.569  0.00  0.00     0.181 C 
ENDBRANCH  15  19
BRANCH  16  21
ATOM     21  O   UNL d   1      30.753  16.350 -24.398  0.00  0.00    -0.326 OA
ATOM     22  C   UNL d   1      30.010  16.450 -24.074  0.00  0.00     0.181 C 
ENDBRANCH  16  21
ENDBRANCH  12  13
ENDBRANCH   1  12
TORSDOF 4
ENDMDL
MODEL 2
REMARK VINA RESULT:      -1.8      1.232      3.978
REMARK  4 active torsions:
REMARK  status: ('A' for Active; 'I' for Inactive)
REMARK    1  A    between atoms: C_6  and  N_1 
REMARK    2  A    between atoms: C_12  and  C_6 
REMARK    3  A    between atoms: O_18  and  C_7 
REMARK    4  A    between atoms: O_19  and  C_10 
ROOT
ATOM      1  N   UNL d   1      32.561  18.311 -24.157  0.00  0.00    -0.251 N 
ATOM      2  C   UNL d   1      32.023  18.646 -24.702  0.00  0.00     0.378 A 
ATOM      3  C   UNL d   1      32.301  17.546 -23.981  0.00  0.00     0.092 A 
ATOM      4  O   UNL d   1      31.435  18.084 -24.860  0.00  0.00    -0.258 OA
ATOM      5  C   UNL d   1      31.607  17.405 -24.415  0.00  0.00     0.121 A 
ATOM      6  O   UNL d   1      32.076  19.402 -25.022  0.00  0.00    -0.237 OA
ATOM      7  C   UNL d   1      32.610  16.967 -23.486  0.00  0.00     0.020 A 
ATOM      8  C   UNL d   1      31.226  16.674 -24.343  0.00  0.00     0.026 A 
ATOM      9  C   UNL d   1      32.222  16.242 -23.422  0.00  0.00     0.002 A 
ATOM     10  C   UNL d   1      31.533  16.096 -23.848  0.00  0.00     0.002 A 
ATOM     11  C   UNL d   1      32.536  15.661 -22.920  0.00  0.00     0.000 C 
ENDROOT
BRANCH   1  12
ATOM     12  C   UNL d   1      33.240  18.647 -23.827  0.00  0.00     0.085 C 
BRANCH  12  13
ATOM     13  C   UNL d   1      33.183  19.353 -23.403  0.00  0.00     0.020 A 
ATOM     14  C   UNL d   1      33.088  19.331 -22.593  0.00  0.00     0.028 A 
ATOM     15  C   UNL d   1      33.031  20.026 -22.163  0.00  0.00     0.116 A 
ATOM     16  C   UNL d   1      33.070  20.753 -22.558  0.00  0.00     0.116 A 
ATOM     17  C   UNL d   1      33.165  20.774 -23.374  0.00  0.00     0.026 A 
ATOM     18  C   UNL d   1      33.221  20.068 -23.798  0.00  0.00     0.004 A 
BRANCH  15  19
ATOM     19  O   UNL d   1      32.936  20.007 -21.351  0.00  0.00    -0.326 OA
ATOM     20  C   UNL d   1      33.241  19.277 -21.119  0.00  0.00     0.181 C 
ENDBRANCH  15  19
BRANCH  16  21
ATOM     21  O   UNL d   1      33.012  21.454 -22.131  0.00  0.00    -0.326 OA
ATOM     22  C   UNL d   1      33.148  22.169 -22.504  0.00  0.00     0.181 C 
ENDBRANCH  16  21
ENDBRANCH  12  13
ENDBRANCH   1  12
TORSDOF 4
ENDMDL
MODEL 3
REMARK VINA RESULT:      -1.1      2.151      5.021
REMARK  4 active torsions:
REMARK  status: ('A' for Active; 'I' for Inactive)
REMARK    1  A    between atoms: C_6  and  N_1 
REMARK    2  A    between atoms: C_12  and  C_6 
REMARK    3  A    between atoms: O_18  and  C_7 
REMARK    4  A    between atoms: O_19  and  C_10 
ROOT
ATOM      1  N   UNL d   1      29.901  15.454 -23.518  0.00  0.00    -0.251 N 
ATOM      2  C   UNL d   1      30.009  15.456 -22.690  0.00  0.00     0.378 A 
ATOM      3  C   UNL d   1      29.088  15.455 -23.669  0.00  0.00     0.092 A 
ATOM      4  O   UNL d   1      29.261  15.457 -22.333  0.00  0.00    -0.258 OA
ATOM      5  C   UNL d   1      28.693  15.456 -22.937  0.00  0.00     0.121 A 
ATOM      6  O   UNL d   1      30.735  15.456 -22.302  0.00  0.00    -0.237 OA
ATOM      7  C   UNL d   1      28.664  15.454 -24.373  0.00  0.00     0.020 A 
ATOM      8  C   UNL d   1      27.865  15.457 -22.925  0.00  0.00     0.026 A 
ATOM      9  C   UNL d   1      27.840  15.455 -24.349  0.00  0.00     0.002 A 
ATOM     10  C   UNL d   1      27.442  15.456 -23.628  0.00  0.00     0.002 A 
ATOM     11  C   UNL d   1      27.417  15.454 -25.062  0.00  0.00     0.000 C 
ENDROOT
BRANCH   1  12
ATOM     12  C   UNL d   1      30.473  15.453 -24.114  0.00  0.00     0.085 C 
BRANCH  12  13
ATOM     13  C   UNL d   1      31.014  16.074 -24.164  0.00  0.00     0.020 A 
ATOM     14  C   UNL d   1      31.810  15.911 -24.245  0.00  0.00     0.028 A 
ATOM     15  C   UNL d   1      32.355  16.520 -24.295  0.00  0.00     0.116 A 
ATOM     16  C   UNL d   1      32.092  17.305 -24.264  0.00  0.00     0.116 A 
ATOM     17  C   UNL d   1      31.291  17.468 -24.183  0.00  0.00     0.026 A 
ATOM     18  C   UNL d   1      30.749  16.847 -24.133  0.00  0.00     0.004 A 
BRANCH  15  19
ATOM     19  O   UNL d   1      33.153  16.360 -24.376  0.00  0.00    -0.326 OA
ATOM     20  C   UNL d   1      33.202  15.538 -24.413  0.00  0.00     0.181 C 
ENDBRANCH  15  19
BRANCH  16  21
ATOM     21  O   UNL d   1      32.635  17.921 -24.314  0.00  0.00    -0.326 OA
ATOM     22  C   UNL d   1      32.375  18.695 -24.289  0.00  0.00     0.181 C 
ENDBRANCH  16  21
ENDBRANCH  12  13
ENDBRANCH   1  12
TORSDOF 4
ENDMDL
