MODEL 1
REMARK VINA RESULT:      21.1      0.000      0.000
REMARK  4 active torsions:
REMARK  status: ('A' for Active; 'I' for Inactive)
REMARK    1  A    between atoms: C_10  and  N_3 
REMARK    2  A    between atoms: C_12  and  N_7 
REMARK    3  A    between atoms: C_19  and  C_12 
REMARK    4  A    between atoms: C_20  and  C_19 
ROOT
ATOM      1  C   UNL d   1      45.811 -15.983  43.989  0.00  0.00     0.172 A 
ATOM      2  C   UNL d   1      45.546 -16.677  44.348  0.00  0.00     0.113 A 
ATOM      3  N   UNL d   1      45.437 -15.348  44.371  0.00  0.00    -0.212 N 
ATOM      4  N   UNL d   1      46.350 -16.018  43.372  0.00  0.00    -0.206 NA
ATOM      5  C   UNL d   1      45.819 -17.405  44.090  0.00  0.00     0.270 A 
ATOM      6  N   UNL d   1      44.952 -15.656  44.953  0.00  0.00    -0.162 NA
ATOM      7  N   UNL d   1      46.363 -17.445  43.467  0.00  0.00    -0.255 N 
ATOM      8  C   UNL d   1      45.013 -16.458  44.945  0.00  0.00     0.129 A 
ATOM      9  C   UNL d   1      46.628 -16.752  43.108  0.00  0.00     0.187 A 
ATOM     10  O   UNL d   1      45.554 -18.099  44.449  0.00  0.00    -0.266 OA
ENDROOT
BRANCH   3  11
ATOM     11  C   UNL d   1      45.511 -14.550  44.225  0.00  0.00     0.085 A 
ATOM     12  C   UNL d   1      46.010 -14.088  44.694  0.00  0.00     0.021 A 
ATOM     13  C   UNL d   1      46.082 -13.283  44.544  0.00  0.00     0.031 A 
ATOM     14  C   UNL d   1      45.671 -12.928  43.939  0.00  0.00     0.140 A 
ATOM     15  C   UNL d   1      45.162 -13.397  43.460  0.00  0.00     0.031 A 
ATOM     16  F   UNL d   1      45.758 -12.104  43.802  0.00  0.00    -0.204 F 
ATOM     17  C   UNL d   1      45.084 -14.199  43.601  0.00  0.00     0.021 A 
ENDBRANCH   3  11
BRANCH   7  18
ATOM     18  C   UNL d   1      46.646 -18.183  43.197  0.00  0.00     0.085 C 
BRANCH  18  19
ATOM     19  C   UNL d   1      46.520 -18.415  42.409  0.00  0.00     0.019 C 
BRANCH  19  20
ATOM     20  C   UNL d   1      46.572 -19.220  42.209  0.00  0.00     0.002 C 
ATOM     21  C   UNL d   1      46.645 -19.431  41.415  0.00  0.00     0.000 C 
ATOM     22  C   UNL d   1      46.552 -19.793  42.791  0.00  0.00     0.000 C 
ENDBRANCH  19  20
ENDBRANCH  18  19
ENDBRANCH   7  18
TORSDOF 4
ENDMDL
