MODEL 1
REMARK VINA RESULT:      -4.0      0.000      0.000
REMARK  6 active torsions:
REMARK  status: ('A' for Active; 'I' for Inactive)
REMARK    1  A    between atoms: C_6  and  N_1 
REMARK    2  A    between atoms: S_7  and  C_2 
REMARK    3  A    between atoms: C_12  and  S_7 
REMARK    4  A    between atoms: C_8  and  O_9 
REMARK    5  A    between atoms: O_9  and  C_13 
REMARK    6  A    between atoms: C_13  and  C_12 
ROOT
ATOM      1  N   UNL d   1     -41.621-121.940 -50.703  0.00  0.00    -0.186 N 
ATOM      2  C   UNL d   1     -41.421-122.066 -51.479  0.00  0.00     0.219 A 
ATOM      3  N   UNL d   1     -41.124-121.340 -51.789  0.00  0.00    -0.101 NA
ATOM      4  N   UNL d   1     -41.144-120.782 -51.207  0.00  0.00    -0.022 NA
ATOM      5  N   UNL d   1     -41.448-121.133 -50.526  0.00  0.00    -0.038 NA
ENDROOT
BRANCH   2   6
ATOM      6  S   UNL d   1     -41.497-122.800 -51.908  0.00  0.00    -0.044 SA
BRANCH   6   7
ATOM      7  C   UNL d   1     -41.160-122.868 -52.659  0.00  0.00     0.065 C 
BRANCH   7   8
ATOM      8  C   UNL d   1     -41.648-123.022 -53.323  0.00  0.00     0.130 C 
BRANCH   8   9
ATOM      9  O   UNL d   1     -41.325-123.002 -54.077  0.00  0.00    -0.305 OA
BRANCH   9  10
ATOM     10  C   UNL d   1     -41.717-122.621 -54.707  0.00  0.00     0.100 A 
ATOM     11  C   UNL d   1     -41.263-122.218 -55.281  0.00  0.00     0.025 A 
ATOM     12  C   UNL d   1     -41.633-121.836 -55.911  0.00  0.00     0.002 A 
ATOM     13  C   UNL d   1     -42.451-121.850 -55.977  0.00  0.00     0.000 A 
ATOM     14  C   UNL d   1     -42.905-122.244 -55.416  0.00  0.00     0.002 A 
ATOM     15  C   UNL d   1     -42.541-122.635 -54.774  0.00  0.00     0.025 A 
ENDBRANCH   9  10
ENDBRANCH   8   9
ENDBRANCH   7   8
ENDBRANCH   6   7
ENDBRANCH   2   6
BRANCH   1  16
ATOM     16  C   UNL d   1     -41.936-122.570 -50.247  0.00  0.00     0.087 A 
ATOM     17  C   UNL d   1     -42.787-122.638 -50.159  0.00  0.00     0.019 A 
ATOM     18  C   UNL d   1     -43.078-123.264 -49.707  0.00  0.00     0.002 A 
ATOM     19  C   UNL d   1     -42.560-123.817 -49.344  0.00  0.00     0.000 A 
ATOM     20  C   UNL d   1     -41.750-123.735 -49.440  0.00  0.00     0.002 A 
ATOM     21  C   UNL d   1     -41.440-123.116 -49.888  0.00  0.00     0.019 A 
ENDBRANCH   1  16
TORSDOF 6
ENDMDL
MODEL 2
REMARK VINA RESULT:      -2.0      1.639      2.333
REMARK  6 active torsions:
REMARK  status: ('A' for Active; 'I' for Inactive)
REMARK    1  A    between atoms: C_6  and  N_1 
REMARK    2  A    between atoms: S_7  and  C_2 
REMARK    3  A    between atoms: C_12  and  S_7 
REMARK    4  A    between atoms: C_8  and  O_9 
REMARK    5  A    between atoms: O_9  and  C_13 
REMARK    6  A    between atoms: C_13  and  C_12 
ROOT
ATOM      1  N   UNL d   1     -42.931-123.111 -49.179  0.00  0.00    -0.186 N 
ATOM      2  C   UNL d   1     -42.689-122.881 -49.919  0.00  0.00     0.219 A 
ATOM      3  N   UNL d   1     -43.363-122.903 -50.426  0.00  0.00    -0.101 NA
ATOM      4  N   UNL d   1     -44.003-123.141 -49.998  0.00  0.00    -0.022 NA
ATOM      5  N   UNL d   1     -43.757-123.276 -49.223  0.00  0.00    -0.038 NA
ENDROOT
BRANCH   2   6
ATOM      6  S   UNL d   1     -41.898-122.658 -50.146  0.00  0.00    -0.044 SA
BRANCH   6   7
ATOM      7  C   UNL d   1     -41.511-123.082 -50.739  0.00  0.00     0.065 C 
BRANCH   7   8
ATOM      8  C   UNL d   1     -41.371-122.725 -51.485  0.00  0.00     0.130 C 
BRANCH   8   9
ATOM      9  O   UNL d   1     -41.123-123.186 -52.115  0.00  0.00    -0.305 OA
BRANCH   9  10
ATOM     10  C   UNL d   1     -41.242-122.945 -52.905  0.00  0.00     0.100 A 
ATOM     11  C   UNL d   1     -41.300-123.527 -53.501  0.00  0.00     0.025 A 
ATOM     12  C   UNL d   1     -41.418-123.306 -54.288  0.00  0.00     0.002 A 
ATOM     13  C   UNL d   1     -41.480-122.513 -54.487  0.00  0.00     0.000 A 
ATOM     14  C   UNL d   1     -41.425-121.934 -53.906  0.00  0.00     0.002 A 
ATOM     15  C   UNL d   1     -41.305-122.145 -53.106  0.00  0.00     0.025 A 
ENDBRANCH   9  10
ENDBRANCH   8   9
ENDBRANCH   7   8
ENDBRANCH   6   7
ENDBRANCH   2   6
BRANCH   1  16
ATOM     16  C   UNL d   1     -42.374-123.143 -48.551  0.00  0.00     0.087 A 
ATOM     17  C   UNL d   1     -42.339-122.496 -47.989  0.00  0.00     0.019 A 
ATOM     18  C   UNL d   1     -41.786-122.546 -47.379  0.00  0.00     0.002 A 
ATOM     19  C   UNL d   1     -41.273-123.208 -47.309  0.00  0.00     0.000 A 
ATOM     20  C   UNL d   1     -41.322-123.816 -47.856  0.00  0.00     0.002 A 
ATOM     21  C   UNL d   1     -41.869-123.784 -48.473  0.00  0.00     0.019 A 
ENDBRANCH   1  16
TORSDOF 6
ENDMDL
MODEL 3
REMARK VINA RESULT:      -1.8      1.490      4.918
REMARK  6 active torsions:
REMARK  status: ('A' for Active; 'I' for Inactive)
REMARK    1  A    between atoms: C_6  and  N_1 
REMARK    2  A    between atoms: S_7  and  C_2 
REMARK    3  A    between atoms: C_12  and  S_7 
REMARK    4  A    between atoms: C_8  and  O_9 
REMARK    5  A    between atoms: O_9  and  C_13 
REMARK    6  A    between atoms: C_13  and  C_12 
ROOT
ATOM      1  N   UNL d   1     -41.306-121.609 -52.314  0.00  0.00    -0.186 N 
ATOM      2  C   UNL d   1     -41.270-121.878 -51.549  0.00  0.00     0.219 A 
ATOM      3  N   UNL d   1     -41.156-121.209 -51.048  0.00  0.00    -0.101 NA
ATOM      4  N   UNL d   1     -41.123-120.546 -51.504  0.00  0.00    -0.022 NA
ATOM      5  N   UNL d   1     -41.213-120.771 -52.292  0.00  0.00    -0.038 NA
ENDROOT
BRANCH   2   6
ATOM      6  S   UNL d   1     -41.337-122.690 -51.295  0.00  0.00    -0.044 SA
BRANCH   6   7
ATOM      7  C   UNL d   1     -41.869-122.885 -50.696  0.00  0.00     0.065 C 
BRANCH   7   8
ATOM      8  C   UNL d   1     -41.601-122.953 -49.904  0.00  0.00     0.130 C 
BRANCH   8   9
ATOM      9  O   UNL d   1     -41.838-123.593 -49.449  0.00  0.00    -0.305 OA
BRANCH   9  10
ATOM     10  C   UNL d   1     -41.831-123.560 -48.615  0.00  0.00     0.100 A 
ATOM     11  C   UNL d   1     -42.555-123.485 -48.206  0.00  0.00     0.025 A 
ATOM     12  C   UNL d   1     -42.566-123.451 -47.382  0.00  0.00     0.002 A 
ATOM     13  C   UNL d   1     -41.864-123.491 -46.960  0.00  0.00     0.000 A 
ATOM     14  C   UNL d   1     -41.146-123.565 -47.354  0.00  0.00     0.002 A 
ATOM     15  C   UNL d   1     -41.123-123.600 -48.189  0.00  0.00     0.025 A 
ENDBRANCH   9  10
ENDBRANCH   8   9
ENDBRANCH   7   8
ENDBRANCH   6   7
ENDBRANCH   2   6
BRANCH   1  16
ATOM     16  C   UNL d   1     -41.417-122.155 -52.943  0.00  0.00     0.087 A 
ATOM     17  C   UNL d   1     -41.829-121.900 -53.650  0.00  0.00     0.019 A 
ATOM     18  C   UNL d   1     -41.929-122.450 -54.257  0.00  0.00     0.002 A 
ATOM     19  C   UNL d   1     -41.638-123.235 -54.185  0.00  0.00     0.000 A 
ATOM     20  C   UNL d   1     -41.247-123.460 -53.501  0.00  0.00     0.002 A 
ATOM     21  C   UNL d   1     -41.137-122.923 -52.884  0.00  0.00     0.019 A 
ENDBRANCH   1  16
TORSDOF 6
ENDMDL
