MODEL 1
REMARK VINA RESULT:      81.2      0.000      0.000
REMARK  9 active torsions:
REMARK  status: ('A' for Active; 'I' for Inactive)
REMARK    1  A    between atoms: C_8  and  S_1 
REMARK    2  A    between atoms: C_2  and  N_3 
REMARK    3  A    between atoms: N_4  and  C_2 
REMARK    4  A    between atoms: C_6  and  C_2 
REMARK    5  A    between atoms: N_3  and  C_5 
REMARK       I    between atoms: C_7  and  N_4 
REMARK    6  A    between atoms: C_5  and  N_9 
REMARK    7  A    between atoms: C_13  and  C_7 
REMARK    8  A    between atoms: N_9  and  C_23 
REMARK    9  A    between atoms: O_29  and  C_24 
ROOT
ATOM      1  C   UNL d   1      60.685  48.650  50.840  0.00  0.00     0.238 C 
ENDROOT
BRANCH   1   2
ATOM      2  N   UNL d   1      60.966  47.890  50.638  0.00  0.00    -0.188 NA
BRANCH   2   3
ATOM      3  C   UNL d   1      61.564  47.574  50.162  0.00  0.00     0.223 C 
ATOM      4  S   UNL d   1      62.254  47.953  50.076  0.00  0.00    -0.037 SA
BRANCH   3   5
ATOM      5  N   UNL d   1      61.410  46.860  49.788  0.00  0.00    -0.217 NA
BRANCH   5   6
ATOM      6  C   UNL d   1      61.431  46.148  50.199  0.00  0.00     0.084 A 
ATOM      7  C   UNL d   1      61.178  45.448  49.861  0.00  0.00     0.020 A 
ATOM      8  C   UNL d   1      61.195  44.735  50.261  0.00  0.00     0.015 A 
ATOM      9  C   UNL d   1      61.476  44.720  51.032  0.00  0.00     0.107 A 
ATOM     10  C   UNL d   1      61.740  45.410  51.406  0.00  0.00     0.015 A 
ATOM     11  C   UNL d   1      61.711  46.114  50.979  0.00  0.00     0.020 A 
BRANCH   9  12
ATOM     12  S   UNL d   1      61.496  43.992  51.450  0.00  0.00     0.302 S 
ATOM     13  O   UNL d   1      62.154  43.759  51.007  0.00  0.00    -0.197 OA
ATOM     14  O   UNL d   1      60.833  44.239  51.890  0.00  0.00    -0.197 OA
ATOM     15  N   UNL d   1      61.511  43.275  51.866  0.00  0.00    -0.043 N 
ENDBRANCH   9  12
ENDBRANCH   5   6
ENDBRANCH   3   5
ENDBRANCH   2   3
ENDBRANCH   1   2
BRANCH   1  16
ATOM     16  N   UNL d   1      60.287  48.948  50.448  0.00  0.00    -0.346 NA
ATOM     17  C   UNL d   1      59.873  49.372  49.849  0.00  0.00     0.329 C 
ATOM     18  O   UNL d   1      60.314  49.694  49.196  0.00  0.00    -0.251 OA
BRANCH  17  19
ATOM     19  C   UNL d   1      59.077  49.458  49.914  0.00  0.00     0.071 A 
ATOM     20  C   UNL d   1      58.714  49.376  50.709  0.00  0.00     0.008 A 
ATOM     21  C   UNL d   1      57.890  49.461  50.801  0.00  0.00     0.024 A 
ATOM     22  C   UNL d   1      57.410  49.626  50.133  0.00  0.00     0.094 A 
ATOM     23  C   UNL d   1      57.784  49.695  49.411  0.00  0.00     0.024 A 
ATOM     24  C   UNL d   1      58.611  49.613  49.297  0.00  0.00     0.008 A 
BRANCH  22  25
ATOM     25  O   UNL d   1      56.586  49.706  50.257  0.00  0.00    -0.328 OA
ATOM     26  C   UNL d   1      56.043  49.200  49.862  0.00  0.00     0.181 C 
ENDBRANCH  22  25
ENDBRANCH  17  19
ENDBRANCH   1  16
BRANCH   1  27
ATOM     27  C   UNL d   1      60.928  48.997  51.538  0.00  0.00     0.262 C 
ATOM     28 CL   UNL d   1      61.169  49.349  52.236  0.00  0.00    -0.074 Cl
ATOM     29 CL   UNL d   1      61.380  48.303  51.728  0.00  0.00    -0.074 Cl
ATOM     30 CL   UNL d   1      60.488  49.671  51.351  0.00  0.00    -0.074 Cl
ENDBRANCH   1  27
TORSDOF 9
ENDMDL
