MODEL 1
REMARK VINA RESULT:      -5.5      0.000      0.000
REMARK  5 active torsions:
REMARK  status: ('A' for Active; 'I' for Inactive)
REMARK    1  A    between atoms: C_12  and  C_1 
REMARK    2  A    between atoms: C_4  and  O_8 
REMARK       I    between atoms: N_11  and  C_4 
REMARK    3  A    between atoms: O_8  and  C_13 
REMARK    4  A    between atoms: C_17  and  N_11 
REMARK    5  A    between atoms: C_18  and  N_11 
ROOT
ATOM      1  C   UNL d   1     -41.782-123.142 -49.733  0.00  0.00     0.064 A 
ATOM      2  C   UNL d   1     -41.536-122.441 -50.096  0.00  0.00     0.199 A 
ATOM      3  C   UNL d   1     -41.453-122.418 -50.915  0.00  0.00     0.062 A 
ATOM      4  C   UNL d   1     -41.944-123.814 -50.184  0.00  0.00     0.126 A 
ATOM      5  C   UNL d   1     -41.614-123.087 -51.369  0.00  0.00     0.105 A 
ATOM      6  O   UNL d   1     -41.861-123.789 -51.005  0.00  0.00    -0.305 OA
ATOM      7  C   UNL d   1     -41.530-123.060 -52.195  0.00  0.00     0.050 A 
ATOM      8  C   UNL d   1     -41.205-121.714 -51.291  0.00  0.00     0.007 A 
ATOM      9  C   UNL d   1     -41.286-122.365 -52.563  0.00  0.00     0.107 A 
ATOM     10  O   UNL d   1     -41.374-121.769 -49.645  0.00  0.00    -0.286 OA
ATOM     11  C   UNL d   1     -41.123-121.690 -52.110  0.00  0.00     0.025 A 
ENDROOT
BRANCH   9  12
ATOM     12  O   UNL d   1     -41.202-122.339 -53.380  0.00  0.00    -0.259 OA
BRANCH  12  13
ATOM     13  C   UNL d   1     -41.838-122.129 -53.854  0.00  0.00     0.377 C 
ATOM     14  N   UNL d   1     -41.845-122.352 -54.652  0.00  0.00    -0.252 N 
ATOM     15  O   UNL d   1     -42.466-121.698 -53.539  0.00  0.00    -0.237 OA
BRANCH  14  16
ATOM     16  C   UNL d   1     -41.219-122.784 -54.972  0.00  0.00     0.085 C 
ATOM     17  C   UNL d   1     -41.348-123.562 -55.221  0.00  0.00     0.021 C 
ENDBRANCH  14  16
BRANCH  14  18
ATOM     18  C   UNL d   1     -42.485-122.141 -55.129  0.00  0.00     0.085 C 
ATOM     19  C   UNL d   1     -42.364-121.884 -55.903  0.00  0.00     0.021 C 
ENDBRANCH  14  18
ENDBRANCH  12  13
ENDBRANCH   9  12
BRANCH   1  20
ATOM     20  C   UNL d   1     -41.866-123.169 -48.907  0.00  0.00     0.005 A 
ATOM     21  C   UNL d   1     -42.603-123.011 -48.571  0.00  0.00     0.000 A 
ATOM     22  C   UNL d   1     -42.687-123.038 -47.746  0.00  0.00     0.000 A 
ATOM     23  C   UNL d   1     -42.041-123.221 -47.270  0.00  0.00     0.000 A 
ATOM     24  C   UNL d   1     -41.306-123.377 -47.622  0.00  0.00     0.000 A 
ATOM     25  C   UNL d   1     -41.223-123.350 -48.439  0.00  0.00     0.000 A 
ENDBRANCH   1  20
TORSDOF 5
ENDMDL
MODEL 2
REMARK VINA RESULT:      -5.0      1.487      5.350
REMARK  5 active torsions:
REMARK  status: ('A' for Active; 'I' for Inactive)
REMARK    1  A    between atoms: C_12  and  C_1 
REMARK    2  A    between atoms: C_4  and  O_8 
REMARK       I    between atoms: N_11  and  C_4 
REMARK    3  A    between atoms: O_8  and  C_13 
REMARK    4  A    between atoms: C_17  and  N_11 
REMARK    5  A    between atoms: C_18  and  N_11 
ROOT
ATOM      1  C   UNL d   1     -41.753-122.310 -53.518  0.00  0.00     0.064 A 
ATOM      2  C   UNL d   1     -41.656-123.039 -53.140  0.00  0.00     0.199 A 
ATOM      3  C   UNL d   1     -41.580-123.062 -52.319  0.00  0.00     0.062 A 
ATOM      4  C   UNL d   1     -41.774-121.610 -53.081  0.00  0.00     0.126 A 
ATOM      5  C   UNL d   1     -41.601-122.365 -51.880  0.00  0.00     0.105 A 
ATOM      6  O   UNL d   1     -41.698-121.635 -52.259  0.00  0.00    -0.305 OA
ATOM      7  C   UNL d   1     -41.525-122.392 -51.053  0.00  0.00     0.050 A 
ATOM      8  C   UNL d   1     -41.481-123.795 -51.928  0.00  0.00     0.007 A 
ATOM      9  C   UNL d   1     -41.428-123.114 -50.671  0.00  0.00     0.107 A 
ATOM     10  O   UNL d   1     -41.634-123.739 -53.576  0.00  0.00    -0.286 OA
ATOM     11  C   UNL d   1     -41.406-123.817 -51.110  0.00  0.00     0.025 A 
ENDROOT
BRANCH   9  12
ATOM     12  O   UNL d   1     -41.352-123.140 -49.853  0.00  0.00    -0.259 OA
BRANCH  12  13
ATOM     13  C   UNL d   1     -42.020-123.147 -49.375  0.00  0.00     0.377 C 
ATOM     14  N   UNL d   1     -41.936-123.080 -48.554  0.00  0.00    -0.252 N 
ATOM     15  O   UNL d   1     -42.769-123.219 -49.712  0.00  0.00    -0.237 OA
BRANCH  14  16
ATOM     16  C   UNL d   1     -41.188-123.008 -48.214  0.00  0.00     0.085 C 
ATOM     17  C   UNL d   1     -41.123-122.748 -47.431  0.00  0.00     0.021 C 
ENDBRANCH  14  16
BRANCH  14  18
ATOM     18  C   UNL d   1     -42.608-123.086 -48.074  0.00  0.00     0.085 C 
ATOM     19  C   UNL d   1     -42.780-123.740 -47.601  0.00  0.00     0.021 C 
ENDBRANCH  14  18
ENDBRANCH  12  13
ENDBRANCH   9  12
BRANCH   1  20
ATOM     20  C   UNL d   1     -41.829-122.283 -54.344  0.00  0.00     0.005 A 
ATOM     21  C   UNL d   1     -42.583-122.272 -54.679  0.00  0.00     0.000 A 
ATOM     22  C   UNL d   1     -42.659-122.245 -55.506  0.00  0.00     0.000 A 
ATOM     23  C   UNL d   1     -41.988-122.230 -55.983  0.00  0.00     0.000 A 
ATOM     24  C   UNL d   1     -41.237-122.242 -55.631  0.00  0.00     0.000 A 
ATOM     25  C   UNL d   1     -41.161-122.268 -54.813  0.00  0.00     0.000 A 
ENDBRANCH   1  20
TORSDOF 5
ENDMDL
