MODEL 1
REMARK VINA RESULT:      -1.4      0.000      0.000
REMARK  7 active torsions:
REMARK  status: ('A' for Active; 'I' for Inactive)
REMARK    1  A    between atoms: C_5  and  N_1 
REMARK    2  A    between atoms: S_12  and  C_2 
REMARK       I    between atoms: N_3  and  C_9 
REMARK    3  A    between atoms: C_15  and  C_4 
REMARK    4  A    between atoms: C_9  and  C_20 
REMARK       I    between atoms: C_10  and  N_14 
REMARK    5  A    between atoms: C_11  and  C_10 
REMARK    6  A    between atoms: C_20  and  S_12 
REMARK    7  A    between atoms: N_14  and  C_15 
ROOT
ATOM      1  N   UNL d   1      31.966  17.791 -23.732  0.00  0.00    -0.268 N 
ATOM      2  C   UNL d   1      32.241  18.525 -23.470  0.00  0.00     0.201 A 
ATOM      3  C   UNL d   1      31.184  17.886 -23.995  0.00  0.00     0.190 A 
ATOM      4  N   UNL d   1      31.628  19.081 -23.570  0.00  0.00    -0.121 NA
ATOM      5  N   UNL d   1      30.977  18.688 -23.894  0.00  0.00    -0.126 NA
ENDROOT
BRANCH   2   6
ATOM      6  S   UNL d   1      32.982  18.681 -23.166  0.00  0.00    -0.043 SA
BRANCH   6   7
ATOM      7  C   UNL d   1      33.240  19.461 -23.063  0.00  0.00     0.099 C 
BRANCH   7   8
ATOM      8  C   UNL d   1      33.219  19.813 -22.327  0.00  0.00     0.271 C 
ATOM      9  N   UNL d   1      33.219  20.630 -22.259  0.00  0.00    -0.273 N 
ATOM     10  C   UNL d   1      33.199  21.056 -21.552  0.00  0.00     0.067 A 
ATOM     11  C   UNL d   1      33.240  21.165 -22.884  0.00  0.00     0.083 A 
ATOM     12  C   UNL d   1      33.208  21.861 -21.747  0.00  0.00     0.018 A 
ATOM     13  C   UNL d   1      33.175  20.807 -20.765  0.00  0.00     0.018 A 
ATOM     14  C   UNL d   1      33.191  22.419 -21.143  0.00  0.00     0.002 A 
ATOM     15  C   UNL d   1      33.232  21.923 -22.559  0.00  0.00     0.021 A 
ATOM     16  C   UNL d   1      33.167  22.179 -20.345  0.00  0.00     0.000 A 
ATOM     17  C   UNL d   1      33.159  21.377 -20.161  0.00  0.00     0.002 A 
ATOM     18  O   UNL d   1      33.197  19.343 -21.645  0.00  0.00    -0.266 OA
ENDBRANCH   7   8
ENDBRANCH   6   7
ENDBRANCH   2   6
BRANCH   1  19
ATOM     19  C   UNL d   1      32.387  17.094 -23.733  0.00  0.00     0.067 A 
ATOM     20  C   UNL d   1      32.777  16.850 -24.412  0.00  0.00     0.016 A 
ATOM     21  C   UNL d   1      33.205  16.142 -24.413  0.00  0.00     0.001 A 
ATOM     22  C   UNL d   1      32.746  17.303 -25.095  0.00  0.00     0.002 C 
ATOM     23  C   UNL d   1      33.239  15.686 -23.734  0.00  0.00     0.000 A 
ATOM     24  C   UNL d   1      32.842  15.936 -23.046  0.00  0.00     0.001 A 
ATOM     25  C   UNL d   1      32.420  16.632 -23.042  0.00  0.00     0.018 A 
ATOM     26  C   UNL d   1      32.883  15.469 -22.366  0.00  0.00     0.000 C 
ENDBRANCH   1  19
BRANCH   3  27
ATOM     27  C   UNL d   1      30.697  17.295 -24.303  0.00  0.00     0.141 C 
BRANCH  27  28
ATOM     28  N   UNL d   1      30.049  17.031 -23.870  0.00  0.00    -0.202 NA
ATOM     29  C   UNL d   1      29.459  16.593 -24.250  0.00  0.00     0.302 C 
ATOM     30  O   UNL d   1      29.527  16.426 -25.056  0.00  0.00    -0.263 OA
BRANCH  29  31
ATOM     31  C   UNL d   1      28.802  16.321 -23.827  0.00  0.00     0.158 A 
ATOM     32  O   UNL d   1      28.120  16.753 -23.689  0.00  0.00    -0.300 OA
ATOM     33  C   UNL d   1      27.605  16.284 -23.250  0.00  0.00     0.123 A 
ATOM     34  C   UNL d   1      27.983  15.556 -23.122  0.00  0.00     0.029 A 
ATOM     35  C   UNL d   1      28.724  15.583 -23.481  0.00  0.00     0.032 A 
ENDBRANCH  29  31
ENDBRANCH  27  28
ENDBRANCH   3  27
TORSDOF 7
ENDMDL
