MODEL 1
REMARK VINA RESULT:      56.8      0.000      0.000
REMARK  0 active torsions:
REMARK  status: ('A' for Active; 'I' for Inactive)
REMARK       I    between atoms: N_3  and  C_1 
REMARK       I    between atoms: N_5  and  C_1 
REMARK       I    between atoms: C_2  and  N_4 
REMARK       I    between atoms: N_6  and  C_2 
ROOT
ATOM      1  C   UNL d   1     -54.755-100.875 -40.287  0.00  0.00     0.339 C 
ATOM      2  C   UNL d   1     -54.736-101.989 -43.393  0.00  0.00     0.340 C 
ATOM      3  N   UNL d   1     -54.750-101.161 -41.073  0.00  0.00    -0.254 N 
ATOM      4  N   UNL d   1     -54.740-101.714 -42.615  0.00  0.00    -0.254 N 
ATOM      5  N   UNL d   1     -54.745-101.404 -39.654  0.00  0.00    -0.258 N 
ATOM      6  N   UNL d   1     -54.745-101.455 -44.018  0.00  0.00    -0.253 N 
ATOM      7  O   UNL d   1     -54.769-100.068 -40.147  0.00  0.00    -0.245 OA
ATOM      8  O   UNL d   1     -54.721-102.800 -43.548  0.00  0.00    -0.245 OA
ATOM      9  C   UNL d   1     -54.730-102.264 -41.979  0.00  0.00     0.104 A 
ATOM     10  C   UNL d   1     -54.754-100.912 -42.464  0.00  0.00     0.104 A 
ATOM     11  C   UNL d   1     -54.759-100.634 -41.688  0.00  0.00     0.104 A 
ATOM     12  C   UNL d   1     -54.735-101.986 -41.202  0.00  0.00     0.104 A 
ATOM     13  O   UNL d   1     -54.765-100.374 -45.260  0.00  0.00    -0.300 OA
ATOM     14  C   UNL d   1     -54.760-100.643 -43.862  0.00  0.00     0.111 A 
ATOM     15  C   UNL d   1     -54.741-101.734 -44.794  0.00  0.00     0.111 A 
ATOM     16  C   UNL d   1     -54.751-101.069 -38.902  0.00  0.00     0.085 A 
ATOM     17  C   UNL d   1     -54.731-102.208 -39.857  0.00  0.00     0.085 A 
ATOM     18  C   UNL d   1     -54.750-101.188 -45.419  0.00  0.00     0.142 A 
ATOM     19  C   UNL d   1     -54.769-100.107 -44.479  0.00  0.00     0.142 A 
ATOM     20  C   UNL d   1     -54.744-101.444 -38.171  0.00  0.00     0.019 A 
ATOM     21  C   UNL d   1     -54.719-102.864 -39.356  0.00  0.00     0.019 A 
ATOM     22  C   UNL d   1     -54.730-102.246 -38.002  0.00  0.00     0.002 A 
ATOM     23  C   UNL d   1     -54.719-102.879 -38.532  0.00  0.00     0.002 A 
ENDROOT
TORSDOF 0
ENDMDL
