MODEL 1
REMARK VINA RESULT:      50.8      0.000      0.000
REMARK  6 active torsions:
REMARK  status: ('A' for Active; 'I' for Inactive)
REMARK    1  A    between atoms: C_6  and  S_1 
REMARK    2  A    between atoms: N_7  and  S_1 
REMARK    3  A    between atoms: N_2  and  C_3 
REMARK       I    between atoms: C_4  and  N_2 
REMARK    4  A    between atoms: C_3  and  N_11 
REMARK    5  A    between atoms: C_5  and  C_4 
REMARK    6  A    between atoms: N_11  and  C_19 
ROOT
ATOM      1  C   UNL d   1      58.271  49.631  50.080  0.00  0.00     0.104 A 
ATOM      2  C   UNL d   1      58.534  49.682  50.863  0.00  0.00     0.014 A 
ATOM      3  C   UNL d   1      58.804  49.602  49.456  0.00  0.00     0.014 A 
ATOM      4  C   UNL d   1      59.894  49.675  50.383  0.00  0.00     0.084 A 
ATOM      5  C   UNL d   1      59.622  49.624  49.603  0.00  0.00     0.020 A 
ATOM      6  C   UNL d   1      59.356  49.704  51.014  0.00  0.00     0.020 A 
ENDROOT
BRANCH   4   7
ATOM      7  N   UNL d   1      60.721  49.696  50.525  0.00  0.00    -0.217 NA
BRANCH   7   8
ATOM      8  C   UNL d   1      61.053  49.134  50.930  0.00  0.00     0.224 C 
ATOM      9  S   UNL d   1      60.940  49.076  51.699  0.00  0.00    -0.037 SA
BRANCH   8  10
ATOM     10  N   UNL d   1      61.842  48.262  50.185  0.00  0.00    -0.178 NA
ATOM     11  C   UNL d   1      61.766  47.487  50.290  0.00  0.00     0.287 C 
ATOM     12  O   UNL d   1      62.220  46.990  49.862  0.00  0.00    -0.265 OA
BRANCH  11  13
ATOM     13  C   UNL d   1      61.252  47.215  50.809  0.00  0.00     0.087 A 
ATOM     14  S   UNL d   1      61.170  47.421  51.562  0.00  0.00    -0.082 SA
ATOM     15  C   UNL d   1      60.583  47.002  51.861  0.00  0.00     0.036 A 
ATOM     16  C   UNL d   1      60.303  46.546  51.317  0.00  0.00     0.008 A 
ATOM     17  C   UNL d   1      60.703  46.664  50.662  0.00  0.00     0.012 A 
ENDBRANCH  11  13
ENDBRANCH   8  10
ENDBRANCH   7   8
ENDBRANCH   4   7
BRANCH   1  18
ATOM     18  S   UNL d   1      57.456  49.609  49.918  0.00  0.00     0.271 S 
ATOM     19  O   UNL d   1      57.281  49.523  50.718  0.00  0.00    -0.200 OA
ATOM     20  O   UNL d   1      57.618  49.696  49.099  0.00  0.00    -0.200 OA
BRANCH  18  21
ATOM     21  N   UNL d   1      56.620  49.589  49.723  0.00  0.00    -0.226 N 
ATOM     22  C   UNL d   1      56.037  49.454  50.312  0.00  0.00     0.111 C 
ATOM     23  C   UNL d   1      56.404  49.707  48.925  0.00  0.00     0.111 C 
ENDBRANCH  18  21
ENDBRANCH   1  18
TORSDOF 6
ENDMDL
