MODEL 1
REMARK VINA RESULT:      -3.9      0.000      0.000
REMARK  2 active torsions:
REMARK  status: ('A' for Active; 'I' for Inactive)
REMARK    1  A    between atoms: N_2  and  S_1 
REMARK    2  A    between atoms: C_4  and  S_1 
ROOT
ATOM      1  N   UNL d   1      58.297  -0.003  29.919  0.00  0.00    -0.231 N 
ATOM      2  C   UNL d   1      59.089   0.224  30.026  0.00  0.00     0.075 A 
ATOM      3  C   UNL d   1      59.613   0.272  29.384  0.00  0.00     0.017 A 
ATOM      4  C   UNL d   1      58.031  -0.186  29.145  0.00  0.00     0.092 A 
ATOM      5  C   UNL d   1      59.354   0.406  30.800  0.00  0.00     0.018 A 
ATOM      6  C   UNL d   1      58.556  -0.138  28.503  0.00  0.00     0.020 A 
ATOM      7  C   UNL d   1      59.346   0.093  28.634  0.00  0.00     0.003 A 
ATOM      8  C   UNL d   1      60.400   0.501  29.512  0.00  0.00     0.002 A 
ATOM      9  C   UNL d   1      60.140   0.633  30.915  0.00  0.00     0.002 A 
ATOM     10  C   UNL d   1      60.665   0.681  30.273  0.00  0.00     0.000 A 
ENDROOT
BRANCH   1  11
ATOM     11  S   UNL d   1      57.779  -0.049  30.567  0.00  0.00     0.271 S 
ATOM     12  O   UNL d   1      57.538   0.681  30.472  0.00  0.00    -0.200 OA
ATOM     13  O   UNL d   1      58.008  -0.836  30.706  0.00  0.00    -0.200 OA
BRANCH  11  14
ATOM     14  C   UNL d   1      57.295  -0.087  31.170  0.00  0.00     0.104 A 
ATOM     15  C   UNL d   1      57.074   0.562  31.532  0.00  0.00     0.015 A 
ATOM     16  C   UNL d   1      56.590   0.520  32.134  0.00  0.00     0.022 A 
ATOM     17  C   UNL d   1      56.326  -0.168  32.376  0.00  0.00     0.103 A 
ATOM     18  C   UNL d   1      56.554  -0.817  32.006  0.00  0.00     0.022 A 
ATOM     19  N   UNL d   1      55.825  -0.217  33.000  0.00  0.00    -0.148 N 
ATOM     20  C   UNL d   1      57.032  -0.779  31.410  0.00  0.00     0.015 A 
ENDBRANCH  11  14
ENDBRANCH   1  11
TORSDOF 2
ENDMDL
MODEL 2
REMARK VINA RESULT:      -3.8      1.084      1.518
REMARK  2 active torsions:
REMARK  status: ('A' for Active; 'I' for Inactive)
REMARK    1  A    between atoms: N_2  and  S_1 
REMARK    2  A    between atoms: C_4  and  S_1 
ROOT
ATOM      1  N   UNL d   1      58.247  -0.043  29.926  0.00  0.00    -0.231 N 
ATOM      2  C   UNL d   1      58.497  -0.752  29.572  0.00  0.00     0.075 A 
ATOM      3  C   UNL d   1      58.892  -0.753  28.842  0.00  0.00     0.017 A 
ATOM      4  C   UNL d   1      58.402   0.680  29.531  0.00  0.00     0.092 A 
ATOM      5  C   UNL d   1      58.342  -1.475  29.967  0.00  0.00     0.018 A 
ATOM      6  C   UNL d   1      58.797   0.680  28.801  0.00  0.00     0.020 A 
ATOM      7  C   UNL d   1      59.038  -0.044  28.465  0.00  0.00     0.003 A 
ATOM      8  C   UNL d   1      59.133  -1.471  28.506  0.00  0.00     0.002 A 
ATOM      9  C   UNL d   1      58.587  -2.185  29.622  0.00  0.00     0.002 A 
ATOM     10  C   UNL d   1      58.982  -2.185  28.891  0.00  0.00     0.000 A 
ENDROOT
BRANCH   1  11
ATOM     11  S   UNL d   1      57.852  -0.051  30.657  0.00  0.00     0.271 S 
ATOM     12  O   UNL d   1      57.161  -0.153  30.324  0.00  0.00    -0.200 OA
ATOM     13  O   UNL d   1      58.573   0.057  31.057  0.00  0.00    -0.200 OA
BRANCH  11  14
ATOM     14  C   UNL d   1      57.481  -0.060  31.336  0.00  0.00     0.104 A 
ATOM     15  C   UNL d   1      57.621   0.493  31.862  0.00  0.00     0.015 A 
ATOM     16  C   UNL d   1      57.247   0.481  32.539  0.00  0.00     0.022 A 
ATOM     17  C   UNL d   1      56.735  -0.080  32.693  0.00  0.00     0.103 A 
ATOM     18  C   UNL d   1      56.600  -0.632  32.159  0.00  0.00     0.022 A 
ATOM     19  N   UNL d   1      56.345  -0.096  33.394  0.00  0.00    -0.148 N 
ATOM     20  C   UNL d   1      56.967  -0.624  31.488  0.00  0.00     0.015 A 
ENDBRANCH  11  14
ENDBRANCH   1  11
TORSDOF 2
ENDMDL
MODEL 3
REMARK VINA RESULT:      -3.5      1.303      3.973
REMARK  2 active torsions:
REMARK  status: ('A' for Active; 'I' for Inactive)
REMARK    1  A    between atoms: N_2  and  S_1 
REMARK    2  A    between atoms: C_4  and  S_1 
ROOT
ATOM      1  N   UNL d   1      57.210   0.122  32.307  0.00  0.00    -0.231 N 
ATOM      2  C   UNL d   1      56.643  -0.437  32.545  0.00  0.00     0.075 A 
ATOM      3  C   UNL d   1      56.350  -0.448  33.321  0.00  0.00     0.017 A 
ATOM      4  C   UNL d   1      57.484   0.681  32.867  0.00  0.00     0.092 A 
ATOM      5  C   UNL d   1      56.369  -0.997  31.984  0.00  0.00     0.018 A 
ATOM      6  C   UNL d   1      57.191   0.670  33.644  0.00  0.00     0.020 A 
ATOM      7  C   UNL d   1      56.623   0.100  33.861  0.00  0.00     0.003 A 
ATOM      8  C   UNL d   1      55.785  -1.015  33.539  0.00  0.00     0.002 A 
ATOM      9  C   UNL d   1      55.806  -1.556  32.213  0.00  0.00     0.002 A 
ATOM     10  C   UNL d   1      55.512  -1.567  32.990  0.00  0.00     0.000 A 
ENDROOT
BRANCH   1  11
ATOM     11  S   UNL d   1      57.498   0.126  31.528  0.00  0.00     0.271 S 
ATOM     12  O   UNL d   1      58.182  -0.170  31.740  0.00  0.00    -0.200 OA
ATOM     13  O   UNL d   1      56.781   0.443  31.254  0.00  0.00    -0.200 OA
BRANCH  11  14
ATOM     14  C   UNL d   1      57.771   0.128  30.803  0.00  0.00     0.104 A 
ATOM     15  C   UNL d   1      58.272  -0.418  30.576  0.00  0.00     0.015 A 
ATOM     16  C   UNL d   1      58.543  -0.413  29.851  0.00  0.00     0.022 A 
ATOM     17  C   UNL d   1      58.314   0.135  29.352  0.00  0.00     0.103 A 
ATOM     18  C   UNL d   1      57.809   0.681  29.589  0.00  0.00     0.022 A 
ATOM     19  N   UNL d   1      58.591   0.145  28.600  0.00  0.00    -0.148 N 
ATOM     20  C   UNL d   1      57.540   0.679  30.305  0.00  0.00     0.015 A 
ENDBRANCH  11  14
ENDBRANCH   1  11
TORSDOF 2
ENDMDL
MODEL 4
REMARK VINA RESULT:      -3.0      2.373      3.784
REMARK  2 active torsions:
REMARK  status: ('A' for Active; 'I' for Inactive)
REMARK    1  A    between atoms: N_2  and  S_1 
REMARK    2  A    between atoms: C_4  and  S_1 
ROOT
ATOM      1  N   UNL d   1      58.789  -0.859  29.084  0.00  0.00    -0.231 N 
ATOM      2  C   UNL d   1      58.327  -0.679  29.750  0.00  0.00     0.075 A 
ATOM      3  C   UNL d   1      58.046   0.091  29.883  0.00  0.00     0.017 A 
ATOM      4  C   UNL d   1      58.970  -0.246  28.541  0.00  0.00     0.092 A 
ATOM      5  C   UNL d   1      58.145  -1.291  30.292  0.00  0.00     0.018 A 
ATOM      6  C   UNL d   1      58.690   0.524  28.675  0.00  0.00     0.020 A 
ATOM      7  C   UNL d   1      58.228   0.682  29.350  0.00  0.00     0.003 A 
ATOM      8  C   UNL d   1      57.586   0.251  30.555  0.00  0.00     0.002 A 
ATOM      9  C   UNL d   1      57.686  -1.120  30.958  0.00  0.00     0.002 A 
ATOM     10  C   UNL d   1      57.406  -0.350  31.091  0.00  0.00     0.000 A 
ENDROOT
BRANCH   1  11
ATOM     11  S   UNL d   1      59.065  -1.632  28.958  0.00  0.00     0.271 S 
ATOM     12  O   UNL d   1      59.679  -1.527  29.419  0.00  0.00    -0.200 OA
ATOM     13  O   UNL d   1      58.423  -1.790  28.455  0.00  0.00    -0.200 OA
BRANCH  11  14
ATOM     14  C   UNL d   1      59.326  -2.352  28.843  0.00  0.00     0.104 A 
ATOM     15  C   UNL d   1      60.067  -2.525  28.995  0.00  0.00     0.015 A 
ATOM     16  C   UNL d   1      60.324  -3.245  28.879  0.00  0.00     0.022 A 
ATOM     17  C   UNL d   1      59.845  -3.793  28.613  0.00  0.00     0.103 A 
ATOM     18  C   UNL d   1      59.101  -3.611  28.463  0.00  0.00     0.022 A 
ATOM     19  N   UNL d   1      60.107  -4.541  28.491  0.00  0.00    -0.148 N 
ATOM     20  C   UNL d   1      58.843  -2.900  28.576  0.00  0.00     0.015 A 
ENDBRANCH  11  14
ENDBRANCH   1  11
TORSDOF 2
ENDMDL
