MODEL 1
REMARK VINA RESULT:      52.7      0.000      0.000
REMARK  4 active torsions:
REMARK  status: ('A' for Active; 'I' for Inactive)
REMARK    1  A    between atoms: C_2  and  N_1 
REMARK    2  A    between atoms: C_9  and  C_10 
REMARK       I    between atoms: N_11  and  C_9 
REMARK    3  A    between atoms: C_21  and  N_11 
REMARK    4  A    between atoms: C_20  and  C_21 
ROOT
ATOM      1  C   UNL d   1     -55.382-101.694 -42.997  0.00  0.00     0.279 C 
ATOM      2  N   UNL d   1     -54.840-101.811 -42.391  0.00  0.00    -0.206 NA
ATOM      3  O   UNL d   1     -55.902-102.296 -43.208  0.00  0.00    -0.265 OA
ENDROOT
BRANCH   1   4
ATOM      4  C   UNL d   1     -55.407-100.969 -43.398  0.00  0.00     0.059 A 
ATOM      5  C   UNL d   1     -56.121-100.546 -43.430  0.00  0.00     0.028 A 
ATOM      6  C   UNL d   1     -56.133 -99.825 -43.832  0.00  0.00     0.127 A 
ATOM      7  C   UNL d   1     -55.445 -99.529 -44.198  0.00  0.00     0.022 A 
ATOM      8  C   UNL d   1     -54.745 -99.959 -44.157  0.00  0.00     0.002 A 
ATOM      9  C   UNL d   1     -55.460 -98.813 -44.596  0.00  0.00     0.002 C 
ATOM     10  C   UNL d   1     -54.719-100.681 -43.759  0.00  0.00     0.005 A 
BRANCH   6  11
ATOM     11  N   UNL d   1     -56.837 -99.392 -43.873  0.00  0.00    -0.114 N 
ATOM     12  O   UNL d   1     -57.347 -99.485 -44.514  0.00  0.00    -0.532 OA
ATOM     13  O   UNL d   1     -57.038 -98.862 -43.273  0.00  0.00    -0.532 OA
ENDBRANCH   6  11
ENDBRANCH   1   4
BRANCH   2  14
ATOM     14  C   UNL d   1     -54.814-102.526 -41.994  0.00  0.00     0.102 C 
BRANCH  14  15
ATOM     15  C   UNL d   1     -55.192-102.608 -41.267  0.00  0.00     0.019 A 
ATOM     16  C   UNL d   1     -54.753-102.563 -40.570  0.00  0.00     0.003 A 
ATOM     17  C   UNL d   1     -55.127-102.645 -39.835  0.00  0.00     0.019 A 
ATOM     18  C   UNL d   1     -54.846-102.626 -39.068  0.00  0.00     0.021 A 
ATOM     19  C   UNL d   1     -55.940-102.771 -39.809  0.00  0.00     0.081 A 
ATOM     20  C   UNL d   1     -55.485-102.741 -38.559  0.00  0.00     0.082 A 
ATOM     21  C   UNL d   1     -55.451-102.763 -37.736  0.00  0.00     0.021 C 
ATOM     22  N   UNL d   1     -56.163-102.831 -39.017  0.00  0.00    -0.246 NA
ATOM     23  C   UNL d   1     -56.379-102.816 -40.502  0.00  0.00     0.019 A 
ATOM     24  C   UNL d   1     -56.005-102.734 -41.233  0.00  0.00     0.003 A 
ENDBRANCH  14  15
ENDBRANCH   2  14
TORSDOF 4
ENDMDL
