MODEL 1
REMARK VINA RESULT:      -4.6      0.000      0.000
REMARK  6 active torsions:
REMARK  status: ('A' for Active; 'I' for Inactive)
REMARK    1  A    between atoms: N_4  and  C_2 
REMARK    2  A    between atoms: C_9  and  N_4 
REMARK    3  A    between atoms: O_16  and  C_8 
REMARK    4  A    between atoms: O_24  and  C_10 
REMARK    5  A    between atoms: C_22  and  O_16 
REMARK    6  A    between atoms: C_26  and  C_22 
ROOT
ATOM      1  C   UNL d   1     -46.574  13.072  22.781  0.00  0.00     0.056 A 
ATOM      2  C   UNL d   1     -47.366  13.137  22.992  0.00  0.00     0.166 A 
ATOM      3  C   UNL d   1     -46.185  13.712  22.432  0.00  0.00     0.088 A 
ATOM      4  C   UNL d   1     -46.168  12.369  22.918  0.00  0.00     0.031 A 
ATOM      5  N   UNL d   1     -47.779  13.844  22.856  0.00  0.00    -0.205 NA
ATOM      6  C   UNL d   1     -45.392  13.647  22.221  0.00  0.00     0.046 A 
ATOM      7  C   UNL d   1     -44.987  12.944  22.358  0.00  0.00     0.124 A 
ATOM      8  C   UNL d   1     -45.376  12.304  22.707  0.00  0.00     0.117 A 
ATOM      9  N   UNL d   1     -46.590  14.415  22.295  0.00  0.00    -0.224 NA
ATOM     10  C   UNL d   1     -47.390  14.484  22.507  0.00  0.00     0.200 A 
ENDROOT
BRANCH   2  11
ATOM     11  N   UNL d   1     -47.758  12.491  23.345  0.00  0.00    -0.224 NA
BRANCH  11  12
ATOM     12  C   UNL d   1     -48.575  12.444  23.304  0.00  0.00     0.110 A 
ATOM     13  C   UNL d   1     -48.947  11.841  22.880  0.00  0.00     0.158 A 
ATOM     14  C   UNL d   1     -49.768  11.792  22.838  0.00  0.00     0.038 A 
ATOM     15  F   UNL d   1     -48.483  11.273  22.486  0.00  0.00    -0.203 F 
ATOM     16  C   UNL d   1     -50.233  12.361  23.231  0.00  0.00     0.037 A 
ATOM     17  C   UNL d   1     -49.861  12.971  23.661  0.00  0.00     0.008 A 
ATOM     18 BR   UNL d   1     -51.064  12.314  23.190  0.00  0.00    -0.049 Br
ATOM     19  C   UNL d   1     -49.040  13.013  23.698  0.00  0.00     0.022 A 
ENDBRANCH  11  12
ENDBRANCH   2  11
BRANCH   8  20
ATOM     20  O   UNL d   1     -44.960  11.595  22.843  0.00  0.00    -0.326 OA
ATOM     21  C   UNL d   1     -45.249  11.044  23.387  0.00  0.00     0.181 C 
ENDBRANCH   8  20
BRANCH   7  22
ATOM     22  O   UNL d   1     -44.182  12.876  22.144  0.00  0.00    -0.303 OA
BRANCH  22  23
ATOM     23  C   UNL d   1     -43.906  13.218  21.444  0.00  0.00     0.123 C 
BRANCH  23  24
ATOM     24  C   UNL d   1     -43.098  13.371  21.354  0.00  0.00     0.028 A 
ATOM     25  C   UNL d   1     -42.543  12.768  21.486  0.00  0.00     0.021 A 
ATOM     26  C   UNL d   1     -41.740  12.926  21.395  0.00  0.00     0.080 A 
ATOM     27  N   UNL d   1     -41.477  13.682  21.173  0.00  0.00    -0.301 N 
ATOM     28  C   UNL d   1     -42.030  14.280  21.042  0.00  0.00     0.080 A 
ATOM     29  C   UNL d   1     -40.657  13.838  21.081  0.00  0.00     0.100 C 
ATOM     30  C   UNL d   1     -42.842  14.126  21.133  0.00  0.00     0.021 A 
ENDBRANCH  23  24
ENDBRANCH  22  23
ENDBRANCH   7  22
TORSDOF 6
ENDMDL
MODEL 2
REMARK VINA RESULT:      -2.6      2.711      6.155
REMARK  6 active torsions:
REMARK  status: ('A' for Active; 'I' for Inactive)
REMARK    1  A    between atoms: N_4  and  C_2 
REMARK    2  A    between atoms: C_9  and  N_4 
REMARK    3  A    between atoms: O_16  and  C_8 
REMARK    4  A    between atoms: O_24  and  C_10 
REMARK    5  A    between atoms: C_22  and  O_16 
REMARK    6  A    between atoms: C_26  and  C_22 
ROOT
ATOM      1  C   UNL d   1     -44.575  12.837  22.143  0.00  0.00     0.056 A 
ATOM      2  C   UNL d   1     -43.815  12.903  21.834  0.00  0.00     0.166 A 
ATOM      3  C   UNL d   1     -44.799  12.153  22.547  0.00  0.00     0.088 A 
ATOM      4  C   UNL d   1     -45.111  13.454  22.048  0.00  0.00     0.031 A 
ATOM      5  N   UNL d   1     -43.271  12.282  21.927  0.00  0.00    -0.205 NA
ATOM      6  C   UNL d   1     -45.559  12.087  22.856  0.00  0.00     0.046 A 
ATOM      7  C   UNL d   1     -46.095  12.704  22.762  0.00  0.00     0.124 A 
ATOM      8  C   UNL d   1     -45.871  13.389  22.358  0.00  0.00     0.117 A 
ATOM      9  N   UNL d   1     -44.263  11.536  22.642  0.00  0.00    -0.224 NA
ATOM     10  C   UNL d   1     -43.495  11.598  22.331  0.00  0.00     0.200 A 
ENDROOT
BRANCH   2  11
ATOM     11  N   UNL d   1     -43.589  13.593  21.426  0.00  0.00    -0.224 NA
BRANCH  11  12
ATOM     12  C   UNL d   1     -42.797  13.725  21.264  0.00  0.00     0.110 A 
ATOM     13  C   UNL d   1     -42.481  14.488  21.268  0.00  0.00     0.158 A 
ATOM     14  C   UNL d   1     -41.686  14.623  21.105  0.00  0.00     0.038 A 
ATOM     15  F   UNL d   1     -42.978  15.134  21.441  0.00  0.00    -0.203 F 
ATOM     16  C   UNL d   1     -41.188  13.976  20.933  0.00  0.00     0.037 A 
ATOM     17  C   UNL d   1     -41.503  13.204  20.927  0.00  0.00     0.008 A 
ATOM     18 BR   UNL d   1     -40.382  14.110  20.767  0.00  0.00    -0.049 Br
ATOM     19  C   UNL d   1     -42.299  13.079  21.091  0.00  0.00     0.022 A 
ENDBRANCH  11  12
ENDBRANCH   2  11
BRANCH   8  20
ATOM     20  O   UNL d   1     -46.419  14.011  22.265  0.00  0.00    -0.326 OA
ATOM     21  C   UNL d   1     -46.203  14.784  22.459  0.00  0.00     0.181 C 
ENDBRANCH   8  20
BRANCH   7  22
ATOM     22  O   UNL d   1     -46.868  12.640  23.075  0.00  0.00    -0.303 OA
BRANCH  22  23
ATOM     23  C   UNL d   1     -47.291  11.934  22.999  0.00  0.00     0.123 C 
BRANCH  23  24
ATOM     24  C   UNL d   1     -48.118  11.950  23.007  0.00  0.00     0.028 A 
ATOM     25  C   UNL d   1     -48.524  12.171  23.697  0.00  0.00     0.021 A 
ATOM     26  C   UNL d   1     -49.348  12.185  23.698  0.00  0.00     0.080 A 
ATOM     27  N   UNL d   1     -49.778  11.981  23.018  0.00  0.00    -0.301 N 
ATOM     28  C   UNL d   1     -49.374  11.762  22.333  0.00  0.00     0.080 A 
ATOM     29  C   UNL d   1     -50.618  11.997  23.025  0.00  0.00     0.100 C 
ATOM     30  C   UNL d   1     -48.542  11.746  22.326  0.00  0.00     0.021 A 
ENDBRANCH  23  24
ENDBRANCH  22  23
ENDBRANCH   7  22
TORSDOF 6
ENDMDL
MODEL 3
REMARK VINA RESULT:      -1.9      5.343      8.938
REMARK  6 active torsions:
REMARK  status: ('A' for Active; 'I' for Inactive)
REMARK    1  A    between atoms: N_4  and  C_2 
REMARK    2  A    between atoms: C_9  and  N_4 
REMARK    3  A    between atoms: O_16  and  C_8 
REMARK    4  A    between atoms: O_24  and  C_10 
REMARK    5  A    between atoms: C_22  and  O_16 
REMARK    6  A    between atoms: C_26  and  C_22 
ROOT
ATOM      1  C   UNL d   1     -40.010  14.644  18.124  0.00  0.00     0.056 A 
ATOM      2  C   UNL d   1     -39.702  14.868  17.395  0.00  0.00     0.166 A 
ATOM      3  C   UNL d   1     -40.813  14.752  18.285  0.00  0.00     0.088 A 
ATOM      4  C   UNL d   1     -39.516  14.313  18.694  0.00  0.00     0.031 A 
ATOM      5  N   UNL d   1     -40.197  15.203  16.818  0.00  0.00    -0.205 NA
ATOM      6  C   UNL d   1     -41.120  14.528  19.015  0.00  0.00     0.046 A 
ATOM      7  C   UNL d   1     -40.627  14.197  19.584  0.00  0.00     0.124 A 
ATOM      8  C   UNL d   1     -39.824  14.089  19.423  0.00  0.00     0.117 A 
ATOM      9  N   UNL d   1     -41.306  15.083  17.716  0.00  0.00    -0.224 NA
ATOM     10  C   UNL d   1     -41.000  15.310  16.979  0.00  0.00     0.200 A 
ENDROOT
BRANCH   2  11
ATOM     11  N   UNL d   1     -38.892  14.759  17.232  0.00  0.00    -0.224 NA
BRANCH  11  12
ATOM     12  C   UNL d   1     -38.655  14.570  16.471  0.00  0.00     0.110 A 
ATOM     13  C   UNL d   1     -38.225  15.105  16.012  0.00  0.00     0.158 A 
ATOM     14  C   UNL d   1     -37.986  14.917  15.247  0.00  0.00     0.038 A 
ATOM     15  F   UNL d   1     -38.031  15.850  16.330  0.00  0.00    -0.203 F 
ATOM     16  C   UNL d   1     -38.181  14.171  14.929  0.00  0.00     0.037 A 
ATOM     17  C   UNL d   1     -38.615  13.627  15.389  0.00  0.00     0.008 A 
ATOM     18 BR   UNL d   1     -37.940  13.978  14.155  0.00  0.00    -0.049 Br
ATOM     19  C   UNL d   1     -38.850  13.824  16.153  0.00  0.00     0.022 A 
ENDBRANCH  11  12
ENDBRANCH   2  11
BRANCH   8  20
ATOM     20  O   UNL d   1     -39.329  13.753  20.004  0.00  0.00    -0.326 OA
ATOM     21  C   UNL d   1     -38.545  14.003  20.075  0.00  0.00     0.181 C 
ENDBRANCH   8  20
BRANCH   7  22
ATOM     22  O   UNL d   1     -40.937  13.969  20.326  0.00  0.00    -0.303 OA
BRANCH  22  23
ATOM     23  C   UNL d   1     -41.732  14.105  20.505  0.00  0.00     0.123 C 
BRANCH  23  24
ATOM     24  C   UNL d   1     -42.150  13.551  20.957  0.00  0.00     0.028 A 
ATOM     25  C   UNL d   1     -41.765  13.128  21.558  0.00  0.00     0.021 A 
ATOM     26  C   UNL d   1     -42.186  12.578  22.004  0.00  0.00     0.080 A 
ATOM     27  N   UNL d   1     -42.992  12.442  21.860  0.00  0.00    -0.301 N 
ATOM     28  C   UNL d   1     -43.374  12.864  21.263  0.00  0.00     0.080 A 
ATOM     29  C   UNL d   1     -43.418  11.880  22.318  0.00  0.00     0.100 C 
ATOM     30  C   UNL d   1     -42.954  13.419  20.810  0.00  0.00     0.021 A 
ENDBRANCH  23  24
ENDBRANCH  22  23
ENDBRANCH   7  22
TORSDOF 6
ENDMDL
