MODEL 1
REMARK VINA RESULT:      -2.8      0.000      0.000
REMARK  2 active torsions:
REMARK  status: ('A' for Active; 'I' for Inactive)
REMARK    1  A    between atoms: C_6  and  C_3 
REMARK    2  A    between atoms: C_9  and  C_6 
ROOT
ATOM      1  C   UNL d   1      31.645  16.312 -24.175  0.00  0.00     0.011 C 
ENDROOT
BRANCH   1   2
ATOM      2  C   UNL d   1      32.183  16.790 -23.748  0.00  0.00     0.092 A 
ATOM      3  C   UNL d   1      32.876  16.580 -23.411  0.00  0.00     0.288 A 
ATOM      4  N   UNL d   1      33.200  17.223 -23.063  0.00  0.00    -0.163 NA
ATOM      5  O   UNL d   1      33.205  15.783 -23.429  0.00  0.00    -0.265 OA
ATOM      6  C   UNL d   1      32.662  17.853 -23.206  0.00  0.00     0.313 A 
ATOM      7  S   UNL d   1      32.051  17.546 -23.629  0.00  0.00    -0.021 SA
ATOM      8  O   UNL d   1      32.767  18.649 -22.942  0.00  0.00    -0.258 OA
ENDBRANCH   1   2
BRANCH   1   9
ATOM      9  C   UNL d   1      30.847  16.227 -23.978  0.00  0.00     0.001 A 
ATOM     10  C   UNL d   1      30.580  15.790 -23.331  0.00  0.00     0.001 A 
ATOM     11  C   UNL d   1      29.795  15.731 -23.172  0.00  0.00     0.007 A 
ATOM     12  C   UNL d   1      29.223  16.116 -23.666  0.00  0.00     0.035 A 
ATOM     13  C   UNL d   1      29.490  16.553 -24.312  0.00  0.00     0.007 A 
ATOM     14 BR   UNL d   1      28.412  16.066 -23.517  0.00  0.00    -0.049 Br
ATOM     15  C   UNL d   1      30.313  16.612 -24.474  0.00  0.00     0.001 A 
ENDBRANCH   1   9
TORSDOF 2
ENDMDL
MODEL 2
REMARK VINA RESULT:      -2.8      2.642      3.537
REMARK  2 active torsions:
REMARK  status: ('A' for Active; 'I' for Inactive)
REMARK    1  A    between atoms: C_6  and  C_3 
REMARK    2  A    between atoms: C_9  and  C_6 
ROOT
ATOM      1  C   UNL d   1      30.389  16.930 -24.708  0.00  0.00     0.011 C 
ENDROOT
BRANCH   1   2
ATOM      2  C   UNL d   1      29.662  16.760 -24.330  0.00  0.00     0.092 A 
ATOM      3  C   UNL d   1      28.974  17.163 -24.368  0.00  0.00     0.288 A 
ATOM      4  N   UNL d   1      28.430  16.792 -23.914  0.00  0.00    -0.163 NA
ATOM      5  O   UNL d   1      28.856  17.881 -24.831  0.00  0.00    -0.265 OA
ATOM      6  C   UNL d   1      28.825  16.126 -23.586  0.00  0.00     0.313 A 
ATOM      7  S   UNL d   1      29.579  16.142 -23.865  0.00  0.00    -0.021 SA
ATOM      8  O   UNL d   1      28.472  15.563 -23.065  0.00  0.00    -0.258 OA
ENDBRANCH   1   2
BRANCH   1   9
ATOM      9  C   UNL d   1      31.099  17.061 -24.306  0.00  0.00     0.001 A 
ATOM     10  C   UNL d   1      31.535  16.464 -23.941  0.00  0.00     0.001 A 
ATOM     11  C   UNL d   1      32.222  16.632 -23.559  0.00  0.00     0.007 A 
ATOM     12  C   UNL d   1      32.513  17.427 -23.523  0.00  0.00     0.035 A 
ATOM     13  C   UNL d   1      32.077  18.025 -23.888  0.00  0.00     0.007 A 
ATOM     14 BR   UNL d   1      33.217  17.618 -23.135  0.00  0.00    -0.049 Br
ATOM     15  C   UNL d   1      31.359  17.843 -24.286  0.00  0.00     0.001 A 
ENDBRANCH   1   9
TORSDOF 2
ENDMDL
MODEL 3
REMARK VINA RESULT:      -2.8      1.220      1.577
REMARK  2 active torsions:
REMARK  status: ('A' for Active; 'I' for Inactive)
REMARK    1  A    between atoms: C_6  and  C_3 
REMARK    2  A    between atoms: C_9  and  C_6 
ROOT
ATOM      1  C   UNL d   1      32.092  17.131 -24.351  0.00  0.00     0.011 C 
ENDROOT
BRANCH   1   2
ATOM      2  C   UNL d   1      32.420  17.804 -23.976  0.00  0.00     0.092 A 
ATOM      3  C   UNL d   1      32.557  18.528 -24.283  0.00  0.00     0.288 A 
ATOM      4  N   UNL d   1      32.877  18.993 -23.717  0.00  0.00    -0.163 NA
ATOM      5  O   UNL d   1      32.381  18.752 -25.097  0.00  0.00    -0.265 OA
ATOM      6  C   UNL d   1      32.932  18.511 -23.031  0.00  0.00     0.313 A 
ATOM      7  S   UNL d   1      32.641  17.788 -23.231  0.00  0.00    -0.021 SA
ATOM      8  O   UNL d   1      33.238  18.762 -22.285  0.00  0.00    -0.258 OA
ENDBRANCH   1   2
BRANCH   1   9
ATOM      9  C   UNL d   1      31.413  16.741 -24.088  0.00  0.00     0.001 A 
ATOM     10  C   UNL d   1      30.647  17.019 -24.217  0.00  0.00     0.001 A 
ATOM     11  C   UNL d   1      30.011  16.611 -23.945  0.00  0.00     0.007 A 
ATOM     12  C   UNL d   1      30.113  15.885 -23.519  0.00  0.00     0.035 A 
ATOM     13  C   UNL d   1      30.878  15.607 -23.390  0.00  0.00     0.007 A 
ATOM     14 BR   UNL d   1      29.470  15.453 -23.233  0.00  0.00    -0.049 Br
ATOM     15  C   UNL d   1      31.541  16.038 -23.677  0.00  0.00     0.001 A 
ENDBRANCH   1   9
TORSDOF 2
ENDMDL
MODEL 4
REMARK VINA RESULT:      -2.5      4.433      5.433
REMARK  2 active torsions:
REMARK  status: ('A' for Active; 'I' for Inactive)
REMARK    1  A    between atoms: C_6  and  C_3 
REMARK    2  A    between atoms: C_9  and  C_6 
ROOT
ATOM      1  C   UNL d   1      33.120  20.929 -21.352  0.00  0.00     0.011 C 
ENDROOT
BRANCH   1   2
ATOM      2  C   UNL d   1      32.734  21.671 -21.373  0.00  0.00     0.092 A 
ATOM      3  C   UNL d   1      32.063  21.895 -21.003  0.00  0.00     0.288 A 
ATOM      4  N   UNL d   1      31.906  22.656 -21.187  0.00  0.00    -0.163 NA
ATOM      5  O   UNL d   1      31.597  21.382 -20.490  0.00  0.00    -0.265 OA
ATOM      6  C   UNL d   1      32.526  22.898 -21.701  0.00  0.00     0.313 A 
ATOM      7  S   UNL d   1      33.014  22.264 -21.791  0.00  0.00    -0.021 SA
ATOM      8  O   UNL d   1      32.599  23.666 -22.045  0.00  0.00    -0.258 OA
ENDBRANCH   1   2
BRANCH   1   9
ATOM      9  C   UNL d   1      33.135  20.398 -21.985  0.00  0.00     0.001 A 
ATOM     10  C   UNL d   1      33.231  20.628 -22.772  0.00  0.00     0.001 A 
ATOM     11  C   UNL d   1      33.241  20.081 -23.360  0.00  0.00     0.007 A 
ATOM     12  C   UNL d   1      33.153  19.256 -23.185  0.00  0.00     0.035 A 
ATOM     13  C   UNL d   1      33.057  19.027 -22.399  0.00  0.00     0.007 A 
ATOM     14 BR   UNL d   1      33.160  18.680 -23.778  0.00  0.00    -0.049 Br
ATOM     15  C   UNL d   1      33.047  19.603 -21.787  0.00  0.00     0.001 A 
ENDBRANCH   1   9
TORSDOF 2
ENDMDL
