MODEL 1
REMARK VINA RESULT:      44.8      0.000      0.000
REMARK  7 active torsions:
REMARK  status: ('A' for Active; 'I' for Inactive)
REMARK    1  A    between atoms: C_3  and  S_1 
REMARK    2  A    between atoms: N_4  and  S_1 
REMARK    3  A    between atoms: C_6  and  C_2 
REMARK       I    between atoms: N_13  and  C_6 
REMARK    4  A    between atoms: C_17  and  N_13 
REMARK    5  A    between atoms: C_18  and  C_17 
REMARK    6  A    between atoms: C_20  and  C_18 
REMARK    7  A    between atoms: C_19  and  C_20 
ROOT
ATOM      1  C   UNL d   1     -50.378  27.246  33.995  0.00  0.00     0.086 A 
ATOM      2  C   UNL d   1     -51.391  26.299  33.631  0.00  0.00     0.104 A 
ATOM      3  C   UNL d   1     -50.660  26.466  33.974  0.00  0.00     0.020 A 
ATOM      4  C   UNL d   1     -50.829  27.855  33.674  0.00  0.00     0.145 A 
ATOM      5  C   UNL d   1     -51.847  26.913  33.306  0.00  0.00     0.015 A 
ATOM      6  C   UNL d   1     -51.568  27.684  33.328  0.00  0.00     0.030 A 
ATOM      7  F   UNL d   1     -50.558  28.629  33.691  0.00  0.00    -0.204 F 
ENDROOT
BRANCH   2   8
ATOM      8  S   UNL d   1     -51.674  25.516  33.609  0.00  0.00     0.271 S 
ATOM      9  O   UNL d   1     -50.929  25.254  33.865  0.00  0.00    -0.200 OA
ATOM     10  O   UNL d   1     -52.410  25.789  33.355  0.00  0.00    -0.200 OA
BRANCH   8  11
ATOM     11  N   UNL d   1     -51.945  24.740  33.590  0.00  0.00    -0.229 N 
ATOM     12  C   UNL d   1     -52.751  24.588  33.652  0.00  0.00     0.092 A 
ATOM     13  C   UNL d   1     -53.018  23.808  33.633  0.00  0.00     0.020 A 
ATOM     14  C   UNL d   1     -52.489  23.188  33.554  0.00  0.00     0.003 A 
ATOM     15  C   UNL d   1     -51.680  23.345  33.492  0.00  0.00     0.020 A 
ATOM     16  C   UNL d   1     -51.408  24.126  33.511  0.00  0.00     0.092 A 
ENDBRANCH   8  11
ENDBRANCH   2   8
BRANCH   1  17
ATOM     17  C   UNL d   1     -49.644  27.408  34.341  0.00  0.00     0.281 C 
ATOM     18  O   UNL d   1     -48.953  27.282  33.901  0.00  0.00    -0.265 OA
ATOM     19  N   UNL d   1     -49.596  27.692  35.111  0.00  0.00    -0.206 NA
BRANCH  19  20
ATOM     20  C   UNL d   1     -48.864  27.854  35.457  0.00  0.00     0.102 C 
BRANCH  20  21
ATOM     21  C   UNL d   1     -48.544  28.609  35.419  0.00  0.00     0.021 C 
BRANCH  21  22
ATOM     22  C   UNL d   1     -48.044  28.870  36.016  0.00  0.00     0.002 C 
BRANCH  22  23
ATOM     23  C   UNL d   1     -47.449  29.420  35.847  0.00  0.00     0.000 C 
ATOM     24  C   UNL d   1     -47.580  30.014  35.295  0.00  0.00     0.000 C 
ENDBRANCH  22  23
ENDBRANCH  21  22
ENDBRANCH  20  21
ENDBRANCH  19  20
ENDBRANCH   1  17
TORSDOF 7
ENDMDL
