MODEL 1
REMARK VINA RESULT:      71.5      0.000      0.000
REMARK  6 active torsions:
REMARK  status: ('A' for Active; 'I' for Inactive)
REMARK    1  A    between atoms: C_3  and  C_1 
REMARK    2  A    between atoms: N_9  and  C_3 
REMARK    3  A    between atoms: C_13  and  C_3 
REMARK    4  A    between atoms: N_4  and  C_10 
REMARK    5  A    between atoms: C_19  and  C_8 
REMARK    6  A    between atoms: C_15  and  N_9 
ROOT
ATOM      1  C   UNL d   1      60.528  48.838  50.897  0.00  0.00     0.125 C 
ENDROOT
BRANCH   1   2
ATOM      2  C   UNL d   1      60.824  48.094  50.644  0.00  0.00     0.161 A 
ATOM      3  C   UNL d   1      61.415  48.049  50.083  0.00  0.00     0.258 A 
ATOM      4  C   UNL d   1      61.699  47.305  49.840  0.00  0.00     0.238 A 
ATOM      5  O   UNL d   1      61.744  48.744  49.742  0.00  0.00    -0.281 OA
ATOM      6  O   UNL d   1      62.290  47.260  49.279  0.00  0.00    -0.283 OA
ATOM      7  C   UNL d   1      61.384  46.616  50.167  0.00  0.00     0.073 A 
ATOM      8  C   UNL d   1      60.794  46.661  50.728  0.00  0.00     0.146 A 
ATOM      9  O   UNL d   1      60.509  47.397  50.971  0.00  0.00    -0.299 OA
BRANCH   8  10
ATOM     10  C   UNL d   1      60.479  45.965  51.055  0.00  0.00     0.259 C 
ATOM     11  O   UNL d   1      60.952  45.440  51.473  0.00  0.00    -0.281 OA
ENDBRANCH   8  10
ENDBRANCH   1   2
BRANCH   1  12
ATOM     12  N   UNL d   1      60.034  49.276  50.418  0.00  0.00    -0.242 NA
BRANCH  12  13
ATOM     13  C   UNL d   1      59.247  49.357  50.599  0.00  0.00     0.083 A 
ATOM     14  C   UNL d   1      58.674  49.179  50.023  0.00  0.00     0.043 A 
ATOM     15  C   UNL d   1      57.868  49.259  50.198  0.00  0.00     0.128 A 
ATOM     16  C   UNL d   1      57.635  49.513  50.937  0.00  0.00     0.024 A 
ATOM     17  C   UNL d   1      58.205  49.691  51.513  0.00  0.00     0.003 A 
ATOM     18  C   UNL d   1      59.014  49.612  51.338  0.00  0.00     0.019 A 
BRANCH  15  19
ATOM     19  N   UNL d   1      57.293  49.084  49.633  0.00  0.00    -0.114 N 
ATOM     20  O   UNL d   1      56.974  49.645  49.102  0.00  0.00    -0.532 OA
ATOM     21  O   UNL d   1      56.963  48.342  49.522  0.00  0.00    -0.532 OA
ENDBRANCH  15  19
ENDBRANCH  12  13
ENDBRANCH   1  12
BRANCH   1  22
ATOM     22  C   UNL d   1      60.743  49.126  51.644  0.00  0.00     0.101 A 
ATOM     23  N   UNL d   1      60.160  49.273  52.219  0.00  0.00    -0.242 NA
ATOM     24  C   UNL d   1      60.377  49.559  52.962  0.00  0.00     0.099 A 
ATOM     25  C   UNL d   1      61.162  49.699  53.134  0.00  0.00     0.021 A 
ATOM     26  C   UNL d   1      61.724  49.551  52.562  0.00  0.00     0.003 A 
ATOM     27  C   UNL d   1      61.524  49.270  51.830  0.00  0.00     0.021 A 
ENDBRANCH   1  22
TORSDOF 6
ENDMDL
