MODEL 1
REMARK VINA RESULT:      68.0      0.000      0.000
REMARK  5 active torsions:
REMARK  status: ('A' for Active; 'I' for Inactive)
REMARK    1  A    between atoms: C_5  and  C_1 
REMARK    2  A    between atoms: C_12  and  C_5 
REMARK    3  A    between atoms: C_7  and  C_22 
REMARK       I    between atoms: N_21  and  C_12 
REMARK    4  A    between atoms: C_23  and  N_21 
REMARK    5  A    between atoms: C_22  and  C_23 
ROOT
ATOM      1  C   UNL d   1      60.994  49.157  51.095  0.00  0.00     0.102 C 
ENDROOT
BRANCH   1   2
ATOM      2  C   UNL d   1      60.383  49.690  51.250  0.00  0.00     0.026 C 
BRANCH   2   3
ATOM      3  C   UNL d   1      59.701  49.694  50.765  0.00  0.00     0.059 A 
ATOM      4  C   UNL d   1      59.779  49.702  49.945  0.00  0.00     0.279 A 
ATOM      5  N   UNL d   1      59.110  49.706  49.466  0.00  0.00    -0.208 NA
ATOM      6  O   UNL d   1      60.541  49.705  49.602  0.00  0.00    -0.265 OA
ATOM      7  C   UNL d   1      58.363  49.703  49.800  0.00  0.00     0.085 A 
ATOM      8  C   UNL d   1      58.283  49.695  50.628  0.00  0.00     0.018 A 
ATOM      9  C   UNL d   1      57.692  49.707  49.326  0.00  0.00     0.019 A 
ATOM     10  C   UNL d   1      58.953  49.691  51.111  0.00  0.00     0.006 A 
ATOM     11  C   UNL d   1      57.535  49.691  50.970  0.00  0.00     0.002 A 
ATOM     12  C   UNL d   1      56.865  49.696  50.488  0.00  0.00     0.000 A 
ATOM     13  C   UNL d   1      56.945  49.703  49.663  0.00  0.00     0.002 A 
ATOM     14  C   UNL d   1      56.104  49.692  50.831  0.00  0.00     0.000 C 
ATOM     15  C   UNL d   1      56.275  49.708  49.181  0.00  0.00     0.000 C 
ENDBRANCH   2   3
ENDBRANCH   1   2
BRANCH   1  16
ATOM     16  N   UNL d   1      61.197  48.599  51.660  0.00  0.00    -0.204 NA
ATOM     17  C   UNL d   1      61.374  47.830  51.429  0.00  0.00     0.318 C 
ATOM     18  O   UNL d   1      61.579  47.268  51.995  0.00  0.00    -0.262 OA
BRANCH  17  19
ATOM     19  C   UNL d   1      61.346  47.619  50.624  0.00  0.00     0.254 C 
ATOM     20  O   UNL d   1      61.405  48.206  50.046  0.00  0.00    -0.281 OA
BRANCH  19  21
ATOM     21  C   UNL d   1      61.261  46.832  50.412  0.00  0.00     0.064 A 
ATOM     22  C   UNL d   1      60.659  46.315  50.643  0.00  0.00     0.102 A 
ATOM     23  N   UNL d   1      60.790  45.579  50.301  0.00  0.00    -0.244 NA
ATOM     24  C   UNL d   1      61.481  45.633  49.852  0.00  0.00     0.082 A 
ATOM     25  C   UNL d   1      61.772  46.404  49.920  0.00  0.00     0.022 A 
ATOM     26  C   UNL d   1      61.883  45.080  49.391  0.00  0.00     0.019 A 
ATOM     27  C   UNL d   1      62.461  46.620  49.527  0.00  0.00     0.002 A 
ATOM     28  C   UNL d   1      62.866  46.061  49.061  0.00  0.00     0.000 A 
ATOM     29  C   UNL d   1      62.572  45.296  48.998  0.00  0.00     0.002 A 
ENDBRANCH  19  21
ENDBRANCH  17  19
ENDBRANCH   1  16
TORSDOF 5
ENDMDL
