MODEL 1
REMARK VINA RESULT:      -4.4      0.000      0.000
REMARK  5 active torsions:
REMARK  status: ('A' for Active; 'I' for Inactive)
REMARK    1  A    between atoms: C_6  and  C_1 
REMARK    2  A    between atoms: C_8  and  N_3 
REMARK    3  A    between atoms: C_7  and  C_8 
REMARK    4  A    between atoms: C_9  and  C_7 
REMARK    5  A    between atoms: C_10  and  C_9 
ROOT
ATOM      1  C   UNL d   1      59.697  -0.474  29.226  0.00  0.00     0.187 A 
ATOM      2  N   UNL d   1      60.206  -1.051  28.895  0.00  0.00    -0.224 NA
ATOM      3  N   UNL d   1      58.986  -0.850  29.444  0.00  0.00    -0.287 N 
ATOM      4  C   UNL d   1      59.049  -1.652  29.253  0.00  0.00     0.083 A 
ATOM      5  C   UNL d   1      59.797  -1.780  28.915  0.00  0.00     0.099 A 
ATOM      6  C   UNL d   1      58.524  -2.300  29.339  0.00  0.00     0.019 A 
ATOM      7  C   UNL d   1      60.028  -2.541  28.663  0.00  0.00     0.021 A 
ATOM      8  C   UNL d   1      58.750  -3.054  29.090  0.00  0.00     0.002 A 
ATOM      9  C   UNL d   1      59.500  -3.174  28.753  0.00  0.00     0.002 A 
ENDROOT
BRANCH   3  10
ATOM     10  C   UNL d   1      58.428  -0.345  29.781  0.00  0.00     0.082 C 
BRANCH  10  11
ATOM     11  C   UNL d   1      58.063  -0.544  30.487  0.00  0.00     0.019 C 
BRANCH  11  12
ATOM     12  C   UNL d   1      57.398  -0.122  30.739  0.00  0.00     0.002 C 
BRANCH  12  13
ATOM     13  C   UNL d   1      57.139  -0.191  31.517  0.00  0.00     0.000 A 
ATOM     14  C   UNL d   1      57.359   0.375  32.075  0.00  0.00     0.000 A 
ATOM     15  C   UNL d   1      57.098   0.301  32.848  0.00  0.00     0.000 A 
ATOM     16  C   UNL d   1      56.619  -0.333  33.070  0.00  0.00     0.000 A 
ATOM     17  C   UNL d   1      56.401  -0.899  32.508  0.00  0.00     0.000 A 
ATOM     18  C   UNL d   1      56.660  -0.826  31.739  0.00  0.00     0.000 A 
ENDBRANCH  12  13
ENDBRANCH  11  12
ENDBRANCH  10  11
ENDBRANCH   3  10
BRANCH   1  19
ATOM     19  C   UNL d   1      59.938   0.211  29.266  0.00  0.00     0.230 C 
ATOM     20  O   UNL d   1      60.281   0.554  29.932  0.00  0.00    -0.283 OA
ATOM     21  C   UNL d   1      59.864   0.682  28.594  0.00  0.00     0.049 C 
ENDBRANCH   1  19
TORSDOF 5
ENDMDL
MODEL 2
REMARK VINA RESULT:      -3.7      1.056      2.022
REMARK  5 active torsions:
REMARK  status: ('A' for Active; 'I' for Inactive)
REMARK    1  A    between atoms: C_6  and  C_1 
REMARK    2  A    between atoms: C_8  and  N_3 
REMARK    3  A    between atoms: C_7  and  C_8 
REMARK    4  A    between atoms: C_9  and  C_7 
REMARK    5  A    between atoms: C_10  and  C_9 
ROOT
ATOM      1  C   UNL d   1      59.136  -1.615  29.277  0.00  0.00     0.187 A 
ATOM      2  N   UNL d   1      59.933  -1.578  29.023  0.00  0.00    -0.224 NA
ATOM      3  N   UNL d   1      58.955  -0.902  29.667  0.00  0.00    -0.287 N 
ATOM      4  C   UNL d   1      59.629  -0.423  29.659  0.00  0.00     0.083 A 
ATOM      5  C   UNL d   1      60.233  -0.835  29.264  0.00  0.00     0.099 A 
ATOM      6  C   UNL d   1      59.786   0.343  29.959  0.00  0.00     0.019 A 
ATOM      7  C   UNL d   1      60.988  -0.494  29.165  0.00  0.00     0.021 A 
ATOM      8  C   UNL d   1      60.533   0.682  29.862  0.00  0.00     0.002 A 
ATOM      9  C   UNL d   1      61.132   0.264  29.466  0.00  0.00     0.002 A 
ENDROOT
BRANCH   3  10
ATOM     10  C   UNL d   1      58.180  -0.860  29.949  0.00  0.00     0.082 C 
BRANCH  10  11
ATOM     11  C   UNL d   1      58.028  -0.549  30.692  0.00  0.00     0.019 C 
BRANCH  11  12
ATOM     12  C   UNL d   1      57.293  -0.205  30.850  0.00  0.00     0.002 C 
BRANCH  12  13
ATOM     13  C   UNL d   1      56.968  -0.260  31.604  0.00  0.00     0.000 A 
ATOM     14  C   UNL d   1      56.999   0.389  32.113  0.00  0.00     0.000 A 
ATOM     15  C   UNL d   1      56.673   0.328  32.863  0.00  0.00     0.000 A 
ATOM     16  C   UNL d   1      56.317  -0.374  33.110  0.00  0.00     0.000 A 
ATOM     17  C   UNL d   1      56.288  -1.022  32.597  0.00  0.00     0.000 A 
ATOM     18  C   UNL d   1      56.611  -0.963  31.851  0.00  0.00     0.000 A 
ENDBRANCH  12  13
ENDBRANCH  11  12
ENDBRANCH  10  11
ENDBRANCH   3  10
BRANCH   1  19
ATOM     19  C   UNL d   1      58.758  -2.218  29.127  0.00  0.00     0.230 C 
ATOM     20  O   UNL d   1      58.768  -2.908  29.578  0.00  0.00    -0.283 OA
ATOM     21  C   UNL d   1      58.282  -2.214  28.455  0.00  0.00     0.049 C 
ENDBRANCH   1  19
TORSDOF 5
ENDMDL
