MODEL 1
REMARK VINA RESULT:      17.3      0.000      0.000
REMARK  3 active torsions:
REMARK  status: ('A' for Active; 'I' for Inactive)
REMARK    1  A    between atoms: C_6  and  C_1 
REMARK    2  A    between atoms: O_9  and  C_6 
REMARK    3  A    between atoms: C_12  and  O_9 
ROOT
ATOM      1  C   UNL d   1      58.437  49.707  50.191  0.00  0.00     0.089 A 
ATOM      2  C   UNL d   1      58.494  49.707  49.360  0.00  0.00     0.138 A 
ATOM      3  S   UNL d   1      57.748  49.707  49.062  0.00  0.00    -0.066 SA
ATOM      4  C   UNL d   1      57.650  49.707  50.372  0.00  0.00     0.013 A 
ATOM      5  C   UNL d   1      57.226  49.707  49.695  0.00  0.00     0.031 A 
ATOM      6  N   UNL d   1      59.188  49.707  48.903  0.00  0.00    -0.141 N 
ATOM      7  C   UNL d   1      57.276  49.707  51.116  0.00  0.00     0.001 A 
ATOM      8  C   UNL d   1      56.392  49.707  49.717  0.00  0.00     0.006 A 
ATOM      9  C   UNL d   1      56.441  49.707  51.134  0.00  0.00     0.000 A 
ATOM     10  C   UNL d   1      56.033  49.707  50.456  0.00  0.00     0.001 A 
ENDROOT
BRANCH   1  11
ATOM     11  C   UNL d   1      59.097  49.707  50.713  0.00  0.00     0.302 C 
ATOM     12  O   UNL d   1      58.962  49.706  51.508  0.00  0.00    -0.259 OA
BRANCH  11  13
ATOM     13  O   UNL d   1      59.830  49.708  50.396  0.00  0.00    -0.271 OA
BRANCH  13  14
ATOM     14  C   UNL d   1      60.475  49.688  50.890  0.00  0.00     0.126 C 
ATOM     15  C   UNL d   1      61.229  49.607  50.566  0.00  0.00     0.029 C 
ENDBRANCH  13  14
ENDBRANCH  11  13
ENDBRANCH   1  11
TORSDOF 3
ENDMDL
MODEL 2
REMARK VINA RESULT:      17.4      1.191      3.090
REMARK  3 active torsions:
REMARK  status: ('A' for Active; 'I' for Inactive)
REMARK    1  A    between atoms: C_6  and  C_1 
REMARK    2  A    between atoms: O_9  and  C_6 
REMARK    3  A    between atoms: C_12  and  O_9 
ROOT
ATOM      1  C   UNL d   1      59.159  49.705  50.615  0.00  0.00     0.089 A 
ATOM      2  C   UNL d   1      59.562  49.705  49.887  0.00  0.00     0.138 A 
ATOM      3  S   UNL d   1      60.351  49.704  50.042  0.00  0.00    -0.066 SA
ATOM      4  C   UNL d   1      59.721  49.703  51.195  0.00  0.00     0.013 A 
ATOM      5  C   UNL d   1      60.446  49.703  50.857  0.00  0.00     0.031 A 
ATOM      6  N   UNL d   1      59.229  49.707  49.126  0.00  0.00    -0.141 N 
ATOM      7  C   UNL d   1      59.631  49.702  52.023  0.00  0.00     0.001 A 
ATOM      8  C   UNL d   1      61.134  49.701  51.329  0.00  0.00     0.006 A 
ATOM      9  C   UNL d   1      60.323  49.701  52.491  0.00  0.00     0.000 A 
ATOM     10  C   UNL d   1      61.033  49.700  52.144  0.00  0.00     0.001 A 
ENDROOT
BRANCH   1  11
ATOM     11  C   UNL d   1      58.322  49.706  50.695  0.00  0.00     0.302 C 
ATOM     12  O   UNL d   1      58.003  49.706  51.436  0.00  0.00    -0.259 OA
BRANCH  11  13
ATOM     13  O   UNL d   1      57.879  49.708  50.031  0.00  0.00    -0.271 OA
BRANCH  13  14
ATOM     14  C   UNL d   1      57.071  49.644  50.093  0.00  0.00     0.126 C 
ATOM     15  C   UNL d   1      56.607  49.697  49.413  0.00  0.00     0.029 C 
ENDBRANCH  13  14
ENDBRANCH  11  13
ENDBRANCH   1  11
TORSDOF 3
ENDMDL
MODEL 3
REMARK VINA RESULT:      17.7      1.203      1.570
REMARK  3 active torsions:
REMARK  status: ('A' for Active; 'I' for Inactive)
REMARK    1  A    between atoms: C_6  and  C_1 
REMARK    2  A    between atoms: O_9  and  C_6 
REMARK    3  A    between atoms: C_12  and  O_9 
ROOT
ATOM      1  C   UNL d   1      58.291  49.668  50.725  0.00  0.00     0.089 A 
ATOM      2  C   UNL d   1      58.039  49.682  51.517  0.00  0.00     0.138 A 
ATOM      3  S   UNL d   1      57.235  49.694  51.520  0.00  0.00    -0.066 SA
ATOM      4  C   UNL d   1      57.627  49.673  50.266  0.00  0.00     0.013 A 
ATOM      5  C   UNL d   1      56.983  49.689  50.739  0.00  0.00     0.031 A 
ATOM      6  N   UNL d   1      58.515  49.683  52.198  0.00  0.00    -0.141 N 
ATOM      7  C   UNL d   1      57.553  49.664  49.436  0.00  0.00     0.001 A 
ATOM      8  C   UNL d   1      56.216  49.696  50.411  0.00  0.00     0.006 A 
ATOM      9  C   UNL d   1      56.783  49.672  49.113  0.00  0.00     0.000 A 
ATOM     10  C   UNL d   1      56.155  49.687  49.592  0.00  0.00     0.001 A 
ENDROOT
BRANCH   1  11
ATOM     11  C   UNL d   1      59.097  49.653  50.482  0.00  0.00     0.302 C 
ATOM     12  O   UNL d   1      59.265  49.589  49.696  0.00  0.00    -0.259 OA
BRANCH  11  13
ATOM     13  O   UNL d   1      59.662  49.703  51.044  0.00  0.00    -0.271 OA
BRANCH  13  14
ATOM     14  C   UNL d   1      60.443  49.662  50.825  0.00  0.00     0.126 C 
ATOM     15  C   UNL d   1      61.020  49.543  51.403  0.00  0.00     0.029 C 
ENDBRANCH  13  14
ENDBRANCH  11  13
ENDBRANCH   1  11
TORSDOF 3
ENDMDL
