MODEL 1
REMARK VINA RESULT:      26.7      0.000      0.000
REMARK  4 active torsions:
REMARK  status: ('A' for Active; 'I' for Inactive)
REMARK    1  A    between atoms: C_5  and  N_1 
REMARK    2  A    between atoms: C_7  and  C_3 
REMARK    3  A    between atoms: C_8  and  C_4 
REMARK    4  A    between atoms: N_10  and  C_5 
ROOT
ATOM      1  N   UNL d   1      45.842 -16.928  43.101  0.00  0.00    -0.203 N 
ATOM      2  N   UNL d   1      45.757 -16.105  43.128  0.00  0.00    -0.163 NA
ATOM      3  C   UNL d   1      45.744 -15.854  43.894  0.00  0.00     0.103 A 
ATOM      4  C   UNL d   1      45.884 -17.211  43.885  0.00  0.00     0.087 A 
ATOM      5  C   UNL d   1      45.824 -16.551  44.382  0.00  0.00     0.040 A 
ENDROOT
BRANCH   3   6
ATOM      6  C   UNL d   1      45.666 -15.061  44.138  0.00  0.00     0.019 A 
ATOM      7  C   UNL d   1      46.239 -14.707  44.611  0.00  0.00     0.002 A 
ATOM      8  C   UNL d   1      46.143 -13.910  44.846  0.00  0.00     0.000 A 
ATOM      9  C   UNL d   1      45.485 -13.489  44.607  0.00  0.00     0.000 A 
ATOM     10  C   UNL d   1      44.921 -13.860  44.133  0.00  0.00     0.000 A 
ATOM     11  C   UNL d   1      45.417 -12.547  44.911  0.00  0.00     0.000 C 
ATOM     12  C   UNL d   1      45.008 -14.632  43.902  0.00  0.00     0.002 A 
ENDBRANCH   3   6
BRANCH   1  13
ATOM     13  C   UNL d   1      45.880 -17.405  42.407  0.00  0.00     0.222 C 
ATOM     14  S   UNL d   1      45.158 -17.678  42.057  0.00  0.00    -0.037 SA
BRANCH  13  15
ATOM     15  N   UNL d   1      46.620 -17.617  42.056  0.00  0.00    -0.214 NA
ATOM     16  C   UNL d   1      46.636 -18.120  41.393  0.00  0.00     0.122 C 
ENDBRANCH  13  15
ENDBRANCH   1  13
BRANCH   4  17
ATOM     17  C   UNL d   1      45.970 -17.989  44.151  0.00  0.00     0.018 A 
ATOM     18  C   UNL d   1      46.563 -18.192  44.680  0.00  0.00     0.002 A 
ATOM     19  C   UNL d   1      46.647 -18.967  44.944  0.00  0.00     0.007 A 
ATOM     20  C   UNL d   1      46.129 -19.545  44.673  0.00  0.00     0.035 A 
ATOM     21  C   UNL d   1      45.544 -19.360  44.155  0.00  0.00     0.007 A 
ATOM     22 BR   UNL d   1      46.232 -20.330  44.954  0.00  0.00    -0.049 Br
ATOM     23  C   UNL d   1      45.459 -18.582  43.889  0.00  0.00     0.002 A 
ENDBRANCH   4  17
TORSDOF 4
ENDMDL
