MODEL 1
REMARK VINA RESULT:      -8.6      0.000      0.000
REMARK  3 active torsions:
REMARK  status: ('A' for Active; 'I' for Inactive)
REMARK    1  A    between atoms: N_2  and  C_1 
REMARK    2  A    between atoms: C_4  and  C_8 
REMARK    3  A    between atoms: N_14  and  C_5 
ROOT
ATOM      1  C   UNL d   1      53.577  32.958  54.075  0.00  0.00     0.143 A 
ATOM      2  C   UNL d   1      53.829  33.532  54.607  0.00  0.00     0.086 A 
ATOM      3  C   UNL d   1      52.885  33.075  53.632  0.00  0.00     0.027 A 
ATOM      4  C   UNL d   1      52.446  33.776  53.728  0.00  0.00     0.021 A 
ATOM      5  C   UNL d   1      53.395  34.226  54.702  0.00  0.00     0.019 A 
ATOM      6  C   UNL d   1      52.704  34.353  54.266  0.00  0.00     0.003 A 
ENDROOT
BRANCH   4   7
ATOM      7  C   UNL d   1      51.760  33.896  53.291  0.00  0.00     0.103 A 
ATOM      8  N   UNL d   1      51.042  33.584  53.555  0.00  0.00    -0.145 NA
ATOM      9  N   UNL d   1      50.356  33.704  53.118  0.00  0.00    -0.106 NA
ATOM     10  C   UNL d   1      50.384  34.134  52.416  0.00  0.00     0.297 A 
ATOM     11  C   UNL d   1      51.102  34.446  52.151  0.00  0.00     0.066 A 
ATOM     12  O   UNL d   1      49.698  34.254  51.978  0.00  0.00    -0.264 OA
ATOM     13  C   UNL d   1      51.797  34.327  52.590  0.00  0.00     0.024 A 
ATOM     14  C   UNL d   1      52.510  34.638  52.325  0.00  0.00     0.002 C 
ENDBRANCH   4   7
BRANCH   1  15
ATOM     15  N   UNL d   1      54.008  32.258  53.974  0.00  0.00    -0.112 N 
ATOM     16  O   UNL d   1      53.786  31.581  54.398  0.00  0.00    -0.532 OA
ATOM     17  O   UNL d   1      54.650  32.232  53.460  0.00  0.00    -0.532 OA
ENDBRANCH   1  15
BRANCH   2  18
ATOM     18  N   UNL d   1      54.515  33.412  55.044  0.00  0.00    -0.300 N 
ATOM     19  C   UNL d   1      54.480  33.001  55.756  0.00  0.00     0.100 C 
ATOM     20  C   UNL d   1      55.235  33.702  54.769  0.00  0.00     0.100 C 
ENDBRANCH   2  18
TORSDOF 3
ENDMDL
MODEL 2
REMARK VINA RESULT:      -7.8      1.347      3.814
REMARK  3 active torsions:
REMARK  status: ('A' for Active; 'I' for Inactive)
REMARK    1  A    between atoms: N_2  and  C_1 
REMARK    2  A    between atoms: C_4  and  C_8 
REMARK    3  A    between atoms: N_14  and  C_5 
ROOT
ATOM      1  C   UNL d   1      51.628  33.584  53.361  0.00  0.00     0.143 A 
ATOM      2  C   UNL d   1      51.587  34.202  52.820  0.00  0.00     0.086 A 
ATOM      3  C   UNL d   1      52.290  33.504  53.854  0.00  0.00     0.027 A 
ATOM      4  C   UNL d   1      52.915  34.052  53.799  0.00  0.00     0.021 A 
ATOM      5  C   UNL d   1      52.205  34.745  52.766  0.00  0.00     0.019 A 
ATOM      6  C   UNL d   1      52.871  34.674  53.252  0.00  0.00     0.003 A 
ENDROOT
BRANCH   4   7
ATOM      7  C   UNL d   1      53.574  33.976  54.285  0.00  0.00     0.103 A 
ATOM      8  N   UNL d   1      53.628  34.419  54.980  0.00  0.00    -0.145 NA
ATOM      9  N   UNL d   1      54.287  34.342  55.466  0.00  0.00    -0.106 NA
ATOM     10  C   UNL d   1      54.893  33.824  55.261  0.00  0.00     0.297 A 
ATOM     11  C   UNL d   1      54.839  33.380  54.566  0.00  0.00     0.066 A 
ATOM     12  O   UNL d   1      55.552  33.747  55.747  0.00  0.00    -0.264 OA
ATOM     13  C   UNL d   1      54.176  33.455  54.073  0.00  0.00     0.024 A 
ATOM     14  C   UNL d   1      54.125  33.013  53.382  0.00  0.00     0.002 C 
ENDBRANCH   4   7
BRANCH   1  15
ATOM     15  N   UNL d   1      51.010  33.036  53.422  0.00  0.00    -0.112 N 
ATOM     16  O   UNL d   1      51.080  32.303  53.039  0.00  0.00    -0.532 OA
ATOM     17  O   UNL d   1      50.334  33.212  53.856  0.00  0.00    -0.532 OA
ENDBRANCH   1  15
BRANCH   2  18
ATOM     18  N   UNL d   1      50.928  34.278  52.335  0.00  0.00    -0.300 N 
ATOM     19  C   UNL d   1      50.962  34.016  51.556  0.00  0.00     0.100 C 
ATOM     20  C   UNL d   1      50.236  34.617  52.627  0.00  0.00     0.100 C 
ENDBRANCH   2  18
TORSDOF 3
ENDMDL
MODEL 3
REMARK VINA RESULT:      -7.6      1.857      3.543
REMARK  3 active torsions:
REMARK  status: ('A' for Active; 'I' for Inactive)
REMARK    1  A    between atoms: N_2  and  C_1 
REMARK    2  A    between atoms: C_4  and  C_8 
REMARK    3  A    between atoms: N_14  and  C_5 
ROOT
ATOM      1  C   UNL d   1      52.234  33.425  53.213  0.00  0.00     0.143 A 
ATOM      2  C   UNL d   1      52.926  33.850  53.344  0.00  0.00     0.086 A 
ATOM      3  C   UNL d   1      52.250  32.596  53.198  0.00  0.00     0.027 A 
ATOM      4  C   UNL d   1      52.970  32.194  53.316  0.00  0.00     0.021 A 
ATOM      5  C   UNL d   1      53.638  33.452  53.461  0.00  0.00     0.019 A 
ATOM      6  C   UNL d   1      53.666  32.625  53.449  0.00  0.00     0.003 A 
ENDROOT
BRANCH   4   7
ATOM      7  C   UNL d   1      52.990  31.372  53.302  0.00  0.00     0.103 A 
ATOM      8  N   UNL d   1      52.725  30.963  52.635  0.00  0.00    -0.145 NA
ATOM      9  N   UNL d   1      52.745  30.142  52.622  0.00  0.00    -0.106 NA
ATOM     10  C   UNL d   1      53.029  29.724  53.273  0.00  0.00     0.297 A 
ATOM     11  C   UNL d   1      53.294  30.133  53.940  0.00  0.00     0.066 A 
ATOM     12  O   UNL d   1      53.049  28.902  53.259  0.00  0.00    -0.264 OA
ATOM     13  C   UNL d   1      53.275  30.962  53.958  0.00  0.00     0.024 A 
ATOM     14  C   UNL d   1      53.540  31.366  54.623  0.00  0.00     0.002 C 
ENDBRANCH   4   7
BRANCH   1  15
ATOM     15  N   UNL d   1      51.515  33.818  53.094  0.00  0.00    -0.112 N 
ATOM     16  O   UNL d   1      51.003  33.928  53.737  0.00  0.00    -0.532 OA
ATOM     17  O   UNL d   1      51.308  34.096  52.348  0.00  0.00    -0.532 OA
ENDBRANCH   1  15
BRANCH   2  18
ATOM     18  N   UNL d   1      52.906  34.671  53.358  0.00  0.00    -0.300 N 
ATOM     19  C   UNL d   1      52.946  35.094  52.653  0.00  0.00     0.100 C 
ATOM     20  C   UNL d   1      52.846  35.071  54.076  0.00  0.00     0.100 C 
ENDBRANCH   2  18
TORSDOF 3
ENDMDL
MODEL 4
REMARK VINA RESULT:      -7.6      2.273      3.206
REMARK  3 active torsions:
REMARK  status: ('A' for Active; 'I' for Inactive)
REMARK    1  A    between atoms: N_2  and  C_1 
REMARK    2  A    between atoms: C_4  and  C_8 
REMARK    3  A    between atoms: N_14  and  C_5 
ROOT
ATOM      1  C   UNL d   1      54.082  33.257  54.474  0.00  0.00     0.143 A 
ATOM      2  C   UNL d   1      53.448  33.758  54.315  0.00  0.00     0.086 A 
ATOM      3  C   UNL d   1      54.014  32.442  54.336  0.00  0.00     0.027 A 
ATOM      4  C   UNL d   1      53.301  32.131  54.036  0.00  0.00     0.021 A 
ATOM      5  C   UNL d   1      52.744  33.450  54.019  0.00  0.00     0.019 A 
ATOM      6  C   UNL d   1      52.665  32.639  53.877  0.00  0.00     0.003 A 
ENDROOT
BRANCH   4   7
ATOM      7  C   UNL d   1      53.230  31.324  53.898  0.00  0.00     0.103 A 
ATOM      8  N   UNL d   1      53.368  30.786  54.510  0.00  0.00    -0.145 NA
ATOM      9  N   UNL d   1      53.297  29.979  54.371  0.00  0.00    -0.106 NA
ATOM     10  C   UNL d   1      53.087  29.705  53.623  0.00  0.00     0.297 A 
ATOM     11  C   UNL d   1      52.949  30.243  53.011  0.00  0.00     0.066 A 
ATOM     12  O   UNL d   1      53.016  28.897  53.485  0.00  0.00    -0.264 OA
ATOM     13  C   UNL d   1      53.020  31.058  53.147  0.00  0.00     0.024 A 
ATOM     14  C   UNL d   1      52.882  31.591  52.537  0.00  0.00     0.002 C 
ENDBRANCH   4   7
BRANCH   1  15
ATOM     15  N   UNL d   1      54.793  33.559  54.772  0.00  0.00    -0.112 N 
ATOM     16  O   UNL d   1      55.422  33.703  54.251  0.00  0.00    -0.532 OA
ATOM     17  O   UNL d   1      54.878  33.715  55.575  0.00  0.00    -0.532 OA
ENDBRANCH   1  15
BRANCH   2  18
ATOM     18  N   UNL d   1      53.520  34.565  54.454  0.00  0.00    -0.300 N 
ATOM     19  C   UNL d   1      53.734  35.068  53.839  0.00  0.00     0.100 C 
ATOM     20  C   UNL d   1      53.378  34.869  55.206  0.00  0.00     0.100 C 
ENDBRANCH   2  18
TORSDOF 3
ENDMDL
MODEL 5
REMARK VINA RESULT:      -7.5      2.077      2.892
REMARK  3 active torsions:
REMARK  status: ('A' for Active; 'I' for Inactive)
REMARK    1  A    between atoms: N_2  and  C_1 
REMARK    2  A    between atoms: C_4  and  C_8 
REMARK    3  A    between atoms: N_14  and  C_5 
ROOT
ATOM      1  C   UNL d   1      52.949  31.757  53.346  0.00  0.00     0.143 A 
ATOM      2  C   UNL d   1      53.612  31.371  53.643  0.00  0.00     0.086 A 
ATOM      3  C   UNL d   1      52.842  32.568  53.485  0.00  0.00     0.027 A 
ATOM      4  C   UNL d   1      53.408  32.991  53.926  0.00  0.00     0.021 A 
ATOM      5  C   UNL d   1      54.173  31.790  54.079  0.00  0.00     0.019 A 
ATOM      6  C   UNL d   1      54.076  32.598  54.224  0.00  0.00     0.003 A 
ENDROOT
BRANCH   4   7
ATOM      7  C   UNL d   1      53.305  33.795  54.065  0.00  0.00     0.103 A 
ATOM      8  N   UNL d   1      53.034  34.288  53.461  0.00  0.00    -0.145 NA
ATOM      9  N   UNL d   1      52.931  35.091  53.600  0.00  0.00    -0.106 NA
ATOM     10  C   UNL d   1      53.098  35.406  54.343  0.00  0.00     0.297 A 
ATOM     11  C   UNL d   1      53.370  34.913  54.948  0.00  0.00     0.066 A 
ATOM     12  O   UNL d   1      52.995  36.210  54.483  0.00  0.00    -0.264 OA
ATOM     13  C   UNL d   1      53.475  34.102  54.811  0.00  0.00     0.024 A 
ATOM     14  C   UNL d   1      53.744  33.613  55.414  0.00  0.00     0.002 C 
ENDBRANCH   4   7
BRANCH   1  15
ATOM     15  N   UNL d   1      52.382  31.344  52.907  0.00  0.00    -0.112 N 
ATOM     16  O   UNL d   1      51.708  31.050  53.291  0.00  0.00    -0.532 OA
ATOM     17  O   UNL d   1      52.483  31.223  52.100  0.00  0.00    -0.532 OA
ENDBRANCH   1  15
BRANCH   2  18
ATOM     18  N   UNL d   1      53.715  30.568  53.504  0.00  0.00    -0.300 N 
ATOM     19  C   UNL d   1      54.149  30.318  52.852  0.00  0.00     0.100 C 
ATOM     20  C   UNL d   1      53.383  30.014  54.016  0.00  0.00     0.100 C 
ENDBRANCH   2  18
TORSDOF 3
ENDMDL
