MODEL 1
REMARK VINA RESULT:       0.0      0.000      0.000
REMARK  3 active torsions:
REMARK  status: ('A' for Active; 'I' for Inactive)
REMARK    1  A    between atoms: C_2  and  N_1 
REMARK    2  A    between atoms: N_8  and  C_3 
REMARK       I    between atoms: C_9  and  N_8 
REMARK    3  A    between atoms: C_10  and  C_9 
ROOT
ATOM      1  N   UNL d   1     -41.564-123.172 -51.468  0.00  0.00    -0.189 N 
ATOM      2  C   UNL d   1     -41.336-122.462 -51.827  0.00  0.00     0.171 A 
ATOM      3  N   UNL d   1     -41.553-123.764 -52.035  0.00  0.00    -0.162 NA
ATOM      4  C   UNL d   1     -41.187-122.638 -52.619  0.00  0.00     0.060 A 
ATOM      5  C   UNL d   1     -41.317-123.424 -52.751  0.00  0.00     0.105 A 
ATOM      6  C   UNL d   1     -41.229-123.817 -53.478  0.00  0.00     0.023 C 
ENDROOT
BRANCH   1   7
ATOM      7  C   UNL d   1     -41.775-123.296 -50.673  0.00  0.00     0.197 A 
ATOM      8  N   UNL d   1     -41.220-123.286 -50.063  0.00  0.00    -0.221 NA
ATOM      9  C   UNL d   1     -41.631-123.430 -49.351  0.00  0.00     0.090 A 
ATOM     10  C   UNL d   1     -41.394-123.486 -48.578  0.00  0.00     0.020 A 
ATOM     11  C   UNL d   1     -42.427-123.522 -49.552  0.00  0.00     0.050 A 
ATOM     12  C   UNL d   1     -41.941-123.636 -47.979  0.00  0.00     0.002 A 
ATOM     13  C   UNL d   1     -42.723-123.726 -48.179  0.00  0.00     0.001 A 
ATOM     14  C   UNL d   1     -42.974-123.671 -48.961  0.00  0.00     0.008 A 
ATOM     15  S   UNL d   1     -42.503-123.438 -50.364  0.00  0.00    -0.047 SA
ENDBRANCH   1   7
BRANCH   2  16
ATOM     16  N   UNL d   1     -41.268-121.721 -51.465  0.00  0.00    -0.189 NA
ATOM     17  C   UNL d   1     -41.259-121.052 -51.929  0.00  0.00     0.281 C 
ATOM     18  O   UNL d   1     -41.317-121.116 -52.748  0.00  0.00    -0.265 OA
BRANCH  17  19
ATOM     19  C   UNL d   1     -41.192-120.309 -51.571  0.00  0.00     0.058 A 
ATOM     20  C   UNL d   1     -41.124-119.557 -51.214  0.00  0.00     0.005 A 
ATOM     21  C   UNL d   1     -41.126-119.630 -52.037  0.00  0.00     0.005 A 
ENDBRANCH  17  19
ENDBRANCH   2  16
TORSDOF 3
ENDMDL
