MODEL 1
REMARK VINA RESULT:      13.9      0.000      0.000
REMARK  6 active torsions:
REMARK  status: ('A' for Active; 'I' for Inactive)
REMARK    1  A    between atoms: S_12  and  C_5 
REMARK    2  A    between atoms: C_14  and  C_6 
REMARK    3  A    between atoms: C_10  and  C_13 
REMARK    4  A    between atoms: C_21  and  S_12 
REMARK    5  A    between atoms: C_15  and  C_21 
REMARK       I    between atoms: N_16  and  C_15 
REMARK    6  A    between atoms: C_18  and  N_16 
ROOT
ATOM      1  C   UNL d   1     -41.833-121.361 -53.847  0.00  0.00     0.186 A 
ATOM      2  C   UNL d   1     -41.665-122.016 -53.365  0.00  0.00     0.065 A 
ATOM      3  N   UNL d   1     -41.745-120.596 -53.555  0.00  0.00    -0.203 NA
ATOM      4  N   UNL d   1     -41.321-121.142 -52.298  0.00  0.00    -0.220 NA
ATOM      5  C   UNL d   1     -41.411-121.897 -52.597  0.00  0.00     0.116 A 
ATOM      6  C   UNL d   1     -41.487-120.481 -52.774  0.00  0.00     0.165 A 
ATOM      7  O   UNL d   1     -42.089-121.470 -54.621  0.00  0.00    -0.289 OA
ATOM      8  C   UNL d   1     -41.755-122.781 -53.662  0.00  0.00     0.007 A 
ATOM      9  C   UNL d   1     -42.181-122.239 -54.925  0.00  0.00     0.102 A 
ATOM     10  C   UNL d   1     -42.014-122.891 -54.445  0.00  0.00     0.023 A 
ATOM     11  C   UNL d   1     -42.434-122.347 -55.692  0.00  0.00     0.025 A 
ATOM     12  C   UNL d   1     -42.104-123.649 -54.742  0.00  0.00     0.002 A 
ATOM     13  C   UNL d   1     -42.528-123.104 -55.999  0.00  0.00     0.002 A 
ATOM     14  C   UNL d   1     -42.361-123.758 -55.522  0.00  0.00     0.000 A 
ENDROOT
BRANCH   5  15
ATOM     15  S   UNL d   1     -41.243-122.553 -52.114  0.00  0.00    -0.062 SA
BRANCH  15  16
ATOM     16  C   UNL d   1     -41.123-122.450 -51.309  0.00  0.00     0.099 C 
BRANCH  16  17
ATOM     17  C   UNL d   1     -41.661-122.759 -50.772  0.00  0.00     0.286 C 
ATOM     18  N   UNL d   1     -41.662-122.499 -49.985  0.00  0.00    -0.208 NA
ATOM     19  O   UNL d   1     -42.205-123.331 -51.006  0.00  0.00    -0.265 OA
BRANCH  18  20
ATOM     20  C   UNL d   1     -42.200-122.809 -49.449  0.00  0.00     0.085 A 
ATOM     21  C   UNL d   1     -42.009-122.828 -48.656  0.00  0.00     0.025 A 
ATOM     22  C   UNL d   1     -42.540-123.134 -48.117  0.00  0.00     0.066 A 
ATOM     23  C   UNL d   1     -43.274-123.427 -48.374  0.00  0.00     0.006 A 
ATOM     24  C   UNL d   1     -43.460-123.404 -49.173  0.00  0.00     0.002 A 
ATOM     25  C   UNL d   1     -42.923-123.094 -49.719  0.00  0.00     0.019 A 
BRANCH  22  26
ATOM     26  C   UNL d   1     -42.356-123.159 -47.310  0.00  0.00     0.211 C 
ATOM     27  O   UNL d   1     -42.576-123.817 -46.867  0.00  0.00    -0.644 OA
ATOM     28  O   UNL d   1     -41.958-122.534 -46.952  0.00  0.00    -0.644 OA
ENDBRANCH  22  26
ENDBRANCH  18  20
ENDBRANCH  16  17
ENDBRANCH  15  16
ENDBRANCH   5  15
BRANCH   6  29
ATOM     29  C   UNL d   1     -41.398-119.715 -52.479  0.00  0.00     0.036 A 
ATOM     30  C   UNL d   1     -41.216-119.604 -51.684  0.00  0.00     0.005 A 
ATOM     31  C   UNL d   1     -41.126-118.838 -51.383  0.00  0.00     0.030 A 
ATOM     32  C   UNL d   1     -41.218-118.184 -51.881  0.00  0.00     0.140 A 
ATOM     33  C   UNL d   1     -41.402-118.299 -52.689  0.00  0.00     0.030 A 
ATOM     34  F   UNL d   1     -41.129-117.423 -51.586  0.00  0.00    -0.204 F 
ATOM     35  C   UNL d   1     -41.490-119.067 -52.978  0.00  0.00     0.005 A 
ENDBRANCH   6  29
TORSDOF 6
ENDMDL
MODEL 2
REMARK VINA RESULT:      15.7      1.545      3.542
REMARK  6 active torsions:
REMARK  status: ('A' for Active; 'I' for Inactive)
REMARK    1  A    between atoms: S_12  and  C_5 
REMARK    2  A    between atoms: C_14  and  C_6 
REMARK    3  A    between atoms: C_10  and  C_13 
REMARK    4  A    between atoms: C_21  and  S_12 
REMARK    5  A    between atoms: C_15  and  C_21 
REMARK       I    between atoms: N_16  and  C_15 
REMARK    6  A    between atoms: C_18  and  N_16 
ROOT
ATOM      1  C   UNL d   1     -41.799-120.593 -52.936  0.00  0.00     0.186 A 
ATOM      2  C   UNL d   1     -41.678-121.005 -52.225  0.00  0.00     0.065 A 
ATOM      3  N   UNL d   1     -41.998-121.000 -53.624  0.00  0.00    -0.203 NA
ATOM      4  N   UNL d   1     -41.955-122.231 -52.889  0.00  0.00    -0.220 NA
ATOM      5  C   UNL d   1     -41.758-121.818 -52.213  0.00  0.00     0.116 A 
ATOM      6  C   UNL d   1     -42.078-121.826 -53.604  0.00  0.00     0.165 A 
ATOM      7  O   UNL d   1     -41.721-119.774 -52.960  0.00  0.00    -0.289 OA
ATOM      8  C   UNL d   1     -41.478-120.593 -51.539  0.00  0.00     0.007 A 
ATOM      9  C   UNL d   1     -41.520-119.355 -52.270  0.00  0.00     0.102 A 
ATOM     10  C   UNL d   1     -41.399-119.765 -51.563  0.00  0.00     0.023 A 
ATOM     11  C   UNL d   1     -41.443-118.544 -52.294  0.00  0.00     0.025 A 
ATOM     12  C   UNL d   1     -41.201-119.354 -50.882  0.00  0.00     0.002 A 
ATOM     13  C   UNL d   1     -41.244-118.122 -51.616  0.00  0.00     0.002 A 
ATOM     14  C   UNL d   1     -41.123-118.530 -50.907  0.00  0.00     0.000 A 
ENDROOT
BRANCH   5  15
ATOM     15  S   UNL d   1     -41.636-122.232 -51.501  0.00  0.00    -0.062 SA
BRANCH  15  16
ATOM     16  C   UNL d   1     -42.064-122.914 -51.343  0.00  0.00     0.099 C 
BRANCH  16  17
ATOM     17  C   UNL d   1     -42.148-123.174 -50.569  0.00  0.00     0.286 C 
ATOM     18  N   UNL d   1     -42.756-122.876 -50.093  0.00  0.00    -0.208 NA
ATOM     19  O   UNL d   1     -41.631-123.734 -50.257  0.00  0.00    -0.265 OA
BRANCH  18  20
ATOM     20  C   UNL d   1     -42.840-123.137 -49.319  0.00  0.00     0.085 A 
ATOM     21  C   UNL d   1     -42.251-122.979 -48.777  0.00  0.00     0.025 A 
ATOM     22  C   UNL d   1     -42.328-123.235 -48.006  0.00  0.00     0.066 A 
ATOM     23  C   UNL d   1     -43.005-123.657 -47.772  0.00  0.00     0.006 A 
ATOM     24  C   UNL d   1     -43.594-123.812 -48.323  0.00  0.00     0.002 A 
ATOM     25  C   UNL d   1     -43.517-123.553 -49.103  0.00  0.00     0.019 A 
BRANCH  22  26
ATOM     26  C   UNL d   1     -41.736-123.081 -47.448  0.00  0.00     0.211 C 
ATOM     27  O   UNL d   1     -41.123-123.621 -47.353  0.00  0.00    -0.644 OA
ATOM     28  O   UNL d   1     -41.759-122.396 -46.993  0.00  0.00    -0.644 OA
ENDBRANCH  22  26
ENDBRANCH  18  20
ENDBRANCH  16  17
ENDBRANCH  15  16
ENDBRANCH   5  15
BRANCH   6  29
ATOM     29  C   UNL d   1     -42.278-122.235 -54.293  0.00  0.00     0.036 A 
ATOM     30  C   UNL d   1     -42.860-121.933 -54.791  0.00  0.00     0.005 A 
ATOM     31  C   UNL d   1     -43.065-122.340 -55.483  0.00  0.00     0.030 A 
ATOM     32  C   UNL d   1     -42.684-123.049 -55.674  0.00  0.00     0.140 A 
ATOM     33  C   UNL d   1     -42.093-123.355 -55.167  0.00  0.00     0.030 A 
ATOM     34  F   UNL d   1     -42.885-123.455 -56.359  0.00  0.00    -0.204 F 
ATOM     35  C   UNL d   1     -41.897-122.941 -54.480  0.00  0.00     0.005 A 
ENDBRANCH   6  29
TORSDOF 6
ENDMDL
MODEL 3
REMARK VINA RESULT:      16.5      1.181      5.055
REMARK  6 active torsions:
REMARK  status: ('A' for Active; 'I' for Inactive)
REMARK    1  A    between atoms: S_12  and  C_5 
REMARK    2  A    between atoms: C_14  and  C_6 
REMARK    3  A    between atoms: C_10  and  C_13 
REMARK    4  A    between atoms: C_21  and  S_12 
REMARK    5  A    between atoms: C_15  and  C_21 
REMARK       I    between atoms: N_16  and  C_15 
REMARK    6  A    between atoms: C_18  and  N_16 
ROOT
ATOM      1  C   UNL d   1     -42.277-121.630 -50.064  0.00  0.00     0.186 A 
ATOM      2  C   UNL d   1     -42.130-122.339 -50.472  0.00  0.00     0.065 A 
ATOM      3  N   UNL d   1     -42.109-120.906 -50.417  0.00  0.00    -0.203 NA
ATOM      4  N   UNL d   1     -41.649-121.598 -51.585  0.00  0.00    -0.220 NA
ATOM      5  C   UNL d   1     -41.818-122.312 -51.227  0.00  0.00     0.116 A 
ATOM      6  C   UNL d   1     -41.793-120.885 -51.184  0.00  0.00     0.165 A 
ATOM      7  O   UNL d   1     -42.590-121.646 -49.304  0.00  0.00    -0.289 OA
ATOM      8  C   UNL d   1     -42.299-123.063 -50.114  0.00  0.00     0.007 A 
ATOM      9  C   UNL d   1     -42.762-122.374 -48.939  0.00  0.00     0.102 A 
ATOM     10  C   UNL d   1     -42.616-123.079 -49.346  0.00  0.00     0.023 A 
ATOM     11  C   UNL d   1     -43.072-122.390 -48.187  0.00  0.00     0.025 A 
ATOM     12  C   UNL d   1     -42.785-123.797 -48.989  0.00  0.00     0.002 A 
ATOM     13  C   UNL d   1     -43.245-123.105 -47.819  0.00  0.00     0.002 A 
ATOM     14  C   UNL d   1     -43.100-123.813 -48.223  0.00  0.00     0.000 A 
ENDROOT
BRANCH   5  15
ATOM     15  S   UNL d   1     -41.671-123.022 -51.636  0.00  0.00    -0.062 SA
BRANCH  15  16
ATOM     16  C   UNL d   1     -41.154-123.030 -52.273  0.00  0.00     0.099 C 
BRANCH  16  17
ATOM     17  C   UNL d   1     -41.443-123.140 -53.034  0.00  0.00     0.286 C 
ATOM     18  N   UNL d   1     -41.253-122.601 -53.633  0.00  0.00    -0.208 NA
ATOM     19  O   UNL d   1     -41.923-123.785 -53.210  0.00  0.00    -0.265 OA
BRANCH  18  20
ATOM     20  C   UNL d   1     -41.542-122.711 -54.393  0.00  0.00     0.085 A 
ATOM     21  C   UNL d   1     -41.933-122.099 -54.766  0.00  0.00     0.025 A 
ATOM     22  C   UNL d   1     -42.223-122.202 -55.522  0.00  0.00     0.066 A 
ATOM     23  C   UNL d   1     -42.121-122.928 -55.913  0.00  0.00     0.006 A 
ATOM     24  C   UNL d   1     -41.726-123.540 -55.532  0.00  0.00     0.002 A 
ATOM     25  C   UNL d   1     -41.433-123.436 -54.767  0.00  0.00     0.019 A 
BRANCH  22  26
ATOM     26  C   UNL d   1     -42.621-121.588 -55.909  0.00  0.00     0.211 C 
ATOM     27  O   UNL d   1     -43.443-121.563 -55.882  0.00  0.00    -0.644 OA
ATOM     28  O   UNL d   1     -42.202-121.009 -56.317  0.00  0.00    -0.644 OA
ENDBRANCH  22  26
ENDBRANCH  18  20
ENDBRANCH  16  17
ENDBRANCH  15  16
ENDBRANCH   5  15
BRANCH   6  29
ATOM     29  C   UNL d   1     -41.625-120.159 -51.540  0.00  0.00     0.036 A 
ATOM     30  C   UNL d   1     -41.694-120.080 -52.356  0.00  0.00     0.005 A 
ATOM     31  C   UNL d   1     -41.526-119.354 -52.718  0.00  0.00     0.030 A 
ATOM     32  C   UNL d   1     -41.290-118.708 -52.259  0.00  0.00     0.140 A 
ATOM     33  C   UNL d   1     -41.220-118.789 -51.430  0.00  0.00     0.030 A 
ATOM     34  F   UNL d   1     -41.123-117.987 -52.615  0.00  0.00    -0.204 F 
ATOM     35  C   UNL d   1     -41.390-119.518 -51.080  0.00  0.00     0.005 A 
ENDBRANCH   6  29
TORSDOF 6
ENDMDL
