MODEL 1
REMARK VINA RESULT:      43.3      0.000      0.000
REMARK  4 active torsions:
REMARK  status: ('A' for Active; 'I' for Inactive)
REMARK    1  A    between atoms: C_8  and  C_1 
REMARK    2  A    between atoms: C_14  and  C_5 
REMARK    3  A    between atoms: O_16  and  C_8 
REMARK    4  A    between atoms: C_21  and  O_16 
ROOT
ATOM      1  C   UNL d   1      14.157  13.565  -2.348  0.00  0.00     0.106 A 
ATOM      2  C   UNL d   1      14.052  14.203  -2.861  0.00  0.00     0.208 A 
ATOM      3  C   UNL d   1      14.751  14.445  -1.378  0.00  0.00     0.061 A 
ATOM      4  C   UNL d   1      14.646  15.082  -1.892  0.00  0.00     0.101 A 
ATOM      5  C   UNL d   1      14.512  13.687  -1.594  0.00  0.00     0.014 A 
ATOM      6  O   UNL d   1      14.301  14.965  -2.625  0.00  0.00    -0.288 OA
ATOM      7  C   UNL d   1      15.093  14.548  -0.645  0.00  0.00     0.194 A 
ATOM      8  C   UNL d   1      14.883  15.826  -1.676  0.00  0.00     0.002 A 
ATOM      9  C   UNL d   1      15.225  15.940  -0.946  0.00  0.00     0.042 A 
ATOM     10  C   UNL d   1      15.330  15.303  -0.433  0.00  0.00     0.019 A 
ATOM     11  O   UNL d   1      15.197  13.915  -0.135  0.00  0.00    -0.287 OA
ATOM     12  N   UNL d   1      13.699  14.073  -3.608  0.00  0.00    -0.121 N 
ATOM     13  C   UNL d   1      15.581  16.291  -0.289  0.00  0.00     0.009 C 
ATOM     14  C   UNL d   1      15.306  16.759  -1.117  0.00  0.00     0.009 C 
ENDROOT
BRANCH   5  15
ATOM     15  C   UNL d   1      14.616  13.054  -1.084  0.00  0.00     0.000 A 
ATOM     16  C   UNL d   1      15.304  12.608  -1.111  0.00  0.00     0.000 A 
ATOM     17  C   UNL d   1      15.383  11.972  -0.582  0.00  0.00     0.000 A 
ATOM     18  C   UNL d   1      14.807  11.780  -0.045  0.00  0.00     0.000 A 
ATOM     19  C   UNL d   1      14.120  12.222  -0.014  0.00  0.00     0.000 A 
ATOM     20  C   UNL d   1      14.014  12.863  -0.531  0.00  0.00     0.000 A 
ENDBRANCH   5  15
BRANCH   1  21
ATOM     21  C   UNL d   1      13.909  12.795  -2.578  0.00  0.00     0.304 C 
ATOM     22  O   UNL d   1      13.829  12.224  -2.031  0.00  0.00    -0.259 OA
BRANCH  21  23
ATOM     23  O   UNL d   1      13.754  12.645  -3.368  0.00  0.00    -0.271 OA
BRANCH  23  24
ATOM     24  C   UNL d   1      13.490  12.083  -3.532  0.00  0.00     0.126 C 
ATOM     25  C   UNL d   1      13.278  11.904  -4.333  0.00  0.00     0.029 C 
ENDBRANCH  23  24
ENDBRANCH  21  23
ENDBRANCH   1  21
TORSDOF 4
ENDMDL
MODEL 2
REMARK VINA RESULT:      43.8      1.397      3.192
REMARK  4 active torsions:
REMARK  status: ('A' for Active; 'I' for Inactive)
REMARK    1  A    between atoms: C_8  and  C_1 
REMARK    2  A    between atoms: C_14  and  C_5 
REMARK    3  A    between atoms: O_16  and  C_8 
REMARK    4  A    between atoms: C_21  and  O_16 
ROOT
ATOM      1  C   UNL d   1      13.883  14.213  -3.269  0.00  0.00     0.106 A 
ATOM      2  C   UNL d   1      14.148  14.737  -2.689  0.00  0.00     0.208 A 
ATOM      3  C   UNL d   1      14.178  13.106  -2.402  0.00  0.00     0.061 A 
ATOM      4  C   UNL d   1      14.444  13.630  -1.822  0.00  0.00     0.101 A 
ATOM      5  C   UNL d   1      13.898  13.385  -3.124  0.00  0.00     0.014 A 
ATOM      6  O   UNL d   1      14.430  14.436  -1.962  0.00  0.00    -0.288 OA
ATOM      7  C   UNL d   1      14.187  12.300  -2.275  0.00  0.00     0.194 A 
ATOM      8  C   UNL d   1      14.719  13.352  -1.113  0.00  0.00     0.002 A 
ATOM      9  C   UNL d   1      14.732  12.550  -0.977  0.00  0.00     0.042 A 
ATOM     10  C   UNL d   1      14.466  12.026  -1.556  0.00  0.00     0.019 A 
ATOM     11  O   UNL d   1      13.924  11.779  -2.851  0.00  0.00    -0.287 OA
ATOM     12  N   UNL d   1      14.130  15.560  -2.841  0.00  0.00    -0.121 N 
ATOM     13  C   UNL d   1      14.838  11.813  -0.620  0.00  0.00     0.009 C 
ATOM     14  C   UNL d   1      15.052  12.689  -0.211  0.00  0.00     0.009 C 
ENDROOT
BRANCH   5  15
ATOM     15  C   UNL d   1      13.634  12.864  -3.700  0.00  0.00     0.000 A 
ATOM     16  C   UNL d   1      13.953  12.885  -4.455  0.00  0.00     0.000 A 
ATOM     17  C   UNL d   1      13.667  12.345  -5.018  0.00  0.00     0.000 A 
ATOM     18  C   UNL d   1      13.089  11.804  -4.848  0.00  0.00     0.000 A 
ATOM     19  C   UNL d   1      12.769  11.780  -4.095  0.00  0.00     0.000 A 
ATOM     20  C   UNL d   1      13.035  12.307  -3.513  0.00  0.00     0.000 A 
ENDBRANCH   5  15
BRANCH   1  21
ATOM     21  C   UNL d   1      13.598  14.508  -4.003  0.00  0.00     0.304 C 
ATOM     22  O   UNL d   1      12.817  14.527  -4.147  0.00  0.00    -0.259 OA
BRANCH  21  23
ATOM     23  O   UNL d   1      14.135  14.774  -4.562  0.00  0.00    -0.271 OA
BRANCH  23  24
ATOM     24  C   UNL d   1      14.000  15.305  -4.896  0.00  0.00     0.126 C 
ATOM     25  C   UNL d   1      14.565  15.664  -5.416  0.00  0.00     0.029 C 
ENDBRANCH  23  24
ENDBRANCH  21  23
ENDBRANCH   1  21
TORSDOF 4
ENDMDL
