MODEL 1
REMARK VINA RESULT:      47.4      0.000      0.000
REMARK  3 active torsions:
REMARK  status: ('A' for Active; 'I' for Inactive)
REMARK    1  A    between atoms: N_5  and  C_1 
REMARK    2  A    between atoms: C_9  and  C_2 
REMARK       I    between atoms: C_8  and  N_5 
REMARK    3  A    between atoms: C_10  and  C_8 
ROOT
ATOM      1  C   UNL d   1     -50.979  24.897  33.324  0.00  0.00     0.155 A 
ATOM      2  C   UNL d   1     -50.668  25.661  33.340  0.00  0.00     0.080 A 
ATOM      3  N   UNL d   1     -50.467  24.244  33.323  0.00  0.00    -0.289 N 
ATOM      4  C   UNL d   1     -49.845  25.771  33.356  0.00  0.00     0.200 A 
ATOM      5  C   UNL d   1     -49.340  25.120  33.355  0.00  0.00     0.055 A 
ATOM      6  C   UNL d   1     -49.652  24.356  33.338  0.00  0.00     0.069 A 
ATOM      7  O   UNL d   1     -49.532  26.539  33.372  0.00  0.00    -0.286 OA
ATOM      8  C   UNL d   1     -50.778  23.480  33.306  0.00  0.00     0.101 C 
ATOM      9  C   UNL d   1     -48.525  25.234  33.370  0.00  0.00     0.005 A 
ATOM     10  C   UNL d   1     -49.155  23.709  33.337  0.00  0.00     0.018 A 
ATOM     11  C   UNL d   1     -48.021  24.582  33.369  0.00  0.00     0.000 A 
ATOM     12  C   UNL d   1     -48.332  23.818  33.353  0.00  0.00     0.002 A 
ENDROOT
BRANCH   1  13
ATOM     13  N   UNL d   1     -51.808  24.781  33.308  0.00  0.00    -0.190 NA
ATOM     14  C   UNL d   1     -52.144  24.045  33.490  0.00  0.00     0.286 C 
ATOM     15  O   UNL d   1     -51.646  23.423  33.689  0.00  0.00    -0.265 OA
BRANCH  14  16
ATOM     16  C   UNL d   1     -52.960  23.932  33.475  0.00  0.00     0.087 A 
ATOM     17  S   UNL d   1     -53.277  23.189  33.639  0.00  0.00    -0.082 SA
ATOM     18  C   UNL d   1     -54.099  23.249  33.581  0.00  0.00     0.036 A 
ATOM     19  C   UNL d   1     -54.292  24.026  33.381  0.00  0.00     0.008 A 
ATOM     20  C   UNL d   1     -53.584  24.454  33.314  0.00  0.00     0.012 A 
ENDBRANCH  14  16
ENDBRANCH   1  13
BRANCH   2  21
ATOM     21  C   UNL d   1     -51.172  26.312  33.341  0.00  0.00     0.035 A 
ATOM     22  S   UNL d   1     -51.997  26.284  33.363  0.00  0.00    -0.086 SA
ATOM     23  C   UNL d   1     -52.274  27.063  33.356  0.00  0.00     0.035 A 
ATOM     24  C   UNL d   1     -51.621  27.575  33.329  0.00  0.00     0.007 A 
ATOM     25  C   UNL d   1     -50.946  27.101  33.321  0.00  0.00     0.007 A 
ENDBRANCH   2  21
TORSDOF 3
ENDMDL
