MODEL 1
REMARK VINA RESULT:      -7.1      0.000      0.000
REMARK  8 active torsions:
REMARK  status: ('A' for Active; 'I' for Inactive)
REMARK    1  A    between atoms: C_9  and  N_1 
REMARK    2  A    between atoms: S_10  and  C_6 
REMARK    3  A    between atoms: C_19  and  S_10 
REMARK    4  A    between atoms: C_12  and  C_19 
REMARK       I    between atoms: N_14  and  C_12 
REMARK    5  A    between atoms: C_13  and  C_20 
REMARK    6  A    between atoms: O_24  and  C_13 
REMARK    7  A    between atoms: C_20  and  N_14 
REMARK    8  A    between atoms: C_26  and  O_24 
ROOT
ATOM      1  N   UNL d   1      52.677  34.208  53.266  0.00  0.00    -0.212 N 
ATOM      2  C   UNL d   1      51.936  33.855  53.276  0.00  0.00     0.169 A 
ATOM      3  N   UNL d   1      52.691  34.773  52.685  0.00  0.00    -0.162 NA
ATOM      4  C   UNL d   1      51.481  34.211  52.686  0.00  0.00     0.081 A 
ATOM      5  C   UNL d   1      51.947  34.780  52.319  0.00  0.00     0.126 A 
ATOM      6  C   UNL d   1      50.706  33.970  52.562  0.00  0.00     0.117 A 
ATOM      7  N   UNL d   1      51.614  33.258  53.741  0.00  0.00    -0.205 NA
ATOM      8  N   UNL d   1      50.380  33.371  53.028  0.00  0.00    -0.217 NA
ATOM      9  C   UNL d   1      50.834  33.015  53.617  0.00  0.00     0.201 A 
ENDROOT
BRANCH   6  10
ATOM     10  S   UNL d   1      50.251  34.326  51.973  0.00  0.00    -0.062 SA
BRANCH  10  11
ATOM     11  C   UNL d   1      49.482  34.548  52.128  0.00  0.00     0.099 C 
BRANCH  11  12
ATOM     12  C   UNL d   1      48.981  34.762  51.509  0.00  0.00     0.286 C 
ATOM     13  N   UNL d   1      48.340  35.263  51.651  0.00  0.00    -0.200 NA
ATOM     14  O   UNL d   1      49.121  34.477  50.747  0.00  0.00    -0.265 OA
BRANCH  13  15
ATOM     15  C   UNL d   1      48.200  35.548  52.413  0.00  0.00     0.171 C 
BRANCH  15  16
ATOM     16  C   UNL d   1      47.549  36.035  52.558  0.00  0.00     0.320 C 
ATOM     17  O   UNL d   1      47.288  36.560  51.976  0.00  0.00    -0.257 OA
BRANCH  16  18
ATOM     18  O   UNL d   1      47.159  35.997  53.284  0.00  0.00    -0.270 OA
BRANCH  18  19
ATOM     19  C   UNL d   1      46.791  36.669  53.590  0.00  0.00     0.126 C 
ATOM     20  C   UNL d   1      46.444  36.644  54.338  0.00  0.00     0.029 C 
ENDBRANCH  18  19
ENDBRANCH  16  18
ENDBRANCH  15  16
ENDBRANCH  13  15
ENDBRANCH  11  12
ENDBRANCH  10  11
ENDBRANCH   6  10
BRANCH   1  21
ATOM     21  C   UNL d   1      53.261  33.964  53.802  0.00  0.00     0.085 A 
ATOM     22  C   UNL d   1      53.339  34.345  54.526  0.00  0.00     0.020 A 
ATOM     23  C   UNL d   1      53.914  34.106  55.056  0.00  0.00     0.013 A 
ATOM     24  C   UNL d   1      54.421  33.480  54.869  0.00  0.00     0.058 A 
ATOM     25  C   UNL d   1      54.333  33.099  54.131  0.00  0.00     0.013 A 
ATOM     26 CL   UNL d   1      55.006  33.234  55.405  0.00  0.00    -0.082 Cl
ATOM     27  C   UNL d   1      53.758  33.344  53.608  0.00  0.00     0.020 A 
ENDBRANCH   1  21
TORSDOF 8
ENDMDL
MODEL 2
REMARK VINA RESULT:      -5.6      3.014      6.145
REMARK  8 active torsions:
REMARK  status: ('A' for Active; 'I' for Inactive)
REMARK    1  A    between atoms: C_9  and  N_1 
REMARK    2  A    between atoms: S_10  and  C_6 
REMARK    3  A    between atoms: C_19  and  S_10 
REMARK    4  A    between atoms: C_12  and  C_19 
REMARK       I    between atoms: N_14  and  C_12 
REMARK    5  A    between atoms: C_13  and  C_20 
REMARK    6  A    between atoms: O_24  and  C_13 
REMARK    7  A    between atoms: C_20  and  N_14 
REMARK    8  A    between atoms: C_26  and  O_24 
ROOT
ATOM      1  N   UNL d   1      47.813  35.656  52.714  0.00  0.00    -0.212 N 
ATOM      2  C   UNL d   1      48.378  35.212  52.316  0.00  0.00     0.169 A 
ATOM      3  N   UNL d   1      48.116  35.887  53.429  0.00  0.00    -0.162 NA
ATOM      4  C   UNL d   1      49.045  35.167  52.799  0.00  0.00     0.081 A 
ATOM      5  C   UNL d   1      48.885  35.585  53.489  0.00  0.00     0.126 A 
ATOM      6  C   UNL d   1      49.709  34.753  52.547  0.00  0.00     0.117 A 
ATOM      7  N   UNL d   1      48.374  34.843  51.581  0.00  0.00    -0.205 NA
ATOM      8  N   UNL d   1      49.708  34.382  51.810  0.00  0.00    -0.217 NA
ATOM      9  C   UNL d   1      49.041  34.427  51.327  0.00  0.00     0.201 A 
ENDROOT
BRANCH   6  10
ATOM     10  S   UNL d   1      50.377  34.709  53.030  0.00  0.00    -0.062 SA
BRANCH  10  11
ATOM     11  C   UNL d   1      50.996  34.220  52.825  0.00  0.00     0.099 C 
BRANCH  11  12
ATOM     12  C   UNL d   1      51.745  34.344  53.150  0.00  0.00     0.286 C 
ATOM     13  N   UNL d   1      52.283  33.720  53.195  0.00  0.00    -0.200 NA
ATOM     14  O   UNL d   1      51.955  35.092  53.429  0.00  0.00    -0.265 OA
BRANCH  13  15
ATOM     15  C   UNL d   1      52.073  32.972  52.916  0.00  0.00     0.171 C 
BRANCH  15  16
ATOM     16  C   UNL d   1      52.618  32.352  52.947  0.00  0.00     0.320 C 
ATOM     17  O   UNL d   1      53.427  32.514  52.967  0.00  0.00    -0.257 OA
BRANCH  16  18
ATOM     18  O   UNL d   1      52.353  31.570  52.958  0.00  0.00    -0.270 OA
BRANCH  18  19
ATOM     19  C   UNL d   1      52.898  30.951  52.938  0.00  0.00     0.126 C 
ATOM     20  C   UNL d   1      52.642  30.174  53.044  0.00  0.00     0.029 C 
ENDBRANCH  18  19
ENDBRANCH  16  18
ENDBRANCH  15  16
ENDBRANCH  13  15
ENDBRANCH  11  12
ENDBRANCH  10  11
ENDBRANCH   6  10
BRANCH   1  21
ATOM     21  C   UNL d   1      47.074  35.799  52.363  0.00  0.00     0.085 A 
ATOM     22  C   UNL d   1      46.984  36.423  51.835  0.00  0.00     0.020 A 
ATOM     23  C   UNL d   1      46.257  36.565  51.489  0.00  0.00     0.013 A 
ATOM     24  C   UNL d   1      45.608  36.084  51.666  0.00  0.00     0.058 A 
ATOM     25  C   UNL d   1      45.711  35.453  52.203  0.00  0.00     0.013 A 
ATOM     26 CL   UNL d   1      44.868  36.226  51.316  0.00  0.00    -0.082 Cl
ATOM     27  C   UNL d   1      46.439  35.318  52.544  0.00  0.00     0.020 A 
ENDBRANCH   1  21
TORSDOF 8
ENDMDL
MODEL 3
REMARK VINA RESULT:      -5.3      2.904      6.086
REMARK  8 active torsions:
REMARK  status: ('A' for Active; 'I' for Inactive)
REMARK    1  A    between atoms: C_9  and  N_1 
REMARK    2  A    between atoms: S_10  and  C_6 
REMARK    3  A    between atoms: C_19  and  S_10 
REMARK    4  A    between atoms: C_12  and  C_19 
REMARK       I    between atoms: N_14  and  C_12 
REMARK    5  A    between atoms: C_13  and  C_20 
REMARK    6  A    between atoms: O_24  and  C_13 
REMARK    7  A    between atoms: C_20  and  N_14 
REMARK    8  A    between atoms: C_26  and  O_24 
ROOT
ATOM      1  N   UNL d   1      47.562  35.259  51.753  0.00  0.00    -0.212 N 
ATOM      2  C   UNL d   1      48.133  35.304  52.341  0.00  0.00     0.169 A 
ATOM      3  N   UNL d   1      47.864  34.846  51.125  0.00  0.00    -0.162 NA
ATOM      4  C   UNL d   1      48.804  34.908  52.069  0.00  0.00     0.081 A 
ATOM      5  C   UNL d   1      48.639  34.624  51.315  0.00  0.00     0.126 A 
ATOM      6  C   UNL d   1      49.474  34.859  52.541  0.00  0.00     0.117 A 
ATOM      7  N   UNL d   1      48.133  35.651  53.087  0.00  0.00    -0.205 NA
ATOM      8  N   UNL d   1      49.477  35.206  53.290  0.00  0.00    -0.217 NA
ATOM      9  C   UNL d   1      48.806  35.602  53.563  0.00  0.00     0.201 A 
ENDROOT
BRANCH   6  10
ATOM     10  S   UNL d   1      50.145  34.464  52.268  0.00  0.00    -0.062 SA
BRANCH  10  11
ATOM     11  C   UNL d   1      50.831  34.473  52.709  0.00  0.00     0.099 C 
BRANCH  11  12
ATOM     12  C   UNL d   1      51.544  34.238  52.367  0.00  0.00     0.286 C 
ATOM     13  N   UNL d   1      52.218  34.152  52.835  0.00  0.00    -0.200 NA
ATOM     14  O   UNL d   1      51.584  34.091  51.555  0.00  0.00    -0.265 OA
BRANCH  13  15
ATOM     15  C   UNL d   1      52.179  34.299  53.647  0.00  0.00     0.171 C 
BRANCH  15  16
ATOM     16  C   UNL d   1      52.872  34.343  54.092  0.00  0.00     0.320 C 
ATOM     17  O   UNL d   1      53.233  35.075  54.223  0.00  0.00    -0.257 OA
BRANCH  16  18
ATOM     18  O   UNL d   1      53.205  33.657  54.407  0.00  0.00    -0.270 OA
BRANCH  18  19
ATOM     19  C   UNL d   1      53.859  33.708  54.907  0.00  0.00     0.126 C 
ATOM     20  C   UNL d   1      54.230  33.021  55.172  0.00  0.00     0.029 C 
ENDBRANCH  18  19
ENDBRANCH  16  18
ENDBRANCH  15  16
ENDBRANCH  13  15
ENDBRANCH  11  12
ENDBRANCH  10  11
ENDBRANCH   6  10
BRANCH   1  21
ATOM     21  C   UNL d   1      46.818  35.610  51.868  0.00  0.00     0.085 A 
ATOM     22  C   UNL d   1      46.669  36.361  51.567  0.00  0.00     0.020 A 
ATOM     23  C   UNL d   1      45.937  36.709  51.679  0.00  0.00     0.013 A 
ATOM     24  C   UNL d   1      45.343  36.310  52.094  0.00  0.00     0.058 A 
ATOM     25  C   UNL d   1      45.506  35.548  52.395  0.00  0.00     0.013 A 
ATOM     26 CL   UNL d   1      44.600  36.661  52.209  0.00  0.00    -0.082 Cl
ATOM     27  C   UNL d   1      46.238  35.208  52.279  0.00  0.00     0.020 A 
ENDBRANCH   1  21
TORSDOF 8
ENDMDL
MODEL 4
REMARK VINA RESULT:      -5.3      3.321      5.959
REMARK  8 active torsions:
REMARK  status: ('A' for Active; 'I' for Inactive)
REMARK    1  A    between atoms: C_9  and  N_1 
REMARK    2  A    between atoms: S_10  and  C_6 
REMARK    3  A    between atoms: C_19  and  S_10 
REMARK    4  A    between atoms: C_12  and  C_19 
REMARK       I    between atoms: N_14  and  C_12 
REMARK    5  A    between atoms: C_13  and  C_20 
REMARK    6  A    between atoms: O_24  and  C_13 
REMARK    7  A    between atoms: C_20  and  N_14 
REMARK    8  A    between atoms: C_26  and  O_24 
ROOT
ATOM      1  N   UNL d   1      50.279  34.461  51.802  0.00  0.00    -0.212 N 
ATOM      2  C   UNL d   1      50.496  34.088  52.501  0.00  0.00     0.169 A 
ATOM      3  N   UNL d   1      50.931  34.526  51.326  0.00  0.00    -0.162 NA
ATOM      4  C   UNL d   1      51.302  33.919  52.454  0.00  0.00     0.081 A 
ATOM      5  C   UNL d   1      51.574  34.189  51.727  0.00  0.00     0.126 A 
ATOM      6  C   UNL d   1      51.681  33.542  53.078  0.00  0.00     0.117 A 
ATOM      7  N   UNL d   1      50.068  33.880  53.172  0.00  0.00    -0.205 NA
ATOM      8  N   UNL d   1      51.254  33.332  53.753  0.00  0.00    -0.217 NA
ATOM      9  C   UNL d   1      50.448  33.501  53.800  0.00  0.00     0.201 A 
ENDROOT
BRANCH   6  10
ATOM     10  S   UNL d   1      52.487  33.373  53.031  0.00  0.00    -0.062 SA
BRANCH  10  11
ATOM     11  C   UNL d   1      52.787  32.712  53.402  0.00  0.00     0.099 C 
BRANCH  11  12
ATOM     12  C   UNL d   1      53.596  32.551  53.368  0.00  0.00     0.286 C 
ATOM     13  N   UNL d   1      53.867  31.775  53.451  0.00  0.00    -0.200 NA
ATOM     14  O   UNL d   1      54.135  33.166  53.251  0.00  0.00    -0.265 OA
BRANCH  13  15
ATOM     15  C   UNL d   1      53.328  31.161  53.568  0.00  0.00     0.171 C 
BRANCH  15  16
ATOM     16  C   UNL d   1      53.600  30.388  53.672  0.00  0.00     0.320 C 
ATOM     17  O   UNL d   1      54.097  30.046  53.109  0.00  0.00    -0.257 OA
BRANCH  16  18
ATOM     18  O   UNL d   1      53.375  29.959  54.340  0.00  0.00    -0.270 OA
BRANCH  18  19
ATOM     19  C   UNL d   1      53.335  29.135  54.306  0.00  0.00     0.126 C 
ATOM     20  C   UNL d   1      53.317  28.694  55.003  0.00  0.00     0.029 C 
ENDBRANCH  18  19
ENDBRANCH  16  18
ENDBRANCH  15  16
ENDBRANCH  13  15
ENDBRANCH  11  12
ENDBRANCH  10  11
ENDBRANCH   6  10
BRANCH   1  21
ATOM     21  C   UNL d   1      49.493  34.700  51.685  0.00  0.00     0.085 A 
ATOM     22  C   UNL d   1      49.062  34.401  51.052  0.00  0.00     0.020 A 
ATOM     23  C   UNL d   1      48.288  34.635  50.935  0.00  0.00     0.013 A 
ATOM     24  C   UNL d   1      47.932  35.175  51.451  0.00  0.00     0.058 A 
ATOM     25  C   UNL d   1      48.378  35.473  52.091  0.00  0.00     0.013 A 
ATOM     26 CL   UNL d   1      47.145  35.415  51.335  0.00  0.00    -0.082 Cl
ATOM     27  C   UNL d   1      49.149  35.234  52.201  0.00  0.00     0.020 A 
ENDBRANCH   1  21
TORSDOF 8
ENDMDL
MODEL 5
REMARK VINA RESULT:      -5.3      2.714      3.507
REMARK  8 active torsions:
REMARK  status: ('A' for Active; 'I' for Inactive)
REMARK    1  A    between atoms: C_9  and  N_1 
REMARK    2  A    between atoms: S_10  and  C_6 
REMARK    3  A    between atoms: C_19  and  S_10 
REMARK    4  A    between atoms: C_12  and  C_19 
REMARK       I    between atoms: N_14  and  C_12 
REMARK    5  A    between atoms: C_13  and  C_20 
REMARK    6  A    between atoms: O_24  and  C_13 
REMARK    7  A    between atoms: C_20  and  N_14 
REMARK    8  A    between atoms: C_26  and  O_24 
ROOT
ATOM      1  N   UNL d   1      53.062  30.784  53.474  0.00  0.00    -0.212 N 
ATOM      2  C   UNL d   1      53.254  31.501  53.825  0.00  0.00     0.169 A 
ATOM      3  N   UNL d   1      52.693  30.928  52.767  0.00  0.00    -0.162 NA
ATOM      4  C   UNL d   1      52.998  32.102  53.322  0.00  0.00     0.081 A 
ATOM      5  C   UNL d   1      52.650  31.749  52.665  0.00  0.00     0.126 A 
ATOM      6  C   UNL d   1      53.114  32.889  53.526  0.00  0.00     0.117 A 
ATOM      7  N   UNL d   1      53.627  31.687  54.534  0.00  0.00    -0.205 NA
ATOM      8  N   UNL d   1      53.488  33.079  54.237  0.00  0.00    -0.217 NA
ATOM      9  C   UNL d   1      53.745  32.478  54.741  0.00  0.00     0.201 A 
ENDROOT
BRANCH   6  10
ATOM     10  S   UNL d   1      52.858  33.490  53.023  0.00  0.00    -0.062 SA
BRANCH  10  11
ATOM     11  C   UNL d   1      52.226  33.959  53.236  0.00  0.00     0.099 C 
BRANCH  11  12
ATOM     12  C   UNL d   1      52.099  34.679  52.854  0.00  0.00     0.286 C 
ATOM     13  N   UNL d   1      51.329  34.946  52.720  0.00  0.00    -0.200 NA
ATOM     14  O   UNL d   1      52.742  35.134  52.605  0.00  0.00    -0.265 OA
BRANCH  13  15
ATOM     15  C   UNL d   1      50.686  34.491  52.969  0.00  0.00     0.171 C 
BRANCH  15  16
ATOM     16  C   UNL d   1      49.920  34.701  52.744  0.00  0.00     0.320 C 
ATOM     17  O   UNL d   1      49.609  34.425  52.030  0.00  0.00    -0.257 OA
BRANCH  16  18
ATOM     18  O   UNL d   1      49.465  35.188  53.231  0.00  0.00    -0.270 OA
BRANCH  18  19
ATOM     19  C   UNL d   1      48.703  35.406  53.000  0.00  0.00     0.126 C 
ATOM     20  C   UNL d   1      48.267  35.931  53.463  0.00  0.00     0.029 C 
ENDBRANCH  18  19
ENDBRANCH  16  18
ENDBRANCH  15  16
ENDBRANCH  13  15
ENDBRANCH  11  12
ENDBRANCH  10  11
ENDBRANCH   6  10
BRANCH   1  21
ATOM     21  C   UNL d   1      53.252  30.070  53.854  0.00  0.00     0.085 A 
ATOM     22  C   UNL d   1      52.762  29.777  54.445  0.00  0.00     0.020 A 
ATOM     23  C   UNL d   1      52.948  29.075  54.821  0.00  0.00     0.013 A 
ATOM     24  C   UNL d   1      53.629  28.655  54.611  0.00  0.00     0.058 A 
ATOM     25  C   UNL d   1      54.119  28.962  54.009  0.00  0.00     0.013 A 
ATOM     26 CL   UNL d   1      53.820  27.942  54.990  0.00  0.00    -0.082 Cl
ATOM     27  C   UNL d   1      53.928  29.663  53.639  0.00  0.00     0.020 A 
ENDBRANCH   1  21
TORSDOF 8
ENDMDL
MODEL 6
REMARK VINA RESULT:      -4.7     10.303     11.686
REMARK  8 active torsions:
REMARK  status: ('A' for Active; 'I' for Inactive)
REMARK    1  A    between atoms: C_9  and  N_1 
REMARK    2  A    between atoms: S_10  and  C_6 
REMARK    3  A    between atoms: C_19  and  S_10 
REMARK    4  A    between atoms: C_12  and  C_19 
REMARK       I    between atoms: N_14  and  C_12 
REMARK    5  A    between atoms: C_13  and  C_20 
REMARK    6  A    between atoms: O_24  and  C_13 
REMARK    7  A    between atoms: C_20  and  N_14 
REMARK    8  A    between atoms: C_26  and  O_24 
ROOT
ATOM      1  N   UNL d   1      44.814  28.698  57.973  0.00  0.00    -0.212 N 
ATOM      2  C   UNL d   1      44.914  27.890  58.081  0.00  0.00     0.169 A 
ATOM      3  N   UNL d   1      44.690  28.845  57.186  0.00  0.00    -0.162 NA
ATOM      4  C   UNL d   1      44.850  27.530  57.341  0.00  0.00     0.081 A 
ATOM      5  C   UNL d   1      44.711  28.120  56.785  0.00  0.00     0.126 A 
ATOM      6  C   UNL d   1      44.926  26.715  57.272  0.00  0.00     0.117 A 
ATOM      7  N   UNL d   1      45.055  27.434  58.751  0.00  0.00    -0.205 NA
ATOM      8  N   UNL d   1      45.067  26.255  57.942  0.00  0.00    -0.217 NA
ATOM      9  C   UNL d   1      45.131  26.615  58.682  0.00  0.00     0.201 A 
ENDROOT
BRANCH   6  10
ATOM     10  S   UNL d   1      44.861  26.355  56.532  0.00  0.00    -0.062 SA
BRANCH  10  11
ATOM     11  C   UNL d   1      44.809  25.543  56.476  0.00  0.00     0.099 C 
BRANCH  11  12
ATOM     12  C   UNL d   1      44.652  25.188  55.748  0.00  0.00     0.286 C 
ATOM     13  N   UNL d   1      44.761  24.375  55.653  0.00  0.00    -0.200 NA
ATOM     14  O   UNL d   1      44.386  25.646  55.115  0.00  0.00    -0.265 OA
BRANCH  13  15
ATOM     15  C   UNL d   1      45.027  23.918  56.286  0.00  0.00     0.171 C 
BRANCH  15  16
ATOM     16  C   UNL d   1      45.153  23.108  56.186  0.00  0.00     0.320 C 
ATOM     17  O   UNL d   1      45.449  22.822  55.470  0.00  0.00    -0.257 OA
BRANCH  16  18
ATOM     18  O   UNL d   1      44.985  22.584  56.801  0.00  0.00    -0.270 OA
BRANCH  18  19
ATOM     19  C   UNL d   1      45.513  21.976  56.981  0.00  0.00     0.126 C 
ATOM     20  C   UNL d   1      45.604  21.728  57.762  0.00  0.00     0.029 C 
ENDBRANCH  18  19
ENDBRANCH  16  18
ENDBRANCH  15  16
ENDBRANCH  13  15
ENDBRANCH  11  12
ENDBRANCH  10  11
ENDBRANCH   6  10
BRANCH   1  21
ATOM     21  C   UNL d   1      44.850  29.211  58.625  0.00  0.00     0.085 A 
ATOM     22  C   UNL d   1      45.424  29.799  58.652  0.00  0.00     0.020 A 
ATOM     23  C   UNL d   1      45.462  30.306  59.293  0.00  0.00     0.013 A 
ATOM     24  C   UNL d   1      44.924  30.232  59.917  0.00  0.00     0.058 A 
ATOM     25  C   UNL d   1      44.345  29.632  59.878  0.00  0.00     0.013 A 
ATOM     26 CL   UNL d   1      44.959  30.745  60.569  0.00  0.00    -0.082 Cl
ATOM     27  C   UNL d   1      44.314  29.130  59.237  0.00  0.00     0.020 A 
ENDBRANCH   1  21
TORSDOF 8
ENDMDL
MODEL 7
REMARK VINA RESULT:      -4.6     10.198     11.522
REMARK  8 active torsions:
REMARK  status: ('A' for Active; 'I' for Inactive)
REMARK    1  A    between atoms: C_9  and  N_1 
REMARK    2  A    between atoms: S_10  and  C_6 
REMARK    3  A    between atoms: C_19  and  S_10 
REMARK    4  A    between atoms: C_12  and  C_19 
REMARK       I    between atoms: N_14  and  C_12 
REMARK    5  A    between atoms: C_13  and  C_20 
REMARK    6  A    between atoms: O_24  and  C_13 
REMARK    7  A    between atoms: C_20  and  N_14 
REMARK    8  A    between atoms: C_26  and  O_24 
ROOT
ATOM      1  N   UNL d   1      44.640  24.681  56.804  0.00  0.00    -0.212 N 
ATOM      2  C   UNL d   1      44.878  25.467  56.823  0.00  0.00     0.169 A 
ATOM      3  N   UNL d   1      44.314  24.488  57.519  0.00  0.00    -0.162 NA
ATOM      4  C   UNL d   1      44.694  25.765  57.570  0.00  0.00     0.081 A 
ATOM      5  C   UNL d   1      44.344  25.160  58.003  0.00  0.00     0.126 A 
ATOM      6  C   UNL d   1      44.868  26.546  57.756  0.00  0.00     0.117 A 
ATOM      7  N   UNL d   1      45.236  25.951  56.263  0.00  0.00    -0.205 NA
ATOM      8  N   UNL d   1      45.227  27.034  57.196  0.00  0.00    -0.217 NA
ATOM      9  C   UNL d   1      45.412  26.736  56.449  0.00  0.00     0.201 A 
ENDROOT
BRANCH   6  10
ATOM     10  S   UNL d   1      44.683  26.844  58.503  0.00  0.00    -0.062 SA
BRANCH  10  11
ATOM     11  C   UNL d   1      44.807  27.633  58.670  0.00  0.00     0.099 C 
BRANCH  11  12
ATOM     12  C   UNL d   1      44.604  27.935  59.411  0.00  0.00     0.286 C 
ATOM     13  N   UNL d   1      44.638  28.748  59.548  0.00  0.00    -0.200 NA
ATOM     14  O   UNL d   1      44.367  27.424  60.014  0.00  0.00    -0.265 OA
BRANCH  13  15
ATOM     15  C   UNL d   1      44.876  29.259  58.945  0.00  0.00     0.171 C 
BRANCH  15  16
ATOM     16  C   UNL d   1      44.867  30.076  59.068  0.00  0.00     0.320 C 
ATOM     17  O   UNL d   1      45.169  30.390  59.768  0.00  0.00    -0.257 OA
BRANCH  16  18
ATOM     18  O   UNL d   1      44.556  30.576  58.491  0.00  0.00    -0.270 OA
BRANCH  18  19
ATOM     19  C   UNL d   1      44.928  31.293  58.323  0.00  0.00     0.126 C 
ATOM     20  C   UNL d   1      44.664  31.758  57.695  0.00  0.00     0.029 C 
ENDBRANCH  18  19
ENDBRANCH  16  18
ENDBRANCH  15  16
ENDBRANCH  13  15
ENDBRANCH  11  12
ENDBRANCH  10  11
ENDBRANCH   6  10
BRANCH   1  21
ATOM     21  C   UNL d   1      44.754  24.229  56.116  0.00  0.00     0.085 A 
ATOM     22  C   UNL d   1      44.315  24.392  55.441  0.00  0.00     0.020 A 
ATOM     23  C   UNL d   1      44.425  23.948  54.763  0.00  0.00     0.013 A 
ATOM     24  C   UNL d   1      44.979  23.334  54.751  0.00  0.00     0.058 A 
ATOM     25  C   UNL d   1      45.420  23.178  55.442  0.00  0.00     0.013 A 
ATOM     26 CL   UNL d   1      45.094  22.882  54.064  0.00  0.00    -0.082 Cl
ATOM     27  C   UNL d   1      45.304  23.624  56.114  0.00  0.00     0.020 A 
ENDBRANCH   1  21
TORSDOF 8
ENDMDL
MODEL 8
REMARK VINA RESULT:      -4.4      1.415      1.870
REMARK  8 active torsions:
REMARK  status: ('A' for Active; 'I' for Inactive)
REMARK    1  A    between atoms: C_9  and  N_1 
REMARK    2  A    between atoms: S_10  and  C_6 
REMARK    3  A    between atoms: C_19  and  S_10 
REMARK    4  A    between atoms: C_12  and  C_19 
REMARK       I    between atoms: N_14  and  C_12 
REMARK    5  A    between atoms: C_13  and  C_20 
REMARK    6  A    between atoms: O_24  and  C_13 
REMARK    7  A    between atoms: C_20  and  N_14 
REMARK    8  A    between atoms: C_26  and  O_24 
ROOT
ATOM      1  N   UNL d   1      52.237  33.606  53.176  0.00  0.00    -0.212 N 
ATOM      2  C   UNL d   1      51.422  33.506  53.200  0.00  0.00     0.169 A 
ATOM      3  N   UNL d   1      52.402  34.386  53.036  0.00  0.00    -0.162 NA
ATOM      4  C   UNL d   1      51.076  34.244  53.072  0.00  0.00     0.081 A 
ATOM      5  C   UNL d   1      51.682  34.792  52.970  0.00  0.00     0.126 A 
ATOM      6  C   UNL d   1      50.258  34.321  53.064  0.00  0.00     0.117 A 
ATOM      7  N   UNL d   1      50.949  32.845  53.321  0.00  0.00    -0.205 NA
ATOM      8  N   UNL d   1      49.781  33.658  53.186  0.00  0.00    -0.217 NA
ATOM      9  C   UNL d   1      50.127  32.920  53.314  0.00  0.00     0.201 A 
ENDROOT
BRANCH   6  10
ATOM     10  S   UNL d   1      49.913  35.059  52.936  0.00  0.00    -0.062 SA
BRANCH  10  11
ATOM     11  C   UNL d   1      49.104  35.123  52.855  0.00  0.00     0.099 C 
BRANCH  11  12
ATOM     12  C   UNL d   1      48.719  35.815  53.086  0.00  0.00     0.286 C 
ATOM     13  N   UNL d   1      48.009  36.033  52.726  0.00  0.00    -0.200 NA
ATOM     14  O   UNL d   1      49.045  36.290  53.678  0.00  0.00    -0.265 OA
BRANCH  13  15
ATOM     15  C   UNL d   1      47.684  35.558  52.135  0.00  0.00     0.171 C 
BRANCH  15  16
ATOM     16  C   UNL d   1      46.982  35.783  51.763  0.00  0.00     0.320 C 
ATOM     17  O   UNL d   1      46.718  36.564  51.819  0.00  0.00    -0.257 OA
BRANCH  16  18
ATOM     18  O   UNL d   1      46.543  35.229  51.337  0.00  0.00    -0.270 OA
BRANCH  18  19
ATOM     19  C   UNL d   1      45.939  35.481  50.834  0.00  0.00     0.126 C 
ATOM     20  C   UNL d   1      45.296  34.987  50.685  0.00  0.00     0.029 C 
ENDBRANCH  18  19
ENDBRANCH  16  18
ENDBRANCH  15  16
ENDBRANCH  13  15
ENDBRANCH  11  12
ENDBRANCH  10  11
ENDBRANCH   6  10
BRANCH   1  21
ATOM     21  C   UNL d   1      52.739  32.954  53.288  0.00  0.00     0.085 A 
ATOM     22  C   UNL d   1      52.761  32.352  52.728  0.00  0.00     0.020 A 
ATOM     23  C   UNL d   1      53.254  31.709  52.836  0.00  0.00     0.013 A 
ATOM     24  C   UNL d   1      53.734  31.659  53.508  0.00  0.00     0.058 A 
ATOM     25  C   UNL d   1      53.703  32.275  54.071  0.00  0.00     0.013 A 
ATOM     26 CL   UNL d   1      54.236  31.007  53.621  0.00  0.00    -0.082 Cl
ATOM     27  C   UNL d   1      53.209  32.913  53.956  0.00  0.00     0.020 A 
ENDBRANCH   1  21
TORSDOF 8
ENDMDL
