MODEL 1
REMARK VINA RESULT:      70.0      0.000      0.000
REMARK  5 active torsions:
REMARK  status: ('A' for Active; 'I' for Inactive)
REMARK    1  A    between atoms: C_3  and  C_1 
REMARK    2  A    between atoms: N_8  and  C_3 
REMARK    3  A    between atoms: C_9  and  C_3 
REMARK    4  A    between atoms: C_17  and  C_7 
REMARK    5  A    between atoms: C_10  and  N_8 
ROOT
ATOM      1  C   UNL d   1      60.567  49.031  50.897  0.00  0.00     0.109 C 
ENDROOT
BRANCH   1   2
ATOM      2  C   UNL d   1      60.761  48.263  50.664  0.00  0.00     0.160 A 
ATOM      3  C   UNL d   1      61.358  48.117  50.103  0.00  0.00     0.258 A 
ATOM      4  C   UNL d   1      61.533  47.324  49.886  0.00  0.00     0.238 A 
ATOM      5  O   UNL d   1      61.767  48.739  49.769  0.00  0.00    -0.281 OA
ATOM      6  O   UNL d   1      62.131  47.179  49.325  0.00  0.00    -0.283 OA
ATOM      7  C   UNL d   1      61.125  46.702  50.220  0.00  0.00     0.073 A 
ATOM      8  C   UNL d   1      60.528  46.848  50.781  0.00  0.00     0.146 A 
ATOM      9  O   UNL d   1      60.347  47.612  51.001  0.00  0.00    -0.299 OA
BRANCH   8  10
ATOM     10  C   UNL d   1      60.115  46.205  51.117  0.00  0.00     0.259 C 
ATOM     11  O   UNL d   1      60.446  45.755  51.746  0.00  0.00    -0.281 OA
ENDBRANCH   8  10
ENDBRANCH   1   2
BRANCH   1  12
ATOM     12  N   UNL d   1      60.247  49.577  50.362  0.00  0.00    -0.225 NA
BRANCH  12  13
ATOM     13  C   UNL d   1      59.442  49.620  50.247  0.00  0.00     0.163 A 
ATOM     14  N   UNL d   1      58.927  49.654  50.890  0.00  0.00    -0.225 NA
ATOM     15  C   UNL d   1      58.115  49.698  50.763  0.00  0.00     0.101 A 
ATOM     16  C   UNL d   1      57.816  49.708  49.997  0.00  0.00     0.021 A 
ATOM     17  C   UNL d   1      58.314  49.675  49.340  0.00  0.00     0.005 A 
ATOM     18  C   UNL d   1      59.125  49.631  49.461  0.00  0.00     0.039 A 
ENDBRANCH  12  13
ENDBRANCH   1  12
BRANCH   1  19
ATOM     19  C   UNL d   1      60.697  49.257  51.691  0.00  0.00     0.022 A 
ATOM     20  C   UNL d   1      60.059  49.359  52.204  0.00  0.00     0.031 A 
ATOM     21  C   UNL d   1      60.195  49.581  52.983  0.00  0.00     0.140 A 
ATOM     22  F   UNL d   1      59.553  49.685  53.507  0.00  0.00    -0.204 F 
ATOM     23  C   UNL d   1      60.965  49.702  53.251  0.00  0.00     0.030 A 
ATOM     24  C   UNL d   1      61.606  49.602  52.744  0.00  0.00     0.002 A 
ATOM     25  C   UNL d   1      61.467  49.378  51.960  0.00  0.00     0.002 A 
ENDBRANCH   1  19
TORSDOF 5
ENDMDL
