MODEL 1
REMARK VINA RESULT:      48.0      0.000      0.000
REMARK  1 active torsions:
REMARK  status: ('A' for Active; 'I' for Inactive)
REMARK    1  A    between atoms: N_11  and  C_4 
ROOT
ATOM      1  N   UNL d   1     -51.604  25.318  33.695  0.00  0.00    -0.195 N 
ATOM      2  C   UNL d   1     -50.851  25.656  33.601  0.00  0.00     0.168 A 
ATOM      3  C   UNL d   1     -50.762  26.468  33.554  0.00  0.00     0.073 A 
ATOM      4  C   UNL d   1     -51.673  24.506  33.741  0.00  0.00     0.153 A 
ATOM      5  N   UNL d   1     -52.180  26.602  33.694  0.00  0.00    -0.143 NA
ATOM      6  C   UNL d   1     -51.428  26.940  33.600  0.00  0.00     0.185 A 
ATOM      7  N   UNL d   1     -50.190  25.172  33.555  0.00  0.00    -0.227 NA
ATOM      8  C   UNL d   1     -50.018  26.802  33.461  0.00  0.00     0.007 A 
ATOM      9  N   UNL d   1     -51.353  27.764  33.554  0.00  0.00    -0.225 NA
ATOM     10  C   UNL d   1     -51.022  24.022  33.696  0.00  0.00     0.057 A 
ATOM     11  C   UNL d   1     -49.928  27.613  33.413  0.00  0.00     0.019 A 
ATOM     12  C   UNL d   1     -50.269  24.360  33.602  0.00  0.00     0.086 A 
ATOM     13  C   UNL d   1     -50.601  28.101  33.460  0.00  0.00     0.083 A 
ATOM     14  C   UNL d   1     -49.353  26.315  33.415  0.00  0.00     0.000 C 
ATOM     15  C   UNL d   1     -49.583  23.853  33.555  0.00  0.00     0.021 C 
ATOM     16  C   UNL d   1     -50.518  28.910  33.413  0.00  0.00     0.021 C 
ENDROOT
BRANCH   4  17
ATOM     17  N   UNL d   1     -52.453  24.166  33.838  0.00  0.00    -0.285 N 
ATOM     18  C   UNL d   1     -52.587  23.571  34.446  0.00  0.00     0.108 A 
ATOM     19  C   UNL d   1     -53.360  23.237  34.539  0.00  0.00     0.142 A 
ATOM     20  O   UNL d   1     -53.999  23.488  34.034  0.00  0.00    -0.300 OA
ATOM     21  C   UNL d   1     -53.860  24.075  33.435  0.00  0.00     0.142 A 
ATOM     22  C   UNL d   1     -53.087  24.409  33.342  0.00  0.00     0.108 A 
ENDBRANCH   4  17
TORSDOF 1
ENDMDL
