MODEL 1
REMARK VINA RESULT:     157.1      0.000      0.000
REMARK  5 active torsions:
REMARK  status: ('A' for Active; 'I' for Inactive)
REMARK    1  A    between atoms: C_11  and  N_4 
REMARK    2  A    between atoms: C_12  and  N_10 
REMARK    3  A    between atoms: C_14  and  C_11 
REMARK    4  A    between atoms: O_26  and  C_13 
REMARK    5  A    between atoms: O_28  and  C_24 
ROOT
ATOM      1  C   UNL d   1      60.398  46.114  50.025  0.00  0.00     0.191 A 
ATOM      2  C   UNL d   1      61.031  46.293  50.525  0.00  0.00     0.173 A 
ATOM      3  C   UNL d   1      60.077  47.441  50.616  0.00  0.00     0.722 A 
ATOM      4  N   UNL d   1      61.651  45.066  50.180  0.00  0.00    -0.224 N 
ATOM      5  N   UNL d   1      59.860  46.726  50.054  0.00  0.00    -0.042 NA
ATOM      6  N   UNL d   1      60.872  47.012  50.855  0.00  0.00    -0.132 N 
ATOM      7  N   UNL d   1      60.378  45.414  49.595  0.00  0.00    -0.240 N 
ATOM      8  C   UNL d   1      61.019  44.887  49.680  0.00  0.00     0.343 A 
ATOM      9  C   UNL d   1      61.644  45.772  50.596  0.00  0.00     0.288 A 
ATOM     10  N   UNL d   1      59.930  48.162  50.954  0.00  0.00    -0.138 N 
ATOM     11  C   UNL d   1      61.354  47.394  51.382  0.00  0.00     0.100 A 
ATOM     12  C   UNL d   1      60.446  48.526  51.491  0.00  0.00     0.100 A 
ATOM     13  O   UNL d   1      61.005  44.175  49.247  0.00  0.00    -0.245 OA
ATOM     14  O   UNL d   1      62.277  45.951  51.096  0.00  0.00    -0.265 OA
ATOM     15  C   UNL d   1      61.175  48.133  51.710  0.00  0.00     0.036 A 
ATOM     16  C   UNL d   1      59.746  45.235  49.095  0.00  0.00     0.105 C 
ATOM     17  C   UNL d   1      61.699  48.486  52.247  0.00  0.00     0.003 C 
ENDROOT
BRANCH  10  18
ATOM     18  C   UNL d   1      59.224  48.535  50.736  0.00  0.00     0.104 A 
ATOM     19  C   UNL d   1      59.240  49.301  50.431  0.00  0.00     0.113 A 
ATOM     20  C   UNL d   1      58.572  49.696  50.208  0.00  0.00     0.050 A 
ATOM     21  C   UNL d   1      57.828  49.323  50.285  0.00  0.00     0.096 A 
ATOM     22  C   UNL d   1      57.801  48.542  50.595  0.00  0.00     0.026 A 
ATOM     23  C   UNL d   1      58.493  48.165  50.813  0.00  0.00     0.022 A 
BRANCH  19  24
ATOM     24  O   UNL d   1      59.968  49.682  50.349  0.00  0.00    -0.327 OA
ATOM     25  C   UNL d   1      60.330  49.692  49.623  0.00  0.00     0.181 C 
ENDBRANCH  19  24
BRANCH  21  26
ATOM     26  O   UNL d   1      57.118  49.708  50.062  0.00  0.00    -0.328 OA
ATOM     27  C   UNL d   1      56.387  49.385  50.272  0.00  0.00     0.181 C 
ENDBRANCH  21  26
ENDBRANCH  10  18
BRANCH   4  28
ATOM     28  C   UNL d   1      62.012  44.351  49.978  0.00  0.00     0.090 C 
BRANCH  28  29
ATOM     29  C   UNL d   1      62.105  43.760  50.549  0.00  0.00     0.045 A 
ATOM     30  C   UNL d   1      62.668  43.178  50.435  0.00  0.00     0.141 A 
ATOM     31  F   UNL d   1      63.139  43.180  49.759  0.00  0.00    -0.204 F 
ATOM     32  C   UNL d   1      62.762  42.589  51.002  0.00  0.00     0.030 A 
ATOM     33  C   UNL d   1      62.295  42.583  51.679  0.00  0.00     0.002 A 
ATOM     34  C   UNL d   1      61.728  43.175  51.786  0.00  0.00     0.000 A 
ATOM     35  C   UNL d   1      61.634  43.765  51.219  0.00  0.00     0.004 A 
ENDBRANCH  28  29
ENDBRANCH   4  28
TORSDOF 5
ENDMDL
