MODEL 1
REMARK VINA RESULT:      -5.4      0.000      0.000
REMARK  2 active torsions:
REMARK  status: ('A' for Active; 'I' for Inactive)
REMARK    1  A    between atoms: C_5  and  N_1 
REMARK    2  A    between atoms: C_7  and  C_5 
ROOT
ATOM      1  N   UNL d   1      56.112  -0.424  32.339  0.00  0.00    -0.251 N 
ATOM      2  C   UNL d   1      56.199  -1.237  32.415  0.00  0.00     0.378 A 
ATOM      3  O   UNL d   1      56.778  -1.485  31.880  0.00  0.00    -0.258 OA
ATOM      4  C   UNL d   1      56.640  -0.164  31.753  0.00  0.00     0.092 A 
ATOM      5  C   UNL d   1      57.049  -0.820  31.471  0.00  0.00     0.121 A 
ATOM      6  O   UNL d   1      55.784  -1.726  32.933  0.00  0.00    -0.237 OA
ATOM      7  C   UNL d   1      56.790   0.587  31.450  0.00  0.00     0.020 A 
ATOM      8  C   UNL d   1      57.617  -0.723  30.876  0.00  0.00     0.026 A 
ATOM      9  C   UNL d   1      57.357   0.681  30.857  0.00  0.00     0.002 A 
ATOM     10  C   UNL d   1      57.769   0.029  30.571  0.00  0.00     0.002 A 
ENDROOT
BRANCH   1  11
ATOM     11  C   UNL d   1      55.593   0.054  32.768  0.00  0.00     0.086 C 
BRANCH  11  12
ATOM     12  C   UNL d   1      55.774   0.263  33.538  0.00  0.00     0.028 A 
ATOM     13  C   UNL d   1      55.172   0.468  34.067  0.00  0.00     0.059 A 
ATOM     14 CL   UNL d   1      54.392   0.451  33.779  0.00  0.00    -0.082 Cl
ATOM     15  C   UNL d   1      55.355   0.675  34.836  0.00  0.00     0.011 A 
ATOM     16  C   UNL d   1      56.146   0.682  35.093  0.00  0.00     0.001 A 
ATOM     17  C   UNL d   1      56.750   0.477  34.566  0.00  0.00     0.000 A 
ATOM     18  C   UNL d   1      56.563   0.268  33.792  0.00  0.00     0.002 A 
ENDBRANCH  11  12
ENDBRANCH   1  11
TORSDOF 2
ENDMDL
MODEL 2
REMARK VINA RESULT:      -5.1      1.572      1.980
REMARK  2 active torsions:
REMARK  status: ('A' for Active; 'I' for Inactive)
REMARK    1  A    between atoms: C_5  and  N_1 
REMARK    2  A    between atoms: C_7  and  C_5 
ROOT
ATOM      1  N   UNL d   1      57.348   0.631  32.168  0.00  0.00    -0.251 N 
ATOM      2  C   UNL d   1      57.962   0.664  32.712  0.00  0.00     0.378 A 
ATOM      3  O   UNL d   1      58.675   0.680  32.295  0.00  0.00    -0.258 OA
ATOM      4  C   UNL d   1      57.681   0.626  31.407  0.00  0.00     0.092 A 
ATOM      5  C   UNL d   1      58.499   0.656  31.488  0.00  0.00     0.121 A 
ATOM      6  O   UNL d   1      57.886   0.679  33.533  0.00  0.00    -0.237 OA
ATOM      7  C   UNL d   1      57.334   0.597  30.661  0.00  0.00     0.020 A 
ATOM      8  C   UNL d   1      58.978   0.658  30.812  0.00  0.00     0.026 A 
ATOM      9  C   UNL d   1      57.812   0.599  29.988  0.00  0.00     0.002 A 
ATOM     10  C   UNL d   1      58.631   0.630  30.063  0.00  0.00     0.002 A 
ENDROOT
BRANCH   1  11
ATOM     11  C   UNL d   1      56.541   0.606  32.341  0.00  0.00     0.086 C 
BRANCH  11  12
ATOM     12  C   UNL d   1      56.203  -0.088  32.611  0.00  0.00     0.028 A 
ATOM     13  C   UNL d   1      55.514  -0.067  33.069  0.00  0.00     0.059 A 
ATOM     14 CL   UNL d   1      55.192   0.682  33.235  0.00  0.00    -0.082 Cl
ATOM     15  C   UNL d   1      55.179  -0.762  33.337  0.00  0.00     0.011 A 
ATOM     16  C   UNL d   1      55.527  -1.495  33.153  0.00  0.00     0.001 A 
ATOM     17  C   UNL d   1      56.216  -1.519  32.696  0.00  0.00     0.000 A 
ATOM     18  C   UNL d   1      56.551  -0.817  32.427  0.00  0.00     0.002 A 
ENDBRANCH  11  12
ENDBRANCH   1  11
TORSDOF 2
ENDMDL
MODEL 3
REMARK VINA RESULT:      -4.6      1.624      3.399
REMARK  2 active torsions:
REMARK  status: ('A' for Active; 'I' for Inactive)
REMARK    1  A    between atoms: C_5  and  N_1 
REMARK    2  A    between atoms: C_7  and  C_5 
ROOT
ATOM      1  N   UNL d   1      56.873  -0.272  31.515  0.00  0.00    -0.251 N 
ATOM      2  C   UNL d   1      56.977  -1.085  31.479  0.00  0.00     0.378 A 
ATOM      3  O   UNL d   1      56.610  -1.422  32.137  0.00  0.00    -0.258 OA
ATOM      4  C   UNL d   1      56.437  -0.101  32.201  0.00  0.00     0.092 A 
ATOM      5  C   UNL d   1      56.276  -0.812  32.583  0.00  0.00     0.121 A 
ATOM      6  O   UNL d   1      57.379  -1.500  30.889  0.00  0.00    -0.237 OA
ATOM      7  C   UNL d   1      56.174   0.614  32.514  0.00  0.00     0.020 A 
ATOM      8  C   UNL d   1      55.845  -0.807  33.290  0.00  0.00     0.026 A 
ATOM      9  C   UNL d   1      55.744   0.616  33.220  0.00  0.00     0.002 A 
ATOM     10  C   UNL d   1      55.580  -0.092  33.606  0.00  0.00     0.002 A 
ENDROOT
BRANCH   1  11
ATOM     11  C   UNL d   1      57.150   0.282  30.969  0.00  0.00     0.086 C 
BRANCH  11  12
ATOM     12  C   UNL d   1      57.954   0.415  30.896  0.00  0.00     0.028 A 
ATOM     13  C   UNL d   1      58.288   0.549  30.150  0.00  0.00     0.059 A 
ATOM     14 CL   UNL d   1      57.774   0.542  29.497  0.00  0.00    -0.082 Cl
ATOM     15  C   UNL d   1      59.091   0.681  30.080  0.00  0.00     0.011 A 
ATOM     16  C   UNL d   1      59.578   0.682  30.755  0.00  0.00     0.001 A 
ATOM     17  C   UNL d   1      59.246   0.548  31.500  0.00  0.00     0.000 A 
ATOM     18  C   UNL d   1      58.436   0.415  31.568  0.00  0.00     0.002 A 
ENDBRANCH  11  12
ENDBRANCH   1  11
TORSDOF 2
ENDMDL
MODEL 4
REMARK VINA RESULT:      -3.7      1.571      3.536
REMARK  2 active torsions:
REMARK  status: ('A' for Active; 'I' for Inactive)
REMARK    1  A    between atoms: C_5  and  N_1 
REMARK    2  A    between atoms: C_7  and  C_5 
ROOT
ATOM      1  N   UNL d   1      56.370   0.665  33.733  0.00  0.00    -0.251 N 
ATOM      2  C   UNL d   1      57.050   0.669  34.193  0.00  0.00     0.378 A 
ATOM      3  O   UNL d   1      56.824   0.677  34.988  0.00  0.00    -0.258 OA
ATOM      4  C   UNL d   1      55.716   0.669  34.245  0.00  0.00     0.092 A 
ATOM      5  C   UNL d   1      55.998   0.676  35.018  0.00  0.00     0.121 A 
ATOM      6  O   UNL d   1      57.827   0.667  33.916  0.00  0.00    -0.237 OA
ATOM      7  C   UNL d   1      54.907   0.667  34.093  0.00  0.00     0.020 A 
ATOM      8  C   UNL d   1      55.462   0.682  35.649  0.00  0.00     0.026 A 
ATOM      9  C   UNL d   1      54.374   0.673  34.724  0.00  0.00     0.002 A 
ATOM     10  C   UNL d   1      54.651   0.680  35.499  0.00  0.00     0.002 A 
ENDROOT
BRANCH   1  11
ATOM     11  C   UNL d   1      56.338   0.657  32.908  0.00  0.00     0.086 C 
BRANCH  11  12
ATOM     12  C   UNL d   1      56.445  -0.046  32.503  0.00  0.00     0.028 A 
ATOM     13  C   UNL d   1      56.831  -0.049  31.771  0.00  0.00     0.059 A 
ATOM     14 CL   UNL d   1      57.096   0.682  31.477  0.00  0.00    -0.082 Cl
ATOM     15  C   UNL d   1      56.937  -0.753  31.368  0.00  0.00     0.011 A 
ATOM     16  C   UNL d   1      56.660  -1.468  31.690  0.00  0.00     0.001 A 
ATOM     17  C   UNL d   1      56.275  -1.466  32.422  0.00  0.00     0.000 A 
ATOM     18  C   UNL d   1      56.169  -0.756  32.826  0.00  0.00     0.002 A 
ENDBRANCH  11  12
ENDBRANCH   1  11
TORSDOF 2
ENDMDL
MODEL 5
REMARK VINA RESULT:      -3.2      2.931      4.933
REMARK  2 active torsions:
REMARK  status: ('A' for Active; 'I' for Inactive)
REMARK    1  A    between atoms: C_5  and  N_1 
REMARK    2  A    between atoms: C_7  and  C_5 
ROOT
ATOM      1  N   UNL d   1      58.446   0.681  29.960  0.00  0.00    -0.251 N 
ATOM      2  C   UNL d   1      57.772   0.679  29.491  0.00  0.00     0.378 A 
ATOM      3  O   UNL d   1      57.113   0.679  29.989  0.00  0.00    -0.258 OA
ATOM      4  C   UNL d   1      58.205   0.681  30.754  0.00  0.00     0.092 A 
ATOM      5  C   UNL d   1      57.382   0.679  30.770  0.00  0.00     0.121 A 
ATOM      6  O   UNL d   1      57.750   0.679  28.667  0.00  0.00    -0.237 OA
ATOM      7  C   UNL d   1      58.639   0.682  31.454  0.00  0.00     0.020 A 
ATOM      8  C   UNL d   1      56.988   0.679  31.498  0.00  0.00     0.026 A 
ATOM      9  C   UNL d   1      58.243   0.682  32.179  0.00  0.00     0.002 A 
ATOM     10  C   UNL d   1      57.420   0.680  32.201  0.00  0.00     0.002 A 
ENDROOT
BRANCH   1  11
ATOM     11  C   UNL d   1      59.228   0.682  29.692  0.00  0.00     0.086 C 
BRANCH  11  12
ATOM     12  C   UNL d   1      59.571  -0.016  29.437  0.00  0.00     0.028 A 
ATOM     13  C   UNL d   1      60.395  -0.085  29.399  0.00  0.00     0.059 A 
ATOM     14 CL   UNL d   1      60.843   0.577  29.629  0.00  0.00    -0.082 Cl
ATOM     15  C   UNL d   1      60.736  -0.782  29.143  0.00  0.00     0.011 A 
ATOM     16  C   UNL d   1      60.259  -1.426  28.920  0.00  0.00     0.001 A 
ATOM     17  C   UNL d   1      59.436  -1.359  28.957  0.00  0.00     0.000 A 
ATOM     18  C   UNL d   1      59.095  -0.656  29.215  0.00  0.00     0.002 A 
ENDBRANCH  11  12
ENDBRANCH   1  11
TORSDOF 2
ENDMDL
MODEL 6
REMARK VINA RESULT:      -3.2      3.188      5.210
REMARK  2 active torsions:
REMARK  status: ('A' for Active; 'I' for Inactive)
REMARK    1  A    between atoms: C_5  and  N_1 
REMARK    2  A    between atoms: C_7  and  C_5 
ROOT
ATOM      1  N   UNL d   1      58.525  -0.621  29.386  0.00  0.00    -0.251 N 
ATOM      2  C   UNL d   1      58.803   0.109  29.132  0.00  0.00     0.378 A 
ATOM      3  O   UNL d   1      58.555   0.682  29.672  0.00  0.00    -0.258 OA
ATOM      4  C   UNL d   1      58.100  -0.501  30.090  0.00  0.00     0.092 A 
ATOM      5  C   UNL d   1      58.120   0.303  30.264  0.00  0.00     0.121 A 
ATOM      6  O   UNL d   1      59.254   0.250  28.455  0.00  0.00    -0.237 OA
ATOM      7  C   UNL d   1      57.704  -1.028  30.582  0.00  0.00     0.020 A 
ATOM      8  C   UNL d   1      57.737   0.584  30.943  0.00  0.00     0.026 A 
ATOM      9  C   UNL d   1      57.322  -0.746  31.258  0.00  0.00     0.002 A 
ATOM     10  C   UNL d   1      57.339   0.057  31.438  0.00  0.00     0.002 A 
ENDROOT
BRANCH   1  11
ATOM     11  C   UNL d   1      58.644  -1.347  29.012  0.00  0.00     0.086 C 
BRANCH  11  12
ATOM     12  C   UNL d   1      59.360  -1.734  29.092  0.00  0.00     0.028 A 
ATOM     13  C   UNL d   1      59.407  -2.552  28.976  0.00  0.00     0.059 A 
ATOM     14 CL   UNL d   1      58.704  -2.949  28.778  0.00  0.00    -0.082 Cl
ATOM     15  C   UNL d   1      60.124  -2.936  29.057  0.00  0.00     0.011 A 
ATOM     16  C   UNL d   1      60.810  -2.510  29.256  0.00  0.00     0.001 A 
ATOM     17  C   UNL d   1      60.765  -1.692  29.373  0.00  0.00     0.000 A 
ATOM     18  C   UNL d   1      60.041  -1.308  29.291  0.00  0.00     0.002 A 
ENDBRANCH  11  12
ENDBRANCH   1  11
TORSDOF 2
ENDMDL
MODEL 7
REMARK VINA RESULT:      -2.4      2.805      4.090
REMARK  2 active torsions:
REMARK  status: ('A' for Active; 'I' for Inactive)
REMARK    1  A    between atoms: C_5  and  N_1 
REMARK    2  A    between atoms: C_7  and  C_5 
ROOT
ATOM      1  N   UNL d   1      58.664  -0.260  29.261  0.00  0.00    -0.251 N 
ATOM      2  C   UNL d   1      58.475   0.379  28.782  0.00  0.00     0.378 A 
ATOM      3  O   UNL d   1      59.175   0.673  28.456  0.00  0.00    -0.258 OA
ATOM      4  C   UNL d   1      59.488  -0.366  29.232  0.00  0.00     0.092 A 
ATOM      5  C   UNL d   1      59.800   0.211  28.735  0.00  0.00     0.121 A 
ATOM      6  O   UNL d   1      57.720   0.681  28.646  0.00  0.00    -0.237 OA
ATOM      7  C   UNL d   1      59.978  -0.916  29.599  0.00  0.00     0.020 A 
ATOM      8  C   UNL d   1      60.617   0.237  28.604  0.00  0.00     0.026 A 
ATOM      9  C   UNL d   1      60.793  -0.887  29.467  0.00  0.00     0.002 A 
ATOM     10  C   UNL d   1      61.111  -0.313  28.971  0.00  0.00     0.002 A 
ENDROOT
BRANCH   1  11
ATOM     11  C   UNL d   1      58.133  -0.720  29.695  0.00  0.00     0.086 C 
BRANCH  11  12
ATOM     12  C   UNL d   1      57.824  -0.432  30.396  0.00  0.00     0.028 A 
ATOM     13  C   UNL d   1      57.448  -0.943  30.927  0.00  0.00     0.059 A 
ATOM     14 CL   UNL d   1      57.404  -1.746  30.715  0.00  0.00    -0.082 Cl
ATOM     15  C   UNL d   1      57.140  -0.652  31.626  0.00  0.00     0.011 A 
ATOM     16  C   UNL d   1      57.202   0.157  31.809  0.00  0.00     0.001 A 
ATOM     17  C   UNL d   1      57.577   0.669  31.279  0.00  0.00     0.000 A 
ATOM     18  C   UNL d   1      57.886   0.374  30.575  0.00  0.00     0.002 A 
ENDBRANCH  11  12
ENDBRANCH   1  11
TORSDOF 2
ENDMDL
