MODEL 1
REMARK VINA RESULT:      60.5      0.000      0.000
REMARK  3 active torsions:
REMARK  status: ('A' for Active; 'I' for Inactive)
REMARK    1  A    between atoms: C_9  and  C_4 
REMARK       I    between atoms: C_6  and  N_8 
REMARK    2  A    between atoms: C_13  and  C_6 
REMARK    3  A    between atoms: N_8  and  C_16 
ROOT
ATOM      1  C   UNL d   1     -50.642  25.924  33.359  0.00  0.00     0.019 A 
ATOM      2  C   UNL d   1     -50.996  26.662  33.358  0.00  0.00     0.003 A 
ATOM      3  C   UNL d   1     -49.827  25.852  33.359  0.00  0.00     0.003 A 
ATOM      4  C   UNL d   1     -49.705  27.271  33.356  0.00  0.00     0.085 A 
ATOM      5  C   UNL d   1     -49.356  26.531  33.357  0.00  0.00     0.019 A 
ATOM      6  C   UNL d   1     -50.528  27.337  33.356  0.00  0.00     0.019 A 
ENDROOT
BRANCH   1   7
ATOM      7  C   UNL d   1     -51.114  25.241  33.360  0.00  0.00     0.101 A 
ATOM      8  N   UNL d   1     -51.925  25.257  33.415  0.00  0.00    -0.221 NA
ATOM      9  C   UNL d   1     -52.203  24.481  33.399  0.00  0.00     0.179 A 
ATOM     10  N   UNL d   1     -51.561  23.976  33.335  0.00  0.00    -0.282 N 
ATOM     11  S   UNL d   1     -52.890  24.018  33.424  0.00  0.00    -0.048 SA
ATOM     12  C   UNL d   1     -50.878  24.450  33.310  0.00  0.00     0.101 A 
ATOM     13  C   UNL d   1     -51.838  23.199  33.319  0.00  0.00     0.089 A 
ATOM     14  C   UNL d   1     -52.663  23.231  33.375  0.00  0.00     0.057 A 
ENDBRANCH   1   7
BRANCH   4  15
ATOM     15  N   UNL d   1     -49.233  27.955  33.355  0.00  0.00    -0.208 NA
ATOM     16  C   UNL d   1     -48.999  28.307  34.072  0.00  0.00     0.279 C 
ATOM     17  O   UNL d   1     -48.537  28.977  34.075  0.00  0.00    -0.265 OA
BRANCH  16  18
ATOM     18  C   UNL d   1     -49.242  27.967  34.782  0.00  0.00     0.058 A 
ATOM     19  C   UNL d   1     -48.714  27.891  35.413  0.00  0.00     0.005 A 
ATOM     20  C   UNL d   1     -49.116  27.534  36.038  0.00  0.00     0.000 A 
ATOM     21  C   UNL d   1     -49.884  27.388  35.806  0.00  0.00     0.000 A 
ATOM     22  C   UNL d   1     -49.970  27.654  35.024  0.00  0.00     0.005 A 
ENDBRANCH  16  18
ENDBRANCH   4  15
TORSDOF 3
ENDMDL
MODEL 2
REMARK VINA RESULT:      63.1      0.766      1.146
REMARK  3 active torsions:
REMARK  status: ('A' for Active; 'I' for Inactive)
REMARK    1  A    between atoms: C_9  and  C_4 
REMARK       I    between atoms: C_6  and  N_8 
REMARK    2  A    between atoms: C_13  and  C_6 
REMARK    3  A    between atoms: N_8  and  C_16 
ROOT
ATOM      1  C   UNL d   1     -50.775  26.411  33.319  0.00  0.00     0.019 A 
ATOM      2  C   UNL d   1     -49.966  26.533  33.306  0.00  0.00     0.003 A 
ATOM      3  C   UNL d   1     -51.293  27.045  33.335  0.00  0.00     0.003 A 
ATOM      4  C   UNL d   1     -50.189  27.943  33.326  0.00  0.00     0.085 A 
ATOM      5  C   UNL d   1     -50.997  27.815  33.338  0.00  0.00     0.019 A 
ATOM      6  C   UNL d   1     -49.671  27.300  33.310  0.00  0.00     0.019 A 
ENDROOT
BRANCH   1   7
ATOM      7  C   UNL d   1     -51.075  25.637  33.316  0.00  0.00     0.101 A 
ATOM      8  N   UNL d   1     -50.603  24.974  33.316  0.00  0.00    -0.221 NA
ATOM      9  C   UNL d   1     -51.089  24.308  33.312  0.00  0.00     0.179 A 
ATOM     10  N   UNL d   1     -51.870  24.556  33.310  0.00  0.00    -0.282 N 
ATOM     11  S   UNL d   1     -51.084  23.480  33.310  0.00  0.00    -0.048 SA
ATOM     12  C   UNL d   1     -51.862  25.387  33.312  0.00  0.00     0.101 A 
ATOM     13  C   UNL d   1     -52.357  23.889  33.307  0.00  0.00     0.089 A 
ATOM     14  C   UNL d   1     -51.864  23.225  33.306  0.00  0.00     0.057 A 
ENDBRANCH   1   7
BRANCH   4  15
ATOM     15  N   UNL d   1     -49.888  28.718  33.329  0.00  0.00    -0.208 NA
ATOM     16  C   UNL d   1     -49.384  28.973  33.940  0.00  0.00     0.279 C 
ATOM     17  O   UNL d   1     -49.088  29.730  33.947  0.00  0.00    -0.265 OA
BRANCH  16  18
ATOM     18  C   UNL d   1     -49.187  28.444  34.541  0.00  0.00     0.058 A 
ATOM     19  C   UNL d   1     -49.542  28.504  35.285  0.00  0.00     0.005 A 
ATOM     20  C   UNL d   1     -49.234  27.905  35.760  0.00  0.00     0.000 A 
ATOM     21  C   UNL d   1     -48.696  27.474  35.325  0.00  0.00     0.000 A 
ATOM     22  C   UNL d   1     -48.660  27.804  34.564  0.00  0.00     0.005 A 
ENDBRANCH  16  18
ENDBRANCH   4  15
TORSDOF 3
ENDMDL
