MODEL 1
REMARK VINA RESULT:      -0.0      0.000      0.000
REMARK  6 active torsions:
REMARK  status: ('A' for Active; 'I' for Inactive)
REMARK    1  A    between atoms: C_8  and  C_1 
REMARK    2  A    between atoms: S_10  and  C_2 
REMARK    3  A    between atoms: C_7  and  C_4 
REMARK    4  A    between atoms: C_23  and  S_10 
REMARK    5  A    between atoms: C_16  and  C_23 
REMARK    6  A    between atoms: O_25  and  C_16 
ROOT
ATOM      1  C   UNL d   1      30.770  17.456 -24.107  0.00  0.00     0.045 A 
ATOM      2  C   UNL d   1      30.356  16.719 -24.266  0.00  0.00     0.112 A 
ATOM      3  C   UNL d   1      31.999  16.830 -24.502  0.00  0.00     0.057 A 
ATOM      4  C   UNL d   1      31.584  17.493 -24.229  0.00  0.00     0.008 A 
ATOM      5  C   UNL d   1      31.601  16.121 -24.655  0.00  0.00     0.085 A 
ATOM      6  N   UNL d   1      30.783  16.068 -24.537  0.00  0.00    -0.239 NA
ATOM      7  C   UNL d   1      32.813  16.887 -24.618  0.00  0.00     0.197 A 
ATOM      8  O   UNL d   1      33.213  17.599 -24.465  0.00  0.00    -0.286 OA
ATOM      9  C   UNL d   1      32.011  15.461 -24.926  0.00  0.00     0.019 A 
ATOM     10  C   UNL d   1      33.241  16.235 -24.890  0.00  0.00     0.042 A 
ATOM     11  C   UNL d   1      32.827  15.498 -25.048  0.00  0.00     0.005 A 
ENDROOT
BRANCH   4  12
ATOM     12  C   UNL d   1      31.985  18.206 -24.076  0.00  0.00     0.002 A 
ATOM     13  C   UNL d   1      32.208  18.404 -23.308  0.00  0.00     0.026 A 
ATOM     14  C   UNL d   1      32.606  19.112 -23.155  0.00  0.00     0.119 A 
ATOM     15  O   UNL d   1      32.896  19.456 -22.453  0.00  0.00    -0.300 OA
ATOM     16  C   UNL d   1      32.784  19.626 -23.769  0.00  0.00     0.119 A 
ATOM     17  C   UNL d   1      33.241  20.163 -22.643  0.00  0.00     0.304 A 
ATOM     18  O   UNL d   1      33.176  20.273 -23.441  0.00  0.00    -0.300 OA
ATOM     19  C   UNL d   1      32.552  19.425 -24.584  0.00  0.00     0.026 A 
ATOM     20  C   UNL d   1      32.157  18.716 -24.714  0.00  0.00     0.002 A 
ENDBRANCH   4  12
BRANCH   1  21
ATOM     21  C   UNL d   1      30.361  18.152 -23.825  0.00  0.00     0.124 C 
ATOM     22  N   UNL d   1      29.741  18.463 -24.255  0.00  0.00    -0.146 N 
ENDBRANCH   1  21
BRANCH   2  23
ATOM     23  S   UNL d   1      29.511  16.640 -24.151  0.00  0.00    -0.062 SA
BRANCH  23  24
ATOM     24  C   UNL d   1      29.200  15.927 -23.901  0.00  0.00     0.105 C 
BRANCH  24  25
ATOM     25  C   UNL d   1      28.394  15.778 -23.990  0.00  0.00     0.303 C 
ATOM     26  O   UNL d   1      28.082  15.629 -24.735  0.00  0.00    -0.259 OA
BRANCH  25  27
ATOM     27  O   UNL d   1      27.902  15.779 -23.332  0.00  0.00    -0.295 OA
ATOM     28  C   UNL d   1      27.134  16.079 -23.375  0.00  0.00     0.185 C 
ENDBRANCH  25  27
ENDBRANCH  24  25
ENDBRANCH  23  24
ENDBRANCH   2  23
TORSDOF 6
ENDMDL
MODEL 2
REMARK VINA RESULT:       1.2      2.335      4.799
REMARK  6 active torsions:
REMARK  status: ('A' for Active; 'I' for Inactive)
REMARK    1  A    between atoms: C_8  and  C_1 
REMARK    2  A    between atoms: S_10  and  C_2 
REMARK    3  A    between atoms: C_7  and  C_4 
REMARK    4  A    between atoms: C_23  and  S_10 
REMARK    5  A    between atoms: C_16  and  C_23 
REMARK    6  A    between atoms: O_25  and  C_16 
ROOT
ATOM      1  C   UNL d   1      32.789  19.066 -22.303  0.00  0.00     0.045 A 
ATOM      2  C   UNL d   1      32.976  19.884 -22.115  0.00  0.00     0.112 A 
ATOM      3  C   UNL d   1      32.911  19.377 -23.699  0.00  0.00     0.057 A 
ATOM      4  C   UNL d   1      32.761  18.832 -23.093  0.00  0.00     0.008 A 
ATOM      5  C   UNL d   1      33.091  20.164 -23.517  0.00  0.00     0.085 A 
ATOM      6  N   UNL d   1      33.123  20.414 -22.728  0.00  0.00    -0.239 NA
ATOM      7  C   UNL d   1      32.878  19.125 -24.482  0.00  0.00     0.197 A 
ATOM      8  O   UNL d   1      32.697  18.333 -24.664  0.00  0.00    -0.286 OA
ATOM      9  C   UNL d   1      33.241  20.707 -24.117  0.00  0.00     0.019 A 
ATOM     10  C   UNL d   1      33.026  19.655 -25.097  0.00  0.00     0.042 A 
ATOM     11  C   UNL d   1      33.213  20.473 -24.908  0.00  0.00     0.005 A 
ENDROOT
BRANCH   4  12
ATOM     12  C   UNL d   1      32.579  18.040 -23.275  0.00  0.00     0.002 A 
ATOM     13  C   UNL d   1      31.810  17.757 -23.194  0.00  0.00     0.026 A 
ATOM     14  C   UNL d   1      31.631  16.972 -23.375  0.00  0.00     0.119 A 
ATOM     15  O   UNL d   1      30.921  16.535 -23.349  0.00  0.00    -0.300 OA
ATOM     16  C   UNL d   1      32.218  16.463 -23.639  0.00  0.00     0.119 A 
ATOM     17  C   UNL d   1      31.081  15.780 -23.592  0.00  0.00     0.304 A 
ATOM     18  O   UNL d   1      31.867  15.729 -23.770  0.00  0.00    -0.300 OA
ATOM     19  C   UNL d   1      33.034  16.755 -23.728  0.00  0.00     0.026 A 
ATOM     20  C   UNL d   1      33.192  17.539 -23.542  0.00  0.00     0.002 A 
ENDBRANCH   4  12
BRANCH   1  21
ATOM     21  C   UNL d   1      32.630  18.487 -21.694  0.00  0.00     0.124 C 
ATOM     22  N   UNL d   1      33.236  18.221 -21.216  0.00  0.00    -0.146 N 
ENDBRANCH   1  21
BRANCH   2  23
ATOM     23  S   UNL d   1      33.014  20.165 -21.307  0.00  0.00    -0.062 SA
BRANCH  23  24
ATOM     24  C   UNL d   1      33.155  20.956 -21.159  0.00  0.00     0.105 C 
BRANCH  24  25
ATOM     25  C   UNL d   1      32.769  21.332 -20.536  0.00  0.00     0.303 C 
ATOM     26  O   UNL d   1      32.942  21.126 -19.759  0.00  0.00    -0.259 OA
BRANCH  25  27
ATOM     27  O   UNL d   1      32.209  21.913 -20.691  0.00  0.00    -0.295 OA
ATOM     28  C   UNL d   1      31.998  22.466 -20.115  0.00  0.00     0.185 C 
ENDBRANCH  25  27
ENDBRANCH  24  25
ENDBRANCH  23  24
ENDBRANCH   2  23
TORSDOF 6
ENDMDL
MODEL 3
REMARK VINA RESULT:       1.6      2.689      5.459
REMARK  6 active torsions:
REMARK  status: ('A' for Active; 'I' for Inactive)
REMARK    1  A    between atoms: C_8  and  C_1 
REMARK    2  A    between atoms: S_10  and  C_2 
REMARK    3  A    between atoms: C_7  and  C_4 
REMARK    4  A    between atoms: C_23  and  S_10 
REMARK    5  A    between atoms: C_16  and  C_23 
REMARK    6  A    between atoms: O_25  and  C_16 
ROOT
ATOM      1  C   UNL d   1      32.780  20.242 -22.027  0.00  0.00     0.045 A 
ATOM      2  C   UNL d   1      32.936  21.069 -21.848  0.00  0.00     0.112 A 
ATOM      3  C   UNL d   1      32.928  20.534 -23.424  0.00  0.00     0.057 A 
ATOM      4  C   UNL d   1      32.780  19.994 -22.813  0.00  0.00     0.008 A 
ATOM      5  C   UNL d   1      33.078  21.329 -23.252  0.00  0.00     0.085 A 
ATOM      6  N   UNL d   1      33.081  21.593 -22.468  0.00  0.00    -0.239 NA
ATOM      7  C   UNL d   1      32.923  20.267 -24.203  0.00  0.00     0.197 A 
ATOM      8  O   UNL d   1      32.772  19.468 -24.376  0.00  0.00    -0.286 OA
ATOM      9  C   UNL d   1      33.225  21.867 -23.858  0.00  0.00     0.019 A 
ATOM     10  C   UNL d   1      33.068  20.792 -24.824  0.00  0.00     0.042 A 
ATOM     11  C   UNL d   1      33.224  21.619 -24.645  0.00  0.00     0.005 A 
ENDROOT
BRANCH   4  12
ATOM     12  C   UNL d   1      32.629  19.194 -22.986  0.00  0.00     0.002 A 
ATOM     13  C   UNL d   1      31.890  18.958 -23.264  0.00  0.00     0.026 A 
ATOM     14  C   UNL d   1      31.740  18.164 -23.435  0.00  0.00     0.119 A 
ATOM     15  O   UNL d   1      31.064  17.766 -23.717  0.00  0.00    -0.300 OA
ATOM     16  C   UNL d   1      32.328  17.601 -23.330  0.00  0.00     0.119 A 
ATOM     17  C   UNL d   1      31.244  16.979 -23.780  0.00  0.00     0.304 A 
ATOM     18  O   UNL d   1      32.010  16.871 -23.547  0.00  0.00    -0.300 OA
ATOM     19  C   UNL d   1      33.111  17.842 -23.037  0.00  0.00     0.026 A 
ATOM     20  C   UNL d   1      33.240  18.636 -22.873  0.00  0.00     0.002 A 
ENDBRANCH   4  12
BRANCH   1  21
ATOM     21  C   UNL d   1      32.625  19.668 -21.412  0.00  0.00     0.124 C 
ATOM     22  N   UNL d   1      32.786  19.852 -20.633  0.00  0.00    -0.146 N 
ENDBRANCH   1  21
BRANCH   2  23
ATOM     23  S   UNL d   1      32.945  21.365 -21.045  0.00  0.00    -0.062 SA
BRANCH  23  24
ATOM     24  C   UNL d   1      32.920  22.170 -20.909  0.00  0.00     0.105 C 
BRANCH  24  25
ATOM     25  C   UNL d   1      33.014  22.459 -20.143  0.00  0.00     0.303 C 
ATOM     26  O   UNL d   1      32.956  21.950 -19.500  0.00  0.00    -0.259 OA
BRANCH  25  27
ATOM     27  O   UNL d   1      33.166  23.257 -20.021  0.00  0.00    -0.295 OA
ATOM     28  C   UNL d   1      33.000  23.617 -19.297  0.00  0.00     0.185 C 
ENDBRANCH  25  27
ENDBRANCH  24  25
ENDBRANCH  23  24
ENDBRANCH   2  23
TORSDOF 6
ENDMDL
MODEL 4
REMARK VINA RESULT:       1.6      2.817      5.078
REMARK  6 active torsions:
REMARK  status: ('A' for Active; 'I' for Inactive)
REMARK    1  A    between atoms: C_8  and  C_1 
REMARK    2  A    between atoms: S_10  and  C_2 
REMARK    3  A    between atoms: C_7  and  C_4 
REMARK    4  A    between atoms: C_23  and  S_10 
REMARK    5  A    between atoms: C_16  and  C_23 
REMARK    6  A    between atoms: O_25  and  C_16 
ROOT
ATOM      1  C   UNL d   1      32.905  20.729 -22.574  0.00  0.00     0.045 A 
ATOM      2  C   UNL d   1      33.044  20.291 -23.301  0.00  0.00     0.112 A 
ATOM      3  C   UNL d   1      32.996  21.955 -23.315  0.00  0.00     0.057 A 
ATOM      4  C   UNL d   1      32.885  21.553 -22.599  0.00  0.00     0.008 A 
ATOM      5  C   UNL d   1      33.130  21.534 -24.014  0.00  0.00     0.085 A 
ATOM      6  N   UNL d   1      33.153  20.706 -24.005  0.00  0.00    -0.239 NA
ATOM      7  C   UNL d   1      32.972  22.778 -23.320  0.00  0.00     0.197 A 
ATOM      8  O   UNL d   1      32.838  23.202 -22.616  0.00  0.00    -0.286 OA
ATOM      9  C   UNL d   1      33.241  21.931 -24.726  0.00  0.00     0.019 A 
ATOM     10  C   UNL d   1      33.082  23.194 -24.025  0.00  0.00     0.042 A 
ATOM     11  C   UNL d   1      33.221  22.756 -24.752  0.00  0.00     0.005 A 
ENDROOT
BRANCH   4  12
ATOM     12  C   UNL d   1      32.750  21.977 -21.895  0.00  0.00     0.002 A 
ATOM     13  C   UNL d   1      33.102  21.740 -21.190  0.00  0.00     0.026 A 
ATOM     14  C   UNL d   1      32.969  22.160 -20.491  0.00  0.00     0.119 A 
ATOM     15  O   UNL d   1      33.241  22.057 -19.710  0.00  0.00    -0.300 OA
ATOM     16  C   UNL d   1      32.483  22.822 -20.494  0.00  0.00     0.119 A 
ATOM     17  C   UNL d   1      32.924  22.645 -19.253  0.00  0.00     0.304 A 
ATOM     18  O   UNL d   1      32.462  23.114 -19.723  0.00  0.00    -0.300 OA
ATOM     19  C   UNL d   1      32.107  23.080 -21.235  0.00  0.00     0.026 A 
ATOM     20  C   UNL d   1      32.253  22.648 -21.919  0.00  0.00     0.002 A 
ENDBRANCH   4  12
BRANCH   1  21
ATOM     21  C   UNL d   1      32.787  20.335 -21.824  0.00  0.00     0.124 C 
ATOM     22  N   UNL d   1      33.230  19.676 -21.636  0.00  0.00    -0.146 N 
ENDBRANCH   1  21
BRANCH   2  23
ATOM     23  S   UNL d   1      33.072  19.436 -23.316  0.00  0.00    -0.062 SA
BRANCH  23  24
ATOM     24  C   UNL d   1      32.658  19.026 -23.889  0.00  0.00     0.105 C 
BRANCH  24  25
ATOM     25  C   UNL d   1      32.660  18.202 -23.885  0.00  0.00     0.303 C 
ATOM     26  O   UNL d   1      33.217  17.789 -24.325  0.00  0.00    -0.259 OA
BRANCH  25  27
ATOM     27  O   UNL d   1      32.104  17.792 -23.440  0.00  0.00    -0.295 OA
ATOM     28  C   UNL d   1      32.191  16.986 -23.287  0.00  0.00     0.185 C 
ENDBRANCH  25  27
ENDBRANCH  24  25
ENDBRANCH  23  24
ENDBRANCH   2  23
TORSDOF 6
ENDMDL
