MODEL 1
REMARK VINA RESULT:      52.0      0.000      0.000
REMARK  6 active torsions:
REMARK  status: ('A' for Active; 'I' for Inactive)
REMARK    1  A    between atoms: C_4  and  N_1 
REMARK    2  A    between atoms: C_3  and  C_2 
REMARK    3  A    between atoms: S_6  and  C_11 
REMARK    4  A    between atoms: C_7  and  S_6 
REMARK    5  A    between atoms: C_8  and  C_10 
REMARK    6  A    between atoms: C_11  and  C_8 
ROOT
ATOM      1  C   UNL d   1     -49.899  26.525  33.831  0.00  0.00     0.202 C 
ATOM      2  O   UNL d   1     -49.389  26.090  33.338  0.00  0.00    -0.286 OA
ENDROOT
BRANCH   1   3
ATOM      3  C   UNL d   1     -49.584  27.059  34.378  0.00  0.00     0.040 A 
ATOM      4  C   UNL d   1     -49.668  26.920  35.187  0.00  0.00     0.005 A 
ATOM      5  C   UNL d   1     -49.347  27.464  35.712  0.00  0.00     0.024 A 
ATOM      6  C   UNL d   1     -48.946  28.142  35.446  0.00  0.00     0.127 A 
ATOM      7  C   UNL d   1     -48.868  28.272  34.637  0.00  0.00     0.024 A 
ATOM      8  C   UNL d   1     -49.190  27.725  34.117  0.00  0.00     0.005 A 
BRANCH   6   9
ATOM      9  N   UNL d   1     -48.615  28.703  35.984  0.00  0.00    -0.114 N 
ATOM     10  O   UNL d   1     -48.444  29.461  35.710  0.00  0.00    -0.532 OA
ATOM     11  O   UNL d   1     -48.471  28.474  36.778  0.00  0.00    -0.532 OA
ENDBRANCH   6   9
ENDBRANCH   1   3
BRANCH   1  12
ATOM     12  C   UNL d   1     -50.706  26.427  33.776  0.00  0.00     0.077 C 
BRANCH  12  13
ATOM     13  S   UNL d   1     -51.029  25.775  33.369  0.00  0.00    -0.083 SA
BRANCH  13  14
ATOM     14  C   UNL d   1     -51.866  25.639  33.364  0.00  0.00     0.035 A 
ATOM     15  C   UNL d   1     -52.141  24.865  33.405  0.00  0.00     0.070 A 
ATOM     16  C   UNL d   1     -52.967  24.732  33.400  0.00  0.00     0.007 A 
ATOM     17  C   UNL d   1     -53.497  25.375  33.354  0.00  0.00     0.000 A 
ATOM     18  C   UNL d   1     -53.201  26.135  33.315  0.00  0.00     0.001 A 
ATOM     19  C   UNL d   1     -52.386  26.267  33.319  0.00  0.00     0.007 A 
BRANCH  15  20
ATOM     20  C   UNL d   1     -51.605  24.208  33.452  0.00  0.00     0.211 C 
ATOM     21  O   UNL d   1     -51.888  23.438  33.309  0.00  0.00    -0.644 OA
ATOM     22  O   UNL d   1     -50.807  24.323  33.637  0.00  0.00    -0.644 OA
ENDBRANCH  15  20
ENDBRANCH  13  14
ENDBRANCH  12  13
ENDBRANCH   1  12
TORSDOF 6
ENDMDL
MODEL 2
REMARK VINA RESULT:      54.6      1.529      2.284
REMARK  6 active torsions:
REMARK  status: ('A' for Active; 'I' for Inactive)
REMARK    1  A    between atoms: C_4  and  N_1 
REMARK    2  A    between atoms: C_3  and  C_2 
REMARK    3  A    between atoms: S_6  and  C_11 
REMARK    4  A    between atoms: C_7  and  S_6 
REMARK    5  A    between atoms: C_8  and  C_10 
REMARK    6  A    between atoms: C_11  and  C_8 
ROOT
ATOM      1  C   UNL d   1     -48.631  27.469  34.234  0.00  0.00     0.202 C 
ATOM      2  O   UNL d   1     -48.165  27.197  33.602  0.00  0.00    -0.286 OA
ENDROOT
BRANCH   1   3
ATOM      3  C   UNL d   1     -48.348  28.075  34.722  0.00  0.00     0.040 A 
ATOM      4  C   UNL d   1     -47.604  28.405  34.582  0.00  0.00     0.005 A 
ATOM      5  C   UNL d   1     -47.344  29.005  35.078  0.00  0.00     0.024 A 
ATOM      6  C   UNL d   1     -47.809  29.281  35.709  0.00  0.00     0.127 A 
ATOM      7  C   UNL d   1     -48.549  28.946  35.840  0.00  0.00     0.024 A 
ATOM      8  C   UNL d   1     -48.805  28.346  35.341  0.00  0.00     0.005 A 
BRANCH   6   9
ATOM      9  N   UNL d   1     -47.544  29.899  36.221  0.00  0.00    -0.114 N 
ATOM     10  O   UNL d   1     -47.462  29.738  37.025  0.00  0.00    -0.532 OA
ATOM     11  O   UNL d   1     -47.372  30.654  35.898  0.00  0.00    -0.532 OA
ENDBRANCH   6   9
ENDBRANCH   1   3
BRANCH   1  12
ATOM     12  C   UNL d   1     -49.364  27.142  34.376  0.00  0.00     0.077 C 
BRANCH  12  13
ATOM     13  S   UNL d   1     -49.906  27.029  33.753  0.00  0.00    -0.083 SA
BRANCH  13  14
ATOM     14  C   UNL d   1     -50.238  26.264  33.602  0.00  0.00     0.035 A 
ATOM     15  C   UNL d   1     -51.053  26.195  33.519  0.00  0.00     0.070 A 
ATOM     16  C   UNL d   1     -51.380  25.439  33.369  0.00  0.00     0.007 A 
ATOM     17  C   UNL d   1     -50.883  24.771  33.306  0.00  0.00     0.000 A 
ATOM     18  C   UNL d   1     -50.076  24.863  33.392  0.00  0.00     0.001 A 
ATOM     19  C   UNL d   1     -49.754  25.609  33.539  0.00  0.00     0.007 A 
BRANCH  15  20
ATOM     20  C   UNL d   1     -51.562  26.872  33.583  0.00  0.00     0.211 C 
ATOM     21  O   UNL d   1     -51.296  27.612  33.306  0.00  0.00    -0.644 OA
ATOM     22  O   UNL d   1     -52.316  26.807  33.915  0.00  0.00    -0.644 OA
ENDBRANCH  15  20
ENDBRANCH  13  14
ENDBRANCH  12  13
ENDBRANCH   1  12
TORSDOF 6
ENDMDL
