MODEL 1
REMARK VINA RESULT:      74.6      0.000      0.000
REMARK  7 active torsions:
REMARK  status: ('A' for Active; 'I' for Inactive)
REMARK    1  A    between atoms: C_7  and  N_1 
REMARK    2  A    between atoms: C_6  and  C_4 
REMARK    3  A    between atoms: C_9  and  C_6 
REMARK    4  A    between atoms: C_8  and  C_7 
REMARK       I    between atoms: N_12  and  C_8 
REMARK    5  A    between atoms: C_10  and  C_9 
REMARK    6  A    between atoms: C_16  and  C_10 
REMARK    7  A    between atoms: C_15  and  N_12 
ROOT
ATOM      1  N   UNL d   1      60.808  48.898  50.911  0.00  0.00    -0.230 N 
ATOM      2  C   UNL d   1      61.051  48.666  51.668  0.00  0.00     0.299 A 
ATOM      3  C   UNL d   1      60.978  48.281  50.391  0.00  0.00     0.274 A 
ATOM      4  C   UNL d   1      61.326  47.666  50.825  0.00  0.00     0.090 A 
ATOM      5  S   UNL d   1      61.367  47.911  51.611  0.00  0.00    -0.022 SA
ATOM      6  O   UNL d   1      60.982  49.122  52.354  0.00  0.00    -0.259 OA
ATOM      7  O   UNL d   1      60.828  48.276  49.575  0.00  0.00    -0.266 OA
ENDROOT
BRANCH   1   8
ATOM      8  C   UNL d   1      60.459  49.616  50.705  0.00  0.00     0.149 C 
BRANCH   8   9
ATOM      9  C   UNL d   1      59.710  49.632  50.358  0.00  0.00     0.297 C 
ATOM     10  N   UNL d   1      59.040  49.571  50.833  0.00  0.00    -0.207 NA
ATOM     11  O   UNL d   1      59.638  49.708  49.543  0.00  0.00    -0.264 OA
BRANCH  10  12
ATOM     12  C   UNL d   1      58.287  49.587  50.484  0.00  0.00     0.085 A 
ATOM     13  C   UNL d   1      58.220  49.616  49.659  0.00  0.00     0.022 A 
ATOM     14  C   UNL d   1      57.474  49.632  49.318  0.00  0.00     0.044 A 
ATOM     15  C   UNL d   1      56.792  49.618  49.788  0.00  0.00     0.196 A 
ATOM     16  C   UNL d   1      56.868  49.589  50.614  0.00  0.00     0.044 A 
ATOM     17  O   UNL d   1      56.047  49.634  49.440  0.00  0.00    -0.287 OA
ATOM     18  C   UNL d   1      57.617  49.573  50.962  0.00  0.00     0.022 A 
ENDBRANCH  10  12
ENDBRANCH   8   9
ENDBRANCH   1   8
BRANCH   4  19
ATOM     19  C   UNL d   1      61.580  46.949  50.522  0.00  0.00     0.011 C 
BRANCH  19  20
ATOM     20  C   UNL d   1      61.118  46.274  50.618  0.00  0.00     0.001 C 
ATOM     21  C   UNL d   1      60.712  46.146  51.330  0.00  0.00     0.000 C 
BRANCH  20  22
ATOM     22  C   UNL d   1      61.054  45.720  50.010  0.00  0.00     0.000 C 
BRANCH  22  23
ATOM     23  C   UNL d   1      61.513  45.038  50.016  0.00  0.00     0.000 A 
ATOM     24  C   UNL d   1      61.391  44.461  50.608  0.00  0.00     0.000 A 
ATOM     25  C   UNL d   1      61.846  43.781  50.615  0.00  0.00     0.000 A 
ATOM     26  C   UNL d   1      62.425  43.670  50.036  0.00  0.00     0.000 A 
ATOM     27  C   UNL d   1      62.547  44.238  49.452  0.00  0.00     0.000 A 
ATOM     28  C   UNL d   1      62.089  44.917  49.448  0.00  0.00     0.000 A 
ENDBRANCH  22  23
ENDBRANCH  20  22
ENDBRANCH  19  20
ENDBRANCH   4  19
TORSDOF 7
ENDMDL
MODEL 2
REMARK VINA RESULT:      77.5      0.679      1.038
REMARK  7 active torsions:
REMARK  status: ('A' for Active; 'I' for Inactive)
REMARK    1  A    between atoms: C_7  and  N_1 
REMARK    2  A    between atoms: C_6  and  C_4 
REMARK    3  A    between atoms: C_9  and  C_6 
REMARK    4  A    between atoms: C_8  and  C_7 
REMARK       I    between atoms: N_12  and  C_8 
REMARK    5  A    between atoms: C_10  and  C_9 
REMARK    6  A    between atoms: C_16  and  C_10 
REMARK    7  A    between atoms: C_15  and  N_12 
ROOT
ATOM      1  N   UNL d   1      60.761  48.815  50.828  0.00  0.00    -0.230 N 
ATOM      2  C   UNL d   1      60.833  48.282  51.457  0.00  0.00     0.299 A 
ATOM      3  C   UNL d   1      61.223  48.534  50.205  0.00  0.00     0.274 A 
ATOM      4  C   UNL d   1      61.582  47.828  50.448  0.00  0.00     0.090 A 
ATOM      5  S   UNL d   1      61.337  47.679  51.221  0.00  0.00    -0.022 SA
ATOM      6  O   UNL d   1      60.459  48.353  52.191  0.00  0.00    -0.259 OA
ATOM      7  O   UNL d   1      61.314  48.896  49.463  0.00  0.00    -0.266 OA
ENDROOT
BRANCH   1   8
ATOM      8  C   UNL d   1      60.309  49.504  50.817  0.00  0.00     0.149 C 
BRANCH   8   9
ATOM      9  C   UNL d   1      59.604  49.535  50.388  0.00  0.00     0.297 C 
ATOM     10  N   UNL d   1      58.885  49.532  50.789  0.00  0.00    -0.207 NA
ATOM     11  O   UNL d   1      59.624  49.570  49.568  0.00  0.00    -0.264 OA
BRANCH  10  12
ATOM     12  C   UNL d   1      58.176  49.563  50.360  0.00  0.00     0.085 A 
ATOM     13  C   UNL d   1      57.457  49.649  50.763  0.00  0.00     0.022 A 
ATOM     14  C   UNL d   1      56.758  49.680  50.335  0.00  0.00     0.044 A 
ATOM     15  C   UNL d   1      56.764  49.625  49.508  0.00  0.00     0.196 A 
ATOM     16  C   UNL d   1      57.488  49.539  49.112  0.00  0.00     0.044 A 
ATOM     17  O   UNL d   1      56.059  49.656  49.085  0.00  0.00    -0.287 OA
ATOM     18  C   UNL d   1      58.195  49.508  49.538  0.00  0.00     0.022 A 
ENDBRANCH  10  12
ENDBRANCH   8   9
ENDBRANCH   1   8
BRANCH   4  19
ATOM     19  C   UNL d   1      62.088  47.366  49.998  0.00  0.00     0.011 C 
BRANCH  19  20
ATOM     20  C   UNL d   1      61.865  46.605  49.777  0.00  0.00     0.001 C 
ATOM     21  C   UNL d   1      61.233  46.493  49.252  0.00  0.00     0.000 C 
BRANCH  20  22
ATOM     22  C   UNL d   1      62.264  45.948  50.075  0.00  0.00     0.000 C 
BRANCH  22  23
ATOM     23  C   UNL d   1      62.043  45.188  49.852  0.00  0.00     0.000 A 
ATOM     24  C   UNL d   1      62.171  44.932  49.067  0.00  0.00     0.000 A 
ATOM     25  C   UNL d   1      61.951  44.176  48.844  0.00  0.00     0.000 A 
ATOM     26  C   UNL d   1      61.604  43.670  49.397  0.00  0.00     0.000 A 
ATOM     27  C   UNL d   1      61.478  43.921  50.171  0.00  0.00     0.000 A 
ATOM     28  C   UNL d   1      61.698  44.678  50.392  0.00  0.00     0.000 A 
ENDBRANCH  22  23
ENDBRANCH  20  22
ENDBRANCH  19  20
ENDBRANCH   4  19
TORSDOF 7
ENDMDL
