MODEL 1
REMARK VINA RESULT:      19.5      0.000      0.000
REMARK  3 active torsions:
REMARK  status: ('A' for Active; 'I' for Inactive)
REMARK    1  A    between atoms: C_3  and  C_1 
REMARK       I    between atoms: N_6  and  C_3 
REMARK    2  A    between atoms: C_12  and  N_5 
REMARK    3  A    between atoms: C_8  and  N_6 
ROOT
ATOM      1  C   UNL d   1     -55.318-102.270 -37.241  0.00  0.00     0.348 C 
ATOM      2  N   UNL d   1     -55.163-101.485 -37.012  0.00  0.00    -0.362 NA
ATOM      3  O   UNL d   1     -55.399-102.880 -36.651  0.00  0.00    -0.249 OA
ENDROOT
BRANCH   1   4
ATOM      4  C   UNL d   1     -55.391-102.450 -38.053  0.00  0.00     0.173 A 
ATOM      5  N   UNL d   1     -54.792-102.367 -38.626  0.00  0.00    -0.159 NA
ATOM      6  N   UNL d   1     -55.113-102.611 -39.355  0.00  0.00    -0.227 N 
ATOM      7  C   UNL d   1     -55.893-102.840 -39.230  0.00  0.00     0.102 A 
ATOM      8  C   UNL d   1     -56.070-102.742 -38.426  0.00  0.00     0.048 A 
BRANCH   6   9
ATOM      9  C   UNL d   1     -54.712-102.621 -40.078  0.00  0.00     0.101 C 
ATOM     10  C   UNL d   1     -54.758-102.182 -40.774  0.00  0.00     0.022 C 
ENDBRANCH   6   9
ENDBRANCH   1   4
BRANCH   2  11
ATOM     11  C   UNL d   1     -55.012-100.744 -36.674  0.00  0.00     0.146 A 
ATOM     12  C   UNL d   1     -54.862-100.678 -35.854  0.00  0.00     0.087 A 
ATOM     13 CL   UNL d   1     -54.866-101.364 -35.379  0.00  0.00    -0.080 Cl
ATOM     14  C   UNL d   1     -54.714 -99.953 -35.524  0.00  0.00     0.014 A 
ATOM     15  C   UNL d   1     -54.712 -99.281 -36.001  0.00  0.00     0.001 A 
ATOM     16  C   UNL d   1     -54.859 -99.337 -36.811  0.00  0.00     0.003 A 
ATOM     17  C   UNL d   1     -55.010-100.072 -37.151  0.00  0.00     0.033 A 
ENDBRANCH   2  11
TORSDOF 3
ENDMDL
