MODEL 1
REMARK VINA RESULT:      14.7      0.000      0.000
REMARK  3 active torsions:
REMARK  status: ('A' for Active; 'I' for Inactive)
REMARK    1  A    between atoms: S_4  and  C_1 
REMARK    2  A    between atoms: N_3  and  C_2 
REMARK    3  A    between atoms: C_5  and  S_4 
ROOT
ATOM      1  C   UNL d   1      13.881  11.955  -1.877  0.00  0.00     0.139 A 
ATOM      2  C   UNL d   1      14.070  12.125  -1.091  0.00  0.00     0.188 A 
ATOM      3  N   UNL d   1      14.518  11.780  -2.399  0.00  0.00    -0.216 NA
ATOM      4  C   UNL d   1      14.805  12.133  -0.803  0.00  0.00     0.209 A 
ATOM      5  N   UNL d   1      15.474  11.960  -1.305  0.00  0.00    -0.202 NA
ATOM      6  C   UNL d   1      15.299  11.783  -2.120  0.00  0.00     0.201 A 
ATOM      7  N   UNL d   1      15.058  12.298  -0.014  0.00  0.00    -0.125 N 
ENDROOT
BRANCH   1   8
ATOM      8  S   UNL d   1      13.162  11.946  -2.160  0.00  0.00    -0.047 SA
BRANCH   8   9
ATOM      9  C   UNL d   1      13.176  12.295  -3.038  0.00  0.00     0.115 A 
ATOM     10  N   UNL d   1      13.236  13.135  -3.088  0.00  0.00    -0.217 NA
ATOM     11  C   UNL d   1      13.252  13.492  -3.846  0.00  0.00     0.200 A 
ATOM     12  N   UNL d   1      13.210  13.036  -4.524  0.00  0.00    -0.224 NA
ATOM     13  C   UNL d   1      13.150  12.192  -4.467  0.00  0.00     0.085 A 
ATOM     14  C   UNL d   1      13.133  11.832  -3.732  0.00  0.00     0.045 A 
ATOM     15  C   UNL d   1      13.115  11.820  -5.055  0.00  0.00     0.021 C 
ENDBRANCH   8   9
ENDBRANCH   1   8
BRANCH   2  16
ATOM     16  N   UNL d   1      13.429  12.299  -0.572  0.00  0.00    -0.108 N 
ATOM     17  O   UNL d   1      12.790  11.805  -0.425  0.00  0.00    -0.532 OA
ATOM     18  O   UNL d   1      13.384  13.016  -0.143  0.00  0.00    -0.532 OA
ENDBRANCH   2  16
TORSDOF 3
ENDMDL
