MODEL 1
REMARK VINA RESULT:      55.9      0.000      0.000
REMARK  5 active torsions:
REMARK  status: ('A' for Active; 'I' for Inactive)
REMARK    1  A    between atoms: N_5  and  S_1 
REMARK    2  A    between atoms: C_9  and  S_1 
REMARK    3  A    between atoms: C_6  and  C_2 
REMARK    4  A    between atoms: C_4  and  N_5 
REMARK    5  A    between atoms: O_20  and  C_17 
ROOT
ATOM      1  S   UNL d   1      61.239  47.953  50.444  0.00  0.00     0.287 S 
ATOM      2  O   UNL d   1      61.222  47.715  51.245  0.00  0.00    -0.198 OA
ATOM      3  O   UNL d   1      61.258  48.191  49.631  0.00  0.00    -0.198 OA
ENDROOT
BRANCH   1   4
ATOM      4  N   UNL d   1      61.117  48.755  50.672  0.00  0.00    -0.132 NA
BRANCH   4   5
ATOM      5  C   UNL d   1      60.351  49.043  50.821  0.00  0.00     0.206 A 
ATOM      6  N   UNL d   1      59.628  49.030  50.365  0.00  0.00    -0.216 NA
ATOM      7  C   UNL d   1      59.053  49.414  50.829  0.00  0.00     0.161 A 
ATOM      8  C   UNL d   1      59.378  49.653  51.525  0.00  0.00     0.061 A 
ATOM      9  S   UNL d   1      60.165  49.440  51.545  0.00  0.00    -0.046 SA
BRANCH   7  10
ATOM     10  C   UNL d   1      58.264  49.542  50.629  0.00  0.00     0.436 C 
ATOM     11  F   UNL d   1      57.458  49.663  50.483  0.00  0.00    -0.165 F 
ATOM     12  F   UNL d   1      58.036  49.705  49.787  0.00  0.00    -0.165 F 
ATOM     13  F   UNL d   1      57.726  49.515  51.199  0.00  0.00    -0.165 F 
ENDBRANCH   7  10
ENDBRANCH   4   5
ENDBRANCH   1   4
BRANCH   1  14
ATOM     14  C   UNL d   1      61.363  47.150  50.204  0.00  0.00     0.105 A 
ATOM     15  C   UNL d   1      61.816  47.014  49.541  0.00  0.00     0.015 A 
ATOM     16  C   UNL d   1      61.947  46.248  49.293  0.00  0.00     0.025 A 
ATOM     17  C   UNL d   1      61.625  45.607  49.707  0.00  0.00     0.094 A 
ATOM     18  C   UNL d   1      61.170  45.734  50.374  0.00  0.00     0.025 A 
ATOM     19  C   UNL d   1      61.033  46.491  50.629  0.00  0.00     0.015 A 
BRANCH  17  20
ATOM     20  O   UNL d   1      61.746  44.806  49.471  0.00  0.00    -0.328 OA
ATOM     21  C   UNL d   1      61.084  44.319  49.290  0.00  0.00     0.181 C 
ENDBRANCH  17  20
ENDBRANCH   1  14
TORSDOF 5
ENDMDL
