MODEL 1
REMARK VINA RESULT:      -8.6      0.000      0.000
REMARK  6 active torsions:
REMARK  status: ('A' for Active; 'I' for Inactive)
REMARK    1  A    between atoms: C_9  and  C_2 
REMARK    2  A    between atoms: N_12  and  C_6 
REMARK    3  A    between atoms: N_11  and  C_20 
REMARK    4  A    between atoms: C_19  and  N_12 
REMARK    5  A    between atoms: O_21  and  C_16 
REMARK    6  A    between atoms: C_20  and  C_19 
ROOT
ATOM      1  C   UNL d   1      53.426  34.258  54.403  0.00  0.00     0.060 A 
ATOM      2  C   UNL d   1      52.864  34.738  54.071  0.00  0.00     0.011 A 
ATOM      3  C   UNL d   1      52.969  35.521  54.378  0.00  0.00     0.037 A 
ATOM      4  C   UNL d   1      53.900  34.726  54.926  0.00  0.00     0.116 A 
ATOM      5  S   UNL d   1      53.609  35.511  54.904  0.00  0.00    -0.067 SA
ATOM      6  C   UNL d   1      53.594  33.462  54.319  0.00  0.00     0.166 A 
ATOM      7  N   UNL d   1      54.528  34.388  55.351  0.00  0.00    -0.217 NA
ATOM      8  N   UNL d   1      54.206  33.136  54.735  0.00  0.00    -0.205 NA
ATOM      9  C   UNL d   1      54.688  33.605  55.265  0.00  0.00     0.201 A 
ENDROOT
BRANCH   6  10
ATOM     10  N   UNL d   1      53.146  32.980  53.814  0.00  0.00    -0.224 NA
BRANCH  10  11
ATOM     11  C   UNL d   1      53.155  32.163  53.916  0.00  0.00     0.120 C 
BRANCH  11  12
ATOM     12  C   UNL d   1      53.345  31.659  53.276  0.00  0.00     0.101 C 
BRANCH  12  13
ATOM     13  N   UNL d   1      53.145  30.851  53.314  0.00  0.00    -0.298 N 
ATOM     14  C   UNL d   1      52.552  30.578  52.865  0.00  0.00     0.107 A 
ATOM     15  C   UNL d   1      52.362  29.768  52.913  0.00  0.00     0.142 A 
ATOM     16  O   UNL d   1      52.775  29.290  53.402  0.00  0.00    -0.300 OA
ATOM     17  C   UNL d   1      53.365  29.564  53.848  0.00  0.00     0.142 A 
ATOM     18  C   UNL d   1      53.572  30.353  53.821  0.00  0.00     0.107 A 
ENDBRANCH  12  13
ENDBRANCH  11  12
ENDBRANCH  10  11
ENDBRANCH   6  10
BRANCH   2  19
ATOM     19  C   UNL d   1      52.318  34.476  53.546  0.00  0.00     0.001 A 
ATOM     20  C   UNL d   1      51.605  34.154  53.796  0.00  0.00     0.002 A 
ATOM     21  C   UNL d   1      51.044  33.885  53.260  0.00  0.00     0.024 A 
ATOM     22  C   UNL d   1      51.183  33.930  52.448  0.00  0.00     0.094 A 
ATOM     23  C   UNL d   1      51.920  34.262  52.202  0.00  0.00     0.024 A 
ATOM     24  C   UNL d   1      52.477  34.530  52.738  0.00  0.00     0.002 A 
BRANCH  22  25
ATOM     25  O   UNL d   1      50.750  33.720  51.945  0.00  0.00    -0.328 OA
ATOM     26  C   UNL d   1      50.054  34.155  51.747  0.00  0.00     0.181 C 
ENDBRANCH  22  25
ENDBRANCH   2  19
TORSDOF 6
ENDMDL
MODEL 2
REMARK VINA RESULT:      -8.1      1.105      3.481
REMARK  6 active torsions:
REMARK  status: ('A' for Active; 'I' for Inactive)
REMARK    1  A    between atoms: C_9  and  C_2 
REMARK    2  A    between atoms: N_12  and  C_6 
REMARK    3  A    between atoms: N_11  and  C_20 
REMARK    4  A    between atoms: C_19  and  N_12 
REMARK    5  A    between atoms: O_21  and  C_16 
REMARK    6  A    between atoms: C_20  and  C_19 
ROOT
ATOM      1  C   UNL d   1      53.744  33.749  54.544  0.00  0.00     0.060 A 
ATOM      2  C   UNL d   1      54.103  33.025  54.500  0.00  0.00     0.011 A 
ATOM      3  C   UNL d   1      54.813  33.052  54.963  0.00  0.00     0.037 A 
ATOM      4  C   UNL d   1      54.218  34.252  55.036  0.00  0.00     0.116 A 
ATOM      5  S   UNL d   1      54.881  33.810  55.292  0.00  0.00    -0.067 SA
ATOM      6  C   UNL d   1      53.056  34.047  54.218  0.00  0.00     0.166 A 
ATOM      7  N   UNL d   1      53.992  35.036  55.188  0.00  0.00    -0.217 NA
ATOM      8  N   UNL d   1      52.839  34.812  54.368  0.00  0.00    -0.205 NA
ATOM      9  C   UNL d   1      53.314  35.323  54.864  0.00  0.00     0.201 A 
ENDROOT
BRANCH   6  10
ATOM     10  N   UNL d   1      52.573  33.578  53.733  0.00  0.00    -0.224 NA
BRANCH  10  11
ATOM     11  C   UNL d   1      51.995  33.933  53.267  0.00  0.00     0.120 C 
BRANCH  11  12
ATOM     12  C   UNL d   1      51.212  33.638  53.266  0.00  0.00     0.101 C 
BRANCH  12  13
ATOM     13  N   UNL d   1      50.649  33.964  52.746  0.00  0.00    -0.298 N 
ATOM     14  C   UNL d   1      50.740  33.861  51.964  0.00  0.00     0.107 A 
ATOM     15  C   UNL d   1      50.170  34.193  51.455  0.00  0.00     0.142 A 
ATOM     16  O   UNL d   1      49.552  34.601  51.758  0.00  0.00    -0.300 OA
ATOM     17  C   UNL d   1      49.465  34.701  52.535  0.00  0.00     0.142 A 
ATOM     18  C   UNL d   1      50.008  34.387  53.057  0.00  0.00     0.107 A 
ENDBRANCH  12  13
ENDBRANCH  11  12
ENDBRANCH  10  11
ENDBRANCH   6  10
BRANCH   2  19
ATOM     19  C   UNL d   1      53.804  32.412  54.079  0.00  0.00     0.001 A 
ATOM     20  C   UNL d   1      53.314  31.853  54.427  0.00  0.00     0.002 A 
ATOM     21  C   UNL d   1      53.006  31.225  53.997  0.00  0.00     0.024 A 
ATOM     22  C   UNL d   1      53.183  31.137  53.196  0.00  0.00     0.094 A 
ATOM     23  C   UNL d   1      53.689  31.718  52.848  0.00  0.00     0.024 A 
ATOM     24  C   UNL d   1      53.994  32.343  53.278  0.00  0.00     0.002 A 
BRANCH  22  25
ATOM     25  O   UNL d   1      52.955  30.628  52.779  0.00  0.00    -0.328 OA
ATOM     26  C   UNL d   1      52.637  29.909  53.086  0.00  0.00     0.181 C 
ENDBRANCH  22  25
ENDBRANCH   2  19
TORSDOF 6
ENDMDL
MODEL 3
REMARK VINA RESULT:      -7.0      2.050      3.909
REMARK  6 active torsions:
REMARK  status: ('A' for Active; 'I' for Inactive)
REMARK    1  A    between atoms: C_9  and  C_2 
REMARK    2  A    between atoms: N_12  and  C_6 
REMARK    3  A    between atoms: N_11  and  C_20 
REMARK    4  A    between atoms: C_19  and  N_12 
REMARK    5  A    between atoms: O_21  and  C_16 
REMARK    6  A    between atoms: C_20  and  C_19 
ROOT
ATOM      1  C   UNL d   1      53.129  32.490  53.536  0.00  0.00     0.060 A 
ATOM      2  C   UNL d   1      53.632  32.960  53.963  0.00  0.00     0.011 A 
ATOM      3  C   UNL d   1      54.282  32.484  54.225  0.00  0.00     0.037 A 
ATOM      4  C   UNL d   1      53.449  31.705  53.519  0.00  0.00     0.116 A 
ATOM      5  S   UNL d   1      54.166  31.711  53.951  0.00  0.00    -0.067 SA
ATOM      6  C   UNL d   1      52.422  32.639  53.153  0.00  0.00     0.166 A 
ATOM      7  N   UNL d   1      53.056  31.092  53.121  0.00  0.00    -0.217 NA
ATOM      8  N   UNL d   1      52.042  32.039  52.766  0.00  0.00    -0.205 NA
ATOM      9  C   UNL d   1      52.361  31.245  52.746  0.00  0.00     0.201 A 
ENDROOT
BRANCH   6  10
ATOM     10  N   UNL d   1      52.086  33.397  53.153  0.00  0.00    -0.224 NA
BRANCH  10  11
ATOM     11  C   UNL d   1      51.311  33.500  52.894  0.00  0.00     0.120 C 
BRANCH  11  12
ATOM     12  C   UNL d   1      51.124  34.107  52.350  0.00  0.00     0.101 C 
BRANCH  12  13
ATOM     13  N   UNL d   1      50.337  34.373  52.285  0.00  0.00    -0.298 N 
ATOM     14  C   UNL d   1      49.991  34.715  52.911  0.00  0.00     0.107 A 
ATOM     15  C   UNL d   1      49.204  34.977  52.832  0.00  0.00     0.142 A 
ATOM     16  O   UNL d   1      48.819  34.880  52.138  0.00  0.00    -0.300 OA
ATOM     17  C   UNL d   1      49.166  34.541  51.516  0.00  0.00     0.142 A 
ATOM     18  C   UNL d   1      49.936  34.275  51.566  0.00  0.00     0.107 A 
ENDBRANCH  12  13
ENDBRANCH  11  12
ENDBRANCH  10  11
ENDBRANCH   6  10
BRANCH   2  19
ATOM     19  C   UNL d   1      53.499  33.740  54.091  0.00  0.00     0.001 A 
ATOM     20  C   UNL d   1      53.109  34.002  54.764  0.00  0.00     0.002 A 
ATOM     21  C   UNL d   1      52.972  34.801  54.897  0.00  0.00     0.024 A 
ATOM     22  C   UNL d   1      53.225  35.367  54.354  0.00  0.00     0.094 A 
ATOM     23  C   UNL d   1      53.625  35.087  53.664  0.00  0.00     0.024 A 
ATOM     24  C   UNL d   1      53.761  34.291  53.533  0.00  0.00     0.002 A 
BRANCH  22  25
ATOM     25  O   UNL d   1      53.140  36.056  54.409  0.00  0.00    -0.328 OA
ATOM     26  C   UNL d   1      52.738  36.404  55.065  0.00  0.00     0.181 C 
ENDBRANCH  22  25
ENDBRANCH   2  19
TORSDOF 6
ENDMDL
MODEL 4
REMARK VINA RESULT:      -6.4      1.577      2.899
REMARK  6 active torsions:
REMARK  status: ('A' for Active; 'I' for Inactive)
REMARK    1  A    between atoms: C_9  and  C_2 
REMARK    2  A    between atoms: N_12  and  C_6 
REMARK    3  A    between atoms: N_11  and  C_20 
REMARK    4  A    between atoms: C_19  and  N_12 
REMARK    5  A    between atoms: O_21  and  C_16 
REMARK    6  A    between atoms: C_20  and  C_19 
ROOT
ATOM      1  C   UNL d   1      51.967  33.865  53.339  0.00  0.00     0.060 A 
ATOM      2  C   UNL d   1      52.495  34.347  53.721  0.00  0.00     0.011 A 
ATOM      3  C   UNL d   1      52.202  35.141  53.687  0.00  0.00     0.037 A 
ATOM      4  C   UNL d   1      51.327  34.344  53.056  0.00  0.00     0.116 A 
ATOM      5  S   UNL d   1      51.482  35.137  53.277  0.00  0.00    -0.067 SA
ATOM      6  C   UNL d   1      51.953  33.061  53.197  0.00  0.00     0.166 A 
ATOM      7  N   UNL d   1      50.694  34.007  52.639  0.00  0.00    -0.217 NA
ATOM      8  N   UNL d   1      51.335  32.736  52.790  0.00  0.00    -0.205 NA
ATOM      9  C   UNL d   1      50.687  33.215  52.502  0.00  0.00     0.201 A 
ENDROOT
BRANCH   6  10
ATOM     10  N   UNL d   1      52.566  32.568  53.462  0.00  0.00    -0.224 NA
BRANCH  10  11
ATOM     11  C   UNL d   1      52.454  31.753  53.481  0.00  0.00     0.120 C 
BRANCH  11  12
ATOM     12  C   UNL d   1      53.051  31.237  53.201  0.00  0.00     0.101 C 
BRANCH  12  13
ATOM     13  N   UNL d   1      53.038  30.434  53.421  0.00  0.00    -0.298 N 
ATOM     14  C   UNL d   1      52.641  29.916  52.971  0.00  0.00     0.107 A 
ATOM     15  C   UNL d   1      52.636  29.115  53.203  0.00  0.00     0.142 A 
ATOM     16  O   UNL d   1      53.026  28.888  53.863  0.00  0.00    -0.300 OA
ATOM     17  C   UNL d   1      53.420  29.405  54.309  0.00  0.00     0.142 A 
ATOM     18  C   UNL d   1      53.441  30.196  54.105  0.00  0.00     0.107 A 
ENDBRANCH  12  13
ENDBRANCH  11  12
ENDBRANCH  10  11
ENDBRANCH   6  10
BRANCH   2  19
ATOM     19  C   UNL d   1      53.169  34.076  54.059  0.00  0.00     0.001 A 
ATOM     20  C   UNL d   1      53.857  33.978  53.621  0.00  0.00     0.002 A 
ATOM     21  C   UNL d   1      54.549  33.701  53.965  0.00  0.00     0.024 A 
ATOM     22  C   UNL d   1      54.573  33.511  54.768  0.00  0.00     0.094 A 
ATOM     23  C   UNL d   1      53.859  33.615  55.209  0.00  0.00     0.024 A 
ATOM     24  C   UNL d   1      53.171  33.891  54.864  0.00  0.00     0.002 A 
BRANCH  22  25
ATOM     25  O   UNL d   1      55.126  33.272  55.117  0.00  0.00    -0.328 OA
ATOM     26  C   UNL d   1      55.792  33.764  55.287  0.00  0.00     0.181 C 
ENDBRANCH  22  25
ENDBRANCH   2  19
TORSDOF 6
ENDMDL
