MODEL 1
REMARK VINA RESULT:      -4.6      0.000      0.000
REMARK  11 active torsions:
REMARK  status: ('A' for Active; 'I' for Inactive)
REMARK    1  A    between atoms: N_5  and  S_1 
REMARK    2  A    between atoms: C_8  and  S_1 
REMARK    3  A    between atoms: C_2  and  N_10 
REMARK    4  A    between atoms: C_9  and  N_5 
REMARK    5  A    between atoms: C_18  and  N_5 
REMARK    6  A    between atoms: C_13  and  C_9 
REMARK    7  A    between atoms: N_10  and  O_14 
REMARK    8  A    between atoms: C_17  and  C_13 
REMARK    9  A    between atoms: O_14  and  C_17 
REMARK   10  A    between atoms: C_27  and  C_18 
REMARK   11  A    between atoms: C_29  and  C_27 
ROOT
ATOM      1  C   UNL d   1     -43.044  13.119  21.207  0.00  0.00     0.240 C 
ATOM      2  O   UNL d   1     -42.841  12.632  20.574  0.00  0.00    -0.283 OA
ENDROOT
BRANCH   1   3
ATOM      3  C   UNL d   1     -43.791  12.764  21.148  0.00  0.00     0.136 C 
BRANCH   3   4
ATOM      4  N   UNL d   1     -44.224  12.621  21.838  0.00  0.00    -0.226 N 
BRANCH   4   5
ATOM      5  S   UNL d   1     -44.997  12.911  21.912  0.00  0.00     0.271 S 
ATOM      6  O   UNL d   1     -45.025  12.537  21.174  0.00  0.00    -0.200 OA
ATOM      7  O   UNL d   1     -45.178  13.326  22.599  0.00  0.00    -0.200 OA
BRANCH   5   8
ATOM      8  C   UNL d   1     -45.667  13.281  22.205  0.00  0.00     0.104 A 
ATOM      9  C   UNL d   1     -45.600  14.002  22.597  0.00  0.00     0.013 A 
ATOM     10  C   UNL d   1     -46.279  14.374  22.892  0.00  0.00     0.001 A 
ATOM     11  C   UNL d   1     -47.021  14.020  22.793  0.00  0.00     0.000 A 
ATOM     12  C   UNL d   1     -47.030  13.292  22.389  0.00  0.00     0.001 A 
ATOM     13  C   UNL d   1     -47.711  14.372  23.078  0.00  0.00     0.000 C 
ATOM     14  C   UNL d   1     -46.384  12.893  22.083  0.00  0.00     0.013 A 
ENDBRANCH   5   8
ENDBRANCH   4   5
BRANCH   4  15
ATOM     15  C   UNL d   1     -44.040  12.220  22.528  0.00  0.00     0.095 C 
BRANCH  15  16
ATOM     16  C   UNL d   1     -43.793  11.430  22.490  0.00  0.00     0.065 C 
BRANCH  16  17
ATOM     17  C   UNL d   1     -43.650  11.008  23.189  0.00  0.00     0.236 C 
ATOM     18  O   UNL d   1     -43.600  10.191  23.173  0.00  0.00    -0.283 OA
ENDBRANCH  16  17
ENDBRANCH  15  16
ENDBRANCH   4  15
ENDBRANCH   3   4
ENDBRANCH   1   3
BRANCH   1  19
ATOM     19  C   UNL d   1     -42.494  13.631  21.529  0.00  0.00     0.193 C 
BRANCH  19  20
ATOM     20  O   UNL d   1     -41.821  13.833  21.096  0.00  0.00    -0.206 OA
BRANCH  20  21
ATOM     21  N   UNL d   1     -41.347  14.470  21.338  0.00  0.00    -0.126 NA
BRANCH  21  22
ATOM     22  C   UNL d   1     -40.608  14.589  20.993  0.00  0.00     0.108 A 
ATOM     23  C   UNL d   1     -39.893  14.263  21.251  0.00  0.00     0.020 A 
ATOM     24  C   UNL d   1     -39.301  14.532  20.742  0.00  0.00     0.002 A 
ATOM     25  C   UNL d   1     -39.712  13.766  21.872  0.00  0.00     0.002 A 
ATOM     26  C   UNL d   1     -38.520  14.292  20.868  0.00  0.00     0.000 A 
ATOM     27  C   UNL d   1     -39.634  15.017  20.175  0.00  0.00     0.002 A 
ATOM     28  C   UNL d   1     -38.337  13.792  21.492  0.00  0.00     0.000 A 
ATOM     29  C   UNL d   1     -38.934  13.530  21.993  0.00  0.00     0.000 A 
ATOM     30  C   UNL d   1     -40.444  15.055  20.326  0.00  0.00     0.020 A 
ATOM     31  C   UNL d   1     -39.318  15.430  19.542  0.00  0.00     0.000 A 
ATOM     32  C   UNL d   1     -40.936  15.505  19.846  0.00  0.00     0.002 A 
ATOM     33  C   UNL d   1     -40.622  15.921  19.210  0.00  0.00     0.000 A 
ATOM     34  C   UNL d   1     -39.806  15.880  19.060  0.00  0.00     0.000 A 
ENDBRANCH  21  22
ENDBRANCH  20  21
ENDBRANCH  19  20
ENDBRANCH   1  19
TORSDOF 11
ENDMDL
MODEL 2
REMARK VINA RESULT:      -4.3      1.298      6.518
REMARK  11 active torsions:
REMARK  status: ('A' for Active; 'I' for Inactive)
REMARK    1  A    between atoms: N_5  and  S_1 
REMARK    2  A    between atoms: C_8  and  S_1 
REMARK    3  A    between atoms: C_2  and  N_10 
REMARK    4  A    between atoms: C_9  and  N_5 
REMARK    5  A    between atoms: C_18  and  N_5 
REMARK    6  A    between atoms: C_13  and  C_9 
REMARK    7  A    between atoms: N_10  and  O_14 
REMARK    8  A    between atoms: C_17  and  C_13 
REMARK    9  A    between atoms: O_14  and  C_17 
REMARK   10  A    between atoms: C_27  and  C_18 
REMARK   11  A    between atoms: C_29  and  C_27 
ROOT
ATOM      1  C   UNL d   1     -44.692  13.113  21.540  0.00  0.00     0.240 C 
ATOM      2  O   UNL d   1     -45.128  12.924  20.866  0.00  0.00    -0.283 OA
ENDROOT
BRANCH   1   3
ATOM      3  C   UNL d   1     -44.035  12.872  21.095  0.00  0.00     0.136 C 
BRANCH   3   4
ATOM      4  N   UNL d   1     -43.300  12.804  21.470  0.00  0.00    -0.226 N 
BRANCH   4   5
ATOM      5  S   UNL d   1     -42.636  13.184  21.152  0.00  0.00     0.271 S 
ATOM      6  O   UNL d   1     -42.672  12.494  20.696  0.00  0.00    -0.200 OA
ATOM      7  O   UNL d   1     -42.426  13.910  21.480  0.00  0.00    -0.200 OA
BRANCH   5   8
ATOM      8  C   UNL d   1     -42.041  13.731  21.014  0.00  0.00     0.104 A 
ATOM      9  C   UNL d   1     -42.101  14.492  21.325  0.00  0.00     0.013 A 
ATOM     10  C   UNL d   1     -41.499  15.042  21.184  0.00  0.00     0.001 A 
ATOM     11  C   UNL d   1     -40.839  14.828  20.732  0.00  0.00     0.000 A 
ATOM     12  C   UNL d   1     -40.830  14.046  20.442  0.00  0.00     0.001 A 
ATOM     13  C   UNL d   1     -40.227  15.359  20.579  0.00  0.00     0.000 C 
ATOM     14  C   UNL d   1     -41.404  13.474  20.559  0.00  0.00     0.013 A 
ENDBRANCH   5   8
ENDBRANCH   4   5
BRANCH   4  15
ATOM     15  C   UNL d   1     -43.063  12.409  22.147  0.00  0.00     0.095 C 
BRANCH  15  16
ATOM     16  C   UNL d   1     -43.246  11.607  22.239  0.00  0.00     0.065 C 
BRANCH  16  17
ATOM     17  C   UNL d   1     -43.079  11.225  22.955  0.00  0.00     0.236 C 
ATOM     18  O   UNL d   1     -43.429  10.505  23.128  0.00  0.00    -0.283 OA
ENDBRANCH  16  17
ENDBRANCH  15  16
ENDBRANCH   4  15
ENDBRANCH   3   4
ENDBRANCH   1   3
BRANCH   1  19
ATOM     19  C   UNL d   1     -45.067  13.400  22.208  0.00  0.00     0.193 C 
BRANCH  19  20
ATOM     20  O   UNL d   1     -45.891  13.388  22.252  0.00  0.00    -0.206 OA
BRANCH  20  21
ATOM     21  N   UNL d   1     -46.269  13.508  22.980  0.00  0.00    -0.126 NA
BRANCH  21  22
ATOM     22  C   UNL d   1     -47.085  13.408  23.043  0.00  0.00     0.108 A 
ATOM     23  C   UNL d   1     -47.659  13.983  22.888  0.00  0.00     0.020 A 
ATOM     24  C   UNL d   1     -48.397  13.638  23.023  0.00  0.00     0.002 A 
ATOM     25  C   UNL d   1     -47.602  14.759  22.645  0.00  0.00     0.002 A 
ATOM     26  C   UNL d   1     -49.081  14.089  22.910  0.00  0.00     0.000 A 
ATOM     27  C   UNL d   1     -48.292  12.863  23.259  0.00  0.00     0.002 A 
ATOM     28  C   UNL d   1     -49.024  14.870  22.666  0.00  0.00     0.000 A 
ATOM     29  C   UNL d   1     -48.284  15.203  22.534  0.00  0.00     0.000 A 
ATOM     30  C   UNL d   1     -47.481  12.715  23.273  0.00  0.00     0.020 A 
ATOM     31  C   UNL d   1     -48.817  12.269  23.464  0.00  0.00     0.000 A 
ATOM     32  C   UNL d   1     -47.195  11.976  23.491  0.00  0.00     0.002 A 
ATOM     33  C   UNL d   1     -47.720  11.377  23.697  0.00  0.00     0.000 A 
ATOM     34  C   UNL d   1     -48.536  11.529  23.682  0.00  0.00     0.000 A 
ENDBRANCH  21  22
ENDBRANCH  20  21
ENDBRANCH  19  20
ENDBRANCH   1  19
TORSDOF 11
ENDMDL
MODEL 3
REMARK VINA RESULT:      -4.3      1.569      6.148
REMARK  11 active torsions:
REMARK  status: ('A' for Active; 'I' for Inactive)
REMARK    1  A    between atoms: N_5  and  S_1 
REMARK    2  A    between atoms: C_8  and  S_1 
REMARK    3  A    between atoms: C_2  and  N_10 
REMARK    4  A    between atoms: C_9  and  N_5 
REMARK    5  A    between atoms: C_18  and  N_5 
REMARK    6  A    between atoms: C_13  and  C_9 
REMARK    7  A    between atoms: N_10  and  O_14 
REMARK    8  A    between atoms: C_17  and  C_13 
REMARK    9  A    between atoms: O_14  and  C_17 
REMARK   10  A    between atoms: C_27  and  C_18 
REMARK   11  A    between atoms: C_29  and  C_27 
ROOT
ATOM      1  C   UNL d   1     -42.093  14.078  21.186  0.00  0.00     0.240 C 
ATOM      2  O   UNL d   1     -42.535  14.709  21.480  0.00  0.00    -0.283 OA
ENDROOT
BRANCH   1   3
ATOM      3  C   UNL d   1     -41.540  14.658  20.973  0.00  0.00     0.136 C 
BRANCH   3   4
ATOM      4  N   UNL d   1     -40.816  14.423  20.648  0.00  0.00    -0.226 N 
BRANCH   4   5
ATOM      5  S   UNL d   1     -40.583  14.705  19.904  0.00  0.00     0.271 S 
ATOM      6  O   UNL d   1     -40.444  15.363  20.388  0.00  0.00    -0.200 OA
ATOM      7  O   UNL d   1     -40.647  14.185  19.269  0.00  0.00    -0.200 OA
BRANCH   5   8
ATOM      8  C   UNL d   1     -40.421  14.750  19.102  0.00  0.00     0.104 A 
ATOM      9  C   UNL d   1     -40.213  14.070  18.686  0.00  0.00     0.013 A 
ATOM     10  C   UNL d   1     -40.050  14.118  17.876  0.00  0.00     0.001 A 
ATOM     11  C   UNL d   1     -40.098  14.847  17.486  0.00  0.00     0.000 A 
ATOM     12  C   UNL d   1     -40.313  15.501  17.955  0.00  0.00     0.001 A 
ATOM     13  C   UNL d   1     -39.940  14.919  16.679  0.00  0.00     0.000 C 
ATOM     14  C   UNL d   1     -40.481  15.495  18.756  0.00  0.00     0.013 A 
ENDBRANCH   5   8
ENDBRANCH   4   5
BRANCH   4  15
ATOM     15  C   UNL d   1     -40.225  13.927  20.924  0.00  0.00     0.095 C 
BRANCH  15  16
ATOM     16  C   UNL d   1     -39.848  14.097  21.641  0.00  0.00     0.065 C 
BRANCH  16  17
ATOM     17  C   UNL d   1     -39.195  13.648  21.881  0.00  0.00     0.236 C 
ATOM     18  O   UNL d   1     -39.065  13.503  22.676  0.00  0.00    -0.283 OA
ENDBRANCH  16  17
ENDBRANCH  15  16
ENDBRANCH   4  15
ENDBRANCH   3   4
ENDBRANCH   1   3
BRANCH   1  19
ATOM     19  C   UNL d   1     -42.376  13.313  21.242  0.00  0.00     0.193 C 
BRANCH  19  20
ATOM     20  O   UNL d   1     -43.038  13.154  21.708  0.00  0.00    -0.206 OA
BRANCH  20  21
ATOM     21  N   UNL d   1     -43.529  12.511  21.527  0.00  0.00    -0.126 NA
BRANCH  21  22
ATOM     22  C   UNL d   1     -44.086  12.249  22.075  0.00  0.00     0.108 A 
ATOM     23  C   UNL d   1     -44.822  12.595  22.224  0.00  0.00     0.020 A 
ATOM     24  C   UNL d   1     -45.190  12.149  22.814  0.00  0.00     0.002 A 
ATOM     25  C   UNL d   1     -45.194  13.246  21.903  0.00  0.00     0.002 A 
ATOM     26  C   UNL d   1     -45.942  12.369  23.077  0.00  0.00     0.000 A 
ATOM     27  C   UNL d   1     -44.697  11.535  23.032  0.00  0.00     0.002 A 
ATOM     28  C   UNL d   1     -46.317  13.023  22.755  0.00  0.00     0.000 A 
ATOM     29  C   UNL d   1     -45.941  13.461  22.168  0.00  0.00     0.000 A 
ATOM     30  C   UNL d   1     -44.012  11.592  22.578  0.00  0.00     0.020 A 
ATOM     31  C   UNL d   1     -44.773  10.931  23.581  0.00  0.00     0.000 A 
ATOM     32  C   UNL d   1     -43.404  11.047  22.670  0.00  0.00     0.002 A 
ATOM     33  C   UNL d   1     -43.476  10.439  23.220  0.00  0.00     0.000 A 
ATOM     34  C   UNL d   1     -44.168  10.384  23.676  0.00  0.00     0.000 A 
ENDBRANCH  21  22
ENDBRANCH  20  21
ENDBRANCH  19  20
ENDBRANCH   1  19
TORSDOF 11
ENDMDL
MODEL 4
REMARK VINA RESULT:      -4.2      1.578      5.975
REMARK  11 active torsions:
REMARK  status: ('A' for Active; 'I' for Inactive)
REMARK    1  A    between atoms: N_5  and  S_1 
REMARK    2  A    between atoms: C_8  and  S_1 
REMARK    3  A    between atoms: C_2  and  N_10 
REMARK    4  A    between atoms: C_9  and  N_5 
REMARK    5  A    between atoms: C_18  and  N_5 
REMARK    6  A    between atoms: C_13  and  C_9 
REMARK    7  A    between atoms: N_10  and  O_14 
REMARK    8  A    between atoms: C_17  and  C_13 
REMARK    9  A    between atoms: O_14  and  C_17 
REMARK   10  A    between atoms: C_27  and  C_18 
REMARK   11  A    between atoms: C_29  and  C_27 
ROOT
ATOM      1  C   UNL d   1     -42.060  14.100  21.151  0.00  0.00     0.240 C 
ATOM      2  O   UNL d   1     -42.479  14.726  21.485  0.00  0.00    -0.283 OA
ENDROOT
BRANCH   1   3
ATOM      3  C   UNL d   1     -41.508  14.679  20.932  0.00  0.00     0.136 C 
BRANCH   3   4
ATOM      4  N   UNL d   1     -40.783  14.442  20.611  0.00  0.00    -0.226 N 
BRANCH   4   5
ATOM      5  S   UNL d   1     -40.543  14.729  19.872  0.00  0.00     0.271 S 
ATOM      6  O   UNL d   1     -40.418  15.387  20.358  0.00  0.00    -0.200 OA
ATOM      7  O   UNL d   1     -40.591  14.210  19.235  0.00  0.00    -0.200 OA
BRANCH   5   8
ATOM      8  C   UNL d   1     -40.370  14.777  19.071  0.00  0.00     0.104 A 
ATOM      9  C   UNL d   1     -40.302  14.089  18.623  0.00  0.00     0.013 A 
ATOM     10  C   UNL d   1     -40.128  14.140  17.816  0.00  0.00     0.001 A 
ATOM     11  C   UNL d   1     -40.022  14.880  17.461  0.00  0.00     0.000 A 
ATOM     12  C   UNL d   1     -40.102  15.542  17.961  0.00  0.00     0.001 A 
ATOM     13  C   UNL d   1     -39.848  14.956  16.658  0.00  0.00     0.000 C 
ATOM     14  C   UNL d   1     -40.273  15.534  18.761  0.00  0.00     0.013 A 
ENDBRANCH   5   8
ENDBRANCH   4   5
BRANCH   4  15
ATOM     15  C   UNL d   1     -40.197  13.942  20.889  0.00  0.00     0.095 C 
BRANCH  15  16
ATOM     16  C   UNL d   1     -39.834  14.099  21.616  0.00  0.00     0.065 C 
BRANCH  16  17
ATOM     17  C   UNL d   1     -39.165  13.667  21.845  0.00  0.00     0.236 C 
ATOM     18  O   UNL d   1     -38.989  13.571  22.640  0.00  0.00    -0.283 OA
ENDBRANCH  16  17
ENDBRANCH  15  16
ENDBRANCH   4  15
ENDBRANCH   3   4
ENDBRANCH   1   3
BRANCH   1  19
ATOM     19  C   UNL d   1     -42.351  13.337  21.194  0.00  0.00     0.193 C 
BRANCH  19  20
ATOM     20  O   UNL d   1     -43.011  13.177  21.662  0.00  0.00    -0.206 OA
BRANCH  20  21
ATOM     21  N   UNL d   1     -43.499  12.529  21.486  0.00  0.00    -0.126 NA
BRANCH  21  22
ATOM     22  C   UNL d   1     -44.047  12.263  22.040  0.00  0.00     0.108 A 
ATOM     23  C   UNL d   1     -43.957  11.609  22.539  0.00  0.00     0.020 A 
ATOM     24  C   UNL d   1     -44.641  11.552  22.998  0.00  0.00     0.002 A 
ATOM     25  C   UNL d   1     -43.350  11.073  22.630  0.00  0.00     0.002 A 
ATOM     26  C   UNL d   1     -44.706  10.942  23.553  0.00  0.00     0.000 A 
ATOM     27  C   UNL d   1     -45.153  12.155  22.793  0.00  0.00     0.002 A 
ATOM     28  C   UNL d   1     -44.096  10.402  23.645  0.00  0.00     0.000 A 
ATOM     29  C   UNL d   1     -43.419  10.469  23.183  0.00  0.00     0.000 A 
ATOM     30  C   UNL d   1     -44.790  12.598  22.201  0.00  0.00     0.020 A 
ATOM     31  C   UNL d   1     -45.898  12.366  23.061  0.00  0.00     0.000 A 
ATOM     32  C   UNL d   1     -45.170  13.251  21.876  0.00  0.00     0.002 A 
ATOM     33  C   UNL d   1     -45.918  13.465  22.142  0.00  0.00     0.000 A 
ATOM     34  C   UNL d   1     -46.281  13.016  22.739  0.00  0.00     0.000 A 
ENDBRANCH  21  22
ENDBRANCH  20  21
ENDBRANCH  19  20
ENDBRANCH   1  19
TORSDOF 11
ENDMDL
MODEL 5
REMARK VINA RESULT:      -3.3      1.477      6.278
REMARK  11 active torsions:
REMARK  status: ('A' for Active; 'I' for Inactive)
REMARK    1  A    between atoms: N_5  and  S_1 
REMARK    2  A    between atoms: C_8  and  S_1 
REMARK    3  A    between atoms: C_2  and  N_10 
REMARK    4  A    between atoms: C_9  and  N_5 
REMARK    5  A    between atoms: C_18  and  N_5 
REMARK    6  A    between atoms: C_13  and  C_9 
REMARK    7  A    between atoms: N_10  and  O_14 
REMARK    8  A    between atoms: C_17  and  C_13 
REMARK    9  A    between atoms: O_14  and  C_17 
REMARK   10  A    between atoms: C_27  and  C_18 
REMARK   11  A    between atoms: C_29  and  C_27 
ROOT
ATOM      1  C   UNL d   1     -42.591  13.277  21.060  0.00  0.00     0.240 C 
ATOM      2  O   UNL d   1     -42.512  12.540  20.699  0.00  0.00    -0.283 OA
ENDROOT
BRANCH   1   3
ATOM      3  C   UNL d   1     -41.763  13.308  21.013  0.00  0.00     0.136 C 
BRANCH   3   4
ATOM      4  N   UNL d   1     -41.404  13.984  20.697  0.00  0.00    -0.226 N 
BRANCH   4   5
ATOM      5  S   UNL d   1     -40.856  14.412  21.147  0.00  0.00     0.271 S 
ATOM      6  O   UNL d   1     -41.444  14.978  21.012  0.00  0.00    -0.200 OA
ATOM      7  O   UNL d   1     -40.177  14.013  21.390  0.00  0.00    -0.200 OA
BRANCH   5   8
ATOM      8  C   UNL d   1     -40.191  14.612  21.585  0.00  0.00     0.104 A 
ATOM      9  C   UNL d   1     -39.672  14.024  21.837  0.00  0.00     0.013 A 
ATOM     10  C   UNL d   1     -39.003  14.229  22.279  0.00  0.00     0.001 A 
ATOM     11  C   UNL d   1     -38.857  15.023  22.465  0.00  0.00     0.000 A 
ATOM     12  C   UNL d   1     -39.414  15.575  22.184  0.00  0.00     0.001 A 
ATOM     13  C   UNL d   1     -38.196  15.251  22.904  0.00  0.00     0.000 C 
ATOM     14  C   UNL d   1     -40.086  15.413  21.747  0.00  0.00     0.013 A 
ENDBRANCH   5   8
ENDBRANCH   4   5
BRANCH   4  15
ATOM     15  C   UNL d   1     -41.478  14.356  19.972  0.00  0.00     0.095 C 
BRANCH  15  16
ATOM     16  C   UNL d   1     -41.162  14.001  19.294  0.00  0.00     0.065 C 
BRANCH  16  17
ATOM     17  C   UNL d   1     -41.144  14.419  18.578  0.00  0.00     0.236 C 
ATOM     18  O   UNL d   1     -40.952  14.033  17.882  0.00  0.00    -0.283 OA
ENDBRANCH  16  17
ENDBRANCH  15  16
ENDBRANCH   4  15
ENDBRANCH   3   4
ENDBRANCH   1   3
BRANCH   1  19
ATOM     19  C   UNL d   1     -43.330  13.566  21.255  0.00  0.00     0.193 C 
BRANCH  19  20
ATOM     20  O   UNL d   1     -43.878  13.073  21.626  0.00  0.00    -0.206 OA
BRANCH  20  21
ATOM     21  N   UNL d   1     -44.283  13.336  22.300  0.00  0.00    -0.126 NA
BRANCH  21  22
ATOM     22  C   UNL d   1     -44.969  12.950  22.547  0.00  0.00     0.108 A 
ATOM     23  C   UNL d   1     -45.734  13.264  22.537  0.00  0.00     0.020 A 
ATOM     24  C   UNL d   1     -46.243  12.683  22.832  0.00  0.00     0.002 A 
ATOM     25  C   UNL d   1     -46.023  13.989  22.302  0.00  0.00     0.002 A 
ATOM     26  C   UNL d   1     -47.052  12.845  22.887  0.00  0.00     0.000 A 
ATOM     27  C   UNL d   1     -45.808  12.018  23.023  0.00  0.00     0.002 A 
ATOM     28  C   UNL d   1     -47.343  13.574  22.651  0.00  0.00     0.000 A 
ATOM     29  C   UNL d   1     -46.828  14.145  22.359  0.00  0.00     0.000 A 
ATOM     30  C   UNL d   1     -45.019  12.178  22.848  0.00  0.00     0.020 A 
ATOM     31  C   UNL d   1     -46.018  11.289  23.332  0.00  0.00     0.000 A 
ATOM     32  C   UNL d   1     -44.439  11.610  22.981  0.00  0.00     0.002 A 
ATOM     33  C   UNL d   1     -44.646  10.877  23.291  0.00  0.00     0.000 A 
ATOM     34  C   UNL d   1     -45.442  10.719  23.466  0.00  0.00     0.000 A 
ENDBRANCH  21  22
ENDBRANCH  20  21
ENDBRANCH  19  20
ENDBRANCH   1  19
TORSDOF 11
ENDMDL
