MODEL 1
REMARK VINA RESULT:      30.2      0.000      0.000
REMARK  4 active torsions:
REMARK  status: ('A' for Active; 'I' for Inactive)
REMARK    1  A    between atoms: C_3  and  C_1 
REMARK    2  A    between atoms: C_11  and  N_2 
REMARK    3  A    between atoms: C_12  and  C_11 
REMARK       I    between atoms: N_13  and  C_12 
REMARK    4  A    between atoms: C_16  and  N_13 
ROOT
ATOM      1  C   UNL d   1      46.438 -18.650  42.421  0.00  0.00     0.171 A 
ATOM      2  N   UNL d   1      46.217 -18.335  43.157  0.00  0.00    -0.284 N 
ATOM      3  N   UNL d   1      46.634 -19.447  42.537  0.00  0.00    -0.225 NA
ATOM      4  C   UNL d   1      46.278 -18.935  43.716  0.00  0.00     0.083 A 
ATOM      5  C   UNL d   1      46.535 -19.620  43.334  0.00  0.00     0.099 A 
ATOM      6  C   UNL d   1      46.128 -18.949  44.551  0.00  0.00     0.019 A 
ATOM      7  C   UNL d   1      46.646 -20.330  43.780  0.00  0.00     0.021 A 
ATOM      8  C   UNL d   1      46.242 -19.640  44.955  0.00  0.00     0.002 A 
ATOM      9  C   UNL d   1      46.499 -20.325  44.573  0.00  0.00     0.002 A 
ENDROOT
BRANCH   2  10
ATOM     10  C   UNL d   1      45.981 -17.558  43.291  0.00  0.00     0.145 C 
BRANCH  10  11
ATOM     11  C   UNL d   1      45.226 -17.414  43.566  0.00  0.00     0.297 C 
ATOM     12  N   UNL d   1      45.055 -16.705  43.958  0.00  0.00    -0.207 NA
ATOM     13  O   UNL d   1      44.617 -17.972  43.461  0.00  0.00    -0.264 OA
BRANCH  12  14
ATOM     14  C   UNL d   1      45.454 -16.023  44.181  0.00  0.00     0.085 A 
ATOM     15  C   UNL d   1      45.913 -15.921  44.863  0.00  0.00     0.019 A 
ATOM     16  C   UNL d   1      46.205 -15.154  44.860  0.00  0.00     0.002 A 
ATOM     17  C   UNL d   1      45.938 -14.766  44.186  0.00  0.00     0.002 A 
ATOM     18  C   UNL d   1      45.480 -15.301  43.775  0.00  0.00     0.019 A 
ENDBRANCH  12  14
ENDBRANCH  10  11
ENDBRANCH   2  10
BRANCH   1  19
ATOM     19  C   UNL d   1      46.459 -18.238  41.698  0.00  0.00     0.184 A 
ATOM     20  C   UNL d   1      46.296 -18.558  40.955  0.00  0.00     0.235 A 
ATOM     21  N   UNL d   1      46.383 -17.954  40.393  0.00  0.00    -0.081 NA
ATOM     22  N   UNL d   1      46.084 -19.338  40.794  0.00  0.00    -0.123 N 
ATOM     23  O   UNL d   1      46.599 -17.265  40.791  0.00  0.00    -0.104 OA
ATOM     24  N   UNL d   1      46.647 -17.439  41.601  0.00  0.00    -0.097 NA
ENDBRANCH   1  19
TORSDOF 4
ENDMDL
