MODEL 1
REMARK VINA RESULT:      11.9      0.000      0.000
REMARK  3 active torsions:
REMARK  status: ('A' for Active; 'I' for Inactive)
REMARK       I    between atoms: N_2  and  C_1 
REMARK    1  A    between atoms: C_4  and  C_1 
REMARK    2  A    between atoms: C_3  and  N_2 
REMARK    3  A    between atoms: S_11  and  C_7 
ROOT
ATOM      1  C   UNL d   1      46.381 -18.912  42.638  0.00  0.00     0.064 A 
ATOM      2  C   UNL d   1      46.148 -18.289  42.152  0.00  0.00     0.030 A 
ATOM      3  C   UNL d   1      46.550 -18.773  43.440  0.00  0.00     0.005 A 
ATOM      4  C   UNL d   1      46.082 -17.527  42.460  0.00  0.00     0.006 A 
ATOM      5  C   UNL d   1      46.483 -18.011  43.747  0.00  0.00     0.000 A 
ATOM      6  C   UNL d   1      46.248 -17.386  43.253  0.00  0.00     0.001 A 
ENDROOT
BRANCH   1   7
ATOM      7  C   UNL d   1      46.447 -19.674  42.330  0.00  0.00     0.281 C 
ATOM      8  N   UNL d   1      46.315 -20.330  42.823  0.00  0.00    -0.183 NA
ATOM      9  O   UNL d   1      46.644 -19.784  41.539  0.00  0.00    -0.265 OA
BRANCH   8  10
ATOM     10  C   UNL d   1      46.121 -20.225  43.604  0.00  0.00     0.197 A 
ATOM     11  N   UNL d   1      45.353 -20.219  43.918  0.00  0.00    -0.219 NA
ATOM     12  C   UNL d   1      45.408 -20.095  44.738  0.00  0.00     0.108 A 
ATOM     13  C   UNL d   1      46.212 -20.022  44.936  0.00  0.00     0.059 A 
ATOM     14  S   UNL d   1      46.646 -20.103  44.235  0.00  0.00    -0.046 SA
ENDBRANCH   8  10
ENDBRANCH   1   7
BRANCH   2  15
ATOM     15  S   UNL d   1      45.981 -18.430  41.358  0.00  0.00    -0.113 SA
ATOM     16  C   UNL d   1      46.252 -17.906  40.784  0.00  0.00     0.074 C 
ENDBRANCH   2  15
TORSDOF 3
ENDMDL
MODEL 2
REMARK VINA RESULT:      14.7      6.920      7.584
REMARK  3 active torsions:
REMARK  status: ('A' for Active; 'I' for Inactive)
REMARK       I    between atoms: N_2  and  C_1 
REMARK    1  A    between atoms: C_4  and  C_1 
REMARK    2  A    between atoms: C_3  and  N_2 
REMARK    3  A    between atoms: S_11  and  C_7 
ROOT
ATOM      1  C   UNL d   1      44.135 -15.735  37.120  0.00  0.00     0.064 A 
ATOM      2  C   UNL d   1      43.349 -15.531  36.987  0.00  0.00     0.030 A 
ATOM      3  C   UNL d   1      44.537 -15.433  37.781  0.00  0.00     0.005 A 
ATOM      4  C   UNL d   1      42.958 -15.024  37.508  0.00  0.00     0.006 A 
ATOM      5  C   UNL d   1      44.147 -14.927  38.303  0.00  0.00     0.000 A 
ATOM      6  C   UNL d   1      43.354 -14.723  38.164  0.00  0.00     0.001 A 
ENDROOT
BRANCH   1   7
ATOM      7  C   UNL d   1      44.525 -16.242  36.599  0.00  0.00     0.281 C 
ATOM      8  N   UNL d   1      45.289 -16.052  36.334  0.00  0.00    -0.183 NA
ATOM      9  O   UNL d   1      44.158 -16.932  36.343  0.00  0.00    -0.265 OA
BRANCH   8  10
ATOM     10  C   UNL d   1      45.653 -15.371  36.585  0.00  0.00     0.197 A 
ATOM     11  N   UNL d   1      45.458 -14.599  36.352  0.00  0.00    -0.219 NA
ATOM     12  C   UNL d   1      45.968 -14.073  36.741  0.00  0.00     0.108 A 
ATOM     13  C   UNL d   1      46.484 -14.516  37.219  0.00  0.00     0.059 A 
ATOM     14  S   UNL d   1      46.286 -15.314  37.120  0.00  0.00    -0.046 SA
ENDBRANCH   8  10
ENDBRANCH   1   7
BRANCH   2  15
ATOM     15  S   UNL d   1      42.953 -15.833  36.330  0.00  0.00    -0.113 SA
ATOM     16  C   UNL d   1      42.134 -15.920  36.351  0.00  0.00     0.074 C 
ENDBRANCH   2  15
TORSDOF 3
ENDMDL
