MODEL 1
REMARK VINA RESULT:      12.4      0.000      0.000
REMARK  4 active torsions:
REMARK  status: ('A' for Active; 'I' for Inactive)
REMARK    1  A    between atoms: N_4  and  C_1 
REMARK       I    between atoms: C_10  and  N_4 
REMARK    2  A    between atoms: C_7  and  C_8 
REMARK    3  A    between atoms: O_15  and  C_7 
REMARK    4  A    between atoms: C_17  and  O_15 
ROOT
ATOM      1  C   UNL d   1      13.272  11.970  -3.576  0.00  0.00     0.197 A 
ATOM      2  N   UNL d   1      12.778  11.780  -2.930  0.00  0.00    -0.221 NA
ATOM      3  S   UNL d   1      14.004  12.198  -3.273  0.00  0.00    -0.047 SA
ATOM      4  C   UNL d   1      13.977  12.153  -2.447  0.00  0.00     0.050 A 
ATOM      5  C   UNL d   1      13.213  11.892  -2.233  0.00  0.00     0.090 A 
ATOM      6  C   UNL d   1      14.339  12.212  -1.076  0.00  0.00     0.064 A 
ATOM      7  C   UNL d   1      14.537  12.312  -1.863  0.00  0.00     0.013 A 
ATOM      8  C   UNL d   1      13.025  11.796  -1.440  0.00  0.00     0.020 A 
ATOM      9  C   UNL d   1      13.575  11.952  -0.863  0.00  0.00     0.007 A 
ENDROOT
BRANCH   6  10
ATOM     10  C   UNL d   1      14.891  12.368  -0.481  0.00  0.00     0.300 C 
ATOM     11  O   UNL d   1      15.497  11.844  -0.333  0.00  0.00    -0.259 OA
BRANCH  10  12
ATOM     12  O   UNL d   1      14.818  13.066  -0.036  0.00  0.00    -0.271 OA
BRANCH  12  13
ATOM     13  C   UNL d   1      15.437  13.613  -0.014  0.00  0.00     0.126 C 
ATOM     14  C   UNL d   1      15.290  14.405  -0.136  0.00  0.00     0.029 C 
ENDBRANCH  12  13
ENDBRANCH  10  12
ENDBRANCH   6  10
BRANCH   1  15
ATOM     15  N   UNL d   1      13.061  11.936  -4.375  0.00  0.00    -0.183 NA
ATOM     16  C   UNL d   1      13.066  12.621  -4.833  0.00  0.00     0.281 C 
ATOM     17  O   UNL d   1      13.284  13.351  -4.490  0.00  0.00    -0.265 OA
ATOM     18  C   UNL d   1      12.858  12.587  -5.619  0.00  0.00     0.068 C 
ENDBRANCH   1  15
TORSDOF 4
ENDMDL
