MODEL 1
REMARK VINA RESULT:      70.4      0.000      0.000
REMARK  4 active torsions:
REMARK  status: ('A' for Active; 'I' for Inactive)
REMARK    1  A    between atoms: C_15  and  C_2 
REMARK    2  A    between atoms: C_5  and  S_13 
REMARK       I    between atoms: C_11  and  N_8 
REMARK    3  A    between atoms: C_18  and  C_11 
REMARK    4  A    between atoms: S_13  and  C_18 
ROOT
ATOM      1  N   UNL d   1     -55.540-102.383 -40.683  0.00  0.00    -0.272 N 
ATOM      2  C   UNL d   1     -55.607-102.634 -39.911  0.00  0.00     0.271 C 
ATOM      3  C   UNL d   1     -55.381-101.870 -42.243  0.00  0.00     0.023 A 
ATOM      4  C   UNL d   1     -56.197-102.332 -41.176  0.00  0.00     0.083 A 
ATOM      5  C   UNL d   1     -54.791-102.172 -40.978  0.00  0.00     0.083 A 
ATOM      6  O   UNL d   1     -56.335-102.842 -39.614  0.00  0.00    -0.266 OA
ATOM      7  C   UNL d   1     -56.118-102.076 -41.957  0.00  0.00     0.021 A 
ATOM      8  C   UNL d   1     -54.720-101.916 -41.761  0.00  0.00     0.021 A 
ENDROOT
BRANCH   2   9
ATOM      9  C   UNL d   1     -54.934-102.680 -39.425  0.00  0.00     0.099 C 
BRANCH   9  10
ATOM     10  S   UNL d   1     -55.016-102.880 -38.627  0.00  0.00    -0.054 SA
BRANCH  10  11
ATOM     11  C   UNL d   1     -54.940-102.296 -38.032  0.00  0.00     0.164 A 
ATOM     12  S   UNL d   1     -54.883-101.482 -38.153  0.00  0.00    -0.039 SA
ATOM     13  C   UNL d   1     -54.816-101.119 -37.407  0.00  0.00     0.134 A 
ATOM     14  C   UNL d   1     -54.745-100.299 -37.269  0.00  0.00     0.030 C 
ATOM     15  N   UNL d   1     -54.832-101.716 -36.825  0.00  0.00    -0.140 NA
ATOM     16  N   UNL d   1     -54.909-102.451 -37.214  0.00  0.00    -0.134 NA
ENDBRANCH  10  11
ENDBRANCH   9  10
ENDBRANCH   2   9
BRANCH   3  17
ATOM     17  C   UNL d   1     -55.297-101.616 -43.013  0.00  0.00     0.110 A 
ATOM     18  N   UNL d   1     -54.798-101.940 -43.569  0.00  0.00    -0.126 NA
ATOM     19  O   UNL d   1     -54.883-101.520 -44.276  0.00  0.00    -0.211 OA
ATOM     20  C   UNL d   1     -55.436-100.939 -44.150  0.00  0.00     0.127 A 
ATOM     21  C   UNL d   1     -55.751-100.353 -44.638  0.00  0.00     0.029 A 
ATOM     22  C   UNL d   1     -55.696-100.995 -43.365  0.00  0.00     0.047 A 
ATOM     23  C   UNL d   1     -56.309 -99.838 -44.354  0.00  0.00     0.032 A 
ATOM     24  C   UNL d   1     -56.578 -99.885 -43.569  0.00  0.00     0.140 A 
ATOM     25  C   UNL d   1     -56.254-100.480 -43.081  0.00  0.00     0.033 A 
ATOM     26  F   UNL d   1     -57.136 -99.369 -43.285  0.00  0.00    -0.204 F 
ENDBRANCH   3  17
TORSDOF 4
ENDMDL
