MODEL 1
REMARK VINA RESULT:      14.1      0.000      0.000
REMARK  1 active torsions:
REMARK  status: ('A' for Active; 'I' for Inactive)
REMARK    1  A    between atoms: C_6  and  N_1 
ROOT
ATOM      1  N   UNL d   1      58.537  49.707  50.526  0.00  0.00    -0.210 N 
ATOM      2  C   UNL d   1      59.017  49.707  51.193  0.00  0.00     0.196 A 
ATOM      3  N   UNL d   1      59.028  49.707  49.855  0.00  0.00    -0.161 NA
ATOM      4  C   UNL d   1      59.801  49.707  50.942  0.00  0.00     0.127 A 
ATOM      5  C   UNL d   1      59.813  49.707  50.122  0.00  0.00     0.134 A 
ATOM      6  C   UNL d   1      60.468  49.707  51.435  0.00  0.00     0.106 C 
ATOM      7  N   UNL d   1      61.139  49.707  51.926  0.00  0.00    -0.191 NA
ATOM      8  N   UNL d   1      58.746  49.707  51.993  0.00  0.00    -0.126 N 
ENDROOT
BRANCH   1   9
ATOM      9  C   UNL d   1      57.709  49.707  50.477  0.00  0.00     0.085 A 
ATOM     10  C   UNL d   1      57.351  49.707  49.734  0.00  0.00     0.019 A 
ATOM     11  C   UNL d   1      56.519  49.707  49.683  0.00  0.00     0.002 A 
ATOM     12  C   UNL d   1      56.143  49.707  48.933  0.00  0.00     0.000 C 
ATOM     13  C   UNL d   1      56.064  49.708  50.368  0.00  0.00     0.000 A 
ATOM     14  C   UNL d   1      56.425  49.708  51.108  0.00  0.00     0.002 A 
ATOM     15  C   UNL d   1      57.254  49.708  51.163  0.00  0.00     0.019 A 
ENDBRANCH   1   9
TORSDOF 1
ENDMDL
