MODEL 1
REMARK VINA RESULT:      -2.3      0.000      0.000
REMARK  6 active torsions:
REMARK  status: ('A' for Active; 'I' for Inactive)
REMARK       I    between atoms: N_2  and  C_1 
REMARK       I    between atoms: N_4  and  C_1 
REMARK    1  A    between atoms: C_8  and  N_2 
REMARK    2  A    between atoms: C_3  and  C_5 
REMARK    3  A    between atoms: O_11  and  C_3 
REMARK    4  A    between atoms: C_14  and  N_4 
REMARK    5  A    between atoms: C_15  and  N_4 
REMARK    6  A    between atoms: C_16  and  O_11 
ROOT
ATOM      1  C   UNL d   1      32.839  18.719 -23.337  0.00  0.00     0.064 A 
ATOM      2  C   UNL d   1      33.004  20.219 -22.679  0.00  0.00     0.086 A 
ATOM      3  C   UNL d   1      32.952  18.805 -22.520  0.00  0.00     0.007 A 
ATOM      4  C   UNL d   1      32.809  19.370 -23.817  0.00  0.00     0.007 A 
ATOM      5  C   UNL d   1      33.034  19.568 -22.199  0.00  0.00     0.019 A 
ATOM      6  C   UNL d   1      32.891  20.128 -23.496  0.00  0.00     0.019 A 
ENDROOT
BRANCH   2   7
ATOM      7  N   UNL d   1      33.086  20.974 -22.362  0.00  0.00    -0.192 NA
ATOM      8  C   UNL d   1      32.606  21.203 -21.723  0.00  0.00     0.354 C 
ATOM      9  N   UNL d   1      32.686  21.950 -21.409  0.00  0.00    -0.256 N 
ATOM     10  O   UNL d   1      32.055  20.672 -21.414  0.00  0.00    -0.244 OA
BRANCH   9  11
ATOM     11  C   UNL d   1      33.240  22.474 -21.724  0.00  0.00     0.085 C 
ATOM     12  C   UNL d   1      33.019  23.252 -21.907  0.00  0.00     0.021 C 
ENDBRANCH   9  11
BRANCH   9  13
ATOM     13  C   UNL d   1      32.202  22.176 -20.767  0.00  0.00     0.085 C 
ATOM     14  C   UNL d   1      32.550  22.514 -20.103  0.00  0.00     0.021 C 
ENDBRANCH   9  13
ENDBRANCH   2   7
BRANCH   1  15
ATOM     15  C   UNL d   1      32.757  17.971 -23.659  0.00  0.00     0.300 C 
ATOM     16  O   UNL d   1      33.222  17.735 -24.295  0.00  0.00    -0.259 OA
BRANCH  15  17
ATOM     17  O   UNL d   1      32.203  17.449 -23.342  0.00  0.00    -0.271 OA
BRANCH  17  18
ATOM     18  C   UNL d   1      32.013  16.763 -23.739  0.00  0.00     0.126 C 
ATOM     19  C   UNL d   1      31.463  16.239 -23.425  0.00  0.00     0.029 C 
ENDBRANCH  17  18
ENDBRANCH  15  17
ENDBRANCH   1  15
TORSDOF 6
ENDMDL
MODEL 2
REMARK VINA RESULT:      -2.1      1.483      4.722
REMARK  6 active torsions:
REMARK  status: ('A' for Active; 'I' for Inactive)
REMARK       I    between atoms: N_2  and  C_1 
REMARK       I    between atoms: N_4  and  C_1 
REMARK    1  A    between atoms: C_8  and  N_2 
REMARK    2  A    between atoms: C_3  and  C_5 
REMARK    3  A    between atoms: O_11  and  C_3 
REMARK    4  A    between atoms: C_14  and  N_4 
REMARK    5  A    between atoms: C_15  and  N_4 
REMARK    6  A    between atoms: C_16  and  O_11 
ROOT
ATOM      1  C   UNL d   1      33.188  20.404 -22.242  0.00  0.00     0.064 A 
ATOM      2  C   UNL d   1      33.206  18.857 -22.804  0.00  0.00     0.086 A 
ATOM      3  C   UNL d   1      33.153  20.257 -23.057  0.00  0.00     0.007 A 
ATOM      4  C   UNL d   1      33.231  19.790 -21.716  0.00  0.00     0.007 A 
ATOM      5  C   UNL d   1      33.163  19.471 -23.330  0.00  0.00     0.019 A 
ATOM      6  C   UNL d   1      33.241  19.009 -21.989  0.00  0.00     0.019 A 
ENDROOT
BRANCH   2   7
ATOM      7  N   UNL d   1      33.215  18.079 -23.073  0.00  0.00    -0.192 NA
ATOM      8  C   UNL d   1      32.504  17.719 -23.308  0.00  0.00     0.354 C 
ATOM      9  N   UNL d   1      32.514  16.950 -23.574  0.00  0.00    -0.256 N 
ATOM     10  O   UNL d   1      31.798  18.144 -23.269  0.00  0.00    -0.244 OA
BRANCH   9  11
ATOM     11  C   UNL d   1      33.225  16.532 -23.610  0.00  0.00     0.085 C 
ATOM     12  C   UNL d   1      33.219  15.705 -23.654  0.00  0.00     0.021 C 
ENDBRANCH   9  11
BRANCH   9  13
ATOM     13  C   UNL d   1      31.797  16.591 -23.810  0.00  0.00     0.085 C 
ATOM     14  C   UNL d   1      31.808  16.029 -24.410  0.00  0.00     0.021 C 
ENDBRANCH   9  13
ENDBRANCH   2   7
BRANCH   1  15
ATOM     15  C   UNL d   1      33.179  21.175 -21.968  0.00  0.00     0.300 C 
ATOM     16  O   UNL d   1      33.193  21.807 -22.493  0.00  0.00    -0.259 OA
BRANCH  15  17
ATOM     17  O   UNL d   1      33.156  21.318 -21.155  0.00  0.00    -0.271 OA
BRANCH  17  18
ATOM     18  C   UNL d   1      33.198  22.082 -20.873  0.00  0.00     0.126 C 
ATOM     19  C   UNL d   1      33.110  22.234 -20.070  0.00  0.00     0.029 C 
ENDBRANCH  17  18
ENDBRANCH  15  17
ENDBRANCH   1  15
TORSDOF 6
ENDMDL
MODEL 3
REMARK VINA RESULT:      -1.7      1.394      4.661
REMARK  6 active torsions:
REMARK  status: ('A' for Active; 'I' for Inactive)
REMARK       I    between atoms: N_2  and  C_1 
REMARK       I    between atoms: N_4  and  C_1 
REMARK    1  A    between atoms: C_8  and  N_2 
REMARK    2  A    between atoms: C_3  and  C_5 
REMARK    3  A    between atoms: O_11  and  C_3 
REMARK    4  A    between atoms: C_14  and  N_4 
REMARK    5  A    between atoms: C_15  and  N_4 
REMARK    6  A    between atoms: C_16  and  O_11 
ROOT
ATOM      1  C   UNL d   1      32.995  21.948 -21.061  0.00  0.00     0.064 A 
ATOM      2  C   UNL d   1      32.973  20.742 -22.181  0.00  0.00     0.086 A 
ATOM      3  C   UNL d   1      32.734  21.190 -20.851  0.00  0.00     0.007 A 
ATOM      4  C   UNL d   1      33.241  22.102 -21.817  0.00  0.00     0.007 A 
ATOM      5  C   UNL d   1      32.727  20.588 -21.424  0.00  0.00     0.019 A 
ATOM      6  C   UNL d   1      33.234  21.502 -22.387  0.00  0.00     0.019 A 
ENDROOT
BRANCH   2   7
ATOM      7  N   UNL d   1      32.967  20.146 -22.750  0.00  0.00    -0.192 NA
ATOM      8  C   UNL d   1      33.102  19.359 -22.518  0.00  0.00     0.354 C 
ATOM      9  N   UNL d   1      33.095  18.771 -23.081  0.00  0.00    -0.256 N 
ATOM     10  O   UNL d   1      33.240  19.184 -21.725  0.00  0.00    -0.244 OA
BRANCH   9  11
ATOM     11  C   UNL d   1      32.955  18.956 -23.873  0.00  0.00     0.085 C 
ATOM     12  C   UNL d   1      32.931  18.354 -24.442  0.00  0.00     0.021 C 
ENDBRANCH   9  11
BRANCH   9  13
ATOM     13  C   UNL d   1      33.231  17.981 -22.845  0.00  0.00     0.085 C 
ATOM     14  C   UNL d   1      32.637  17.423 -22.954  0.00  0.00     0.021 C 
ENDBRANCH   9  13
ENDBRANCH   2   7
BRANCH   1  15
ATOM     15  C   UNL d   1      33.004  22.545 -20.500  0.00  0.00     0.300 C 
ATOM     16  O   UNL d   1      32.946  23.333 -20.727  0.00  0.00    -0.259 OA
BRANCH  15  17
ATOM     17  O   UNL d   1      33.072  22.352 -19.701  0.00  0.00    -0.271 OA
BRANCH  17  18
ATOM     18  C   UNL d   1      33.171  22.940 -19.146  0.00  0.00     0.126 C 
ATOM     19  C   UNL d   1      33.212  22.754 -18.346  0.00  0.00     0.029 C 
ENDBRANCH  17  18
ENDBRANCH  15  17
ENDBRANCH   1  15
TORSDOF 6
ENDMDL
MODEL 4
REMARK VINA RESULT:      -1.5      2.631      4.381
REMARK  6 active torsions:
REMARK  status: ('A' for Active; 'I' for Inactive)
REMARK       I    between atoms: N_2  and  C_1 
REMARK       I    between atoms: N_4  and  C_1 
REMARK    1  A    between atoms: C_8  and  N_2 
REMARK    2  A    between atoms: C_3  and  C_5 
REMARK    3  A    between atoms: O_11  and  C_3 
REMARK    4  A    between atoms: C_14  and  N_4 
REMARK    5  A    between atoms: C_15  and  N_4 
REMARK    6  A    between atoms: C_16  and  O_11 
ROOT
ATOM      1  C   UNL d   1      29.581  16.359 -24.553  0.00  0.00     0.064 A 
ATOM      2  C   UNL d   1      30.901  17.324 -24.739  0.00  0.00     0.086 A 
ATOM      3  C   UNL d   1      30.339  16.062 -24.395  0.00  0.00     0.007 A 
ATOM      4  C   UNL d   1      29.484  17.124 -24.800  0.00  0.00     0.007 A 
ATOM      5  C   UNL d   1      30.999  16.558 -24.493  0.00  0.00     0.019 A 
ATOM      6  C   UNL d   1      30.141  17.617 -24.896  0.00  0.00     0.019 A 
ENDROOT
BRANCH   2   7
ATOM      7  N   UNL d   1      31.555  17.816 -24.836  0.00  0.00    -0.192 NA
ATOM      8  C   UNL d   1      32.071  17.940 -24.196  0.00  0.00     0.354 C 
ATOM      9  N   UNL d   1      32.717  18.426 -24.292  0.00  0.00    -0.256 N 
ATOM     10  O   UNL d   1      31.924  17.570 -23.474  0.00  0.00    -0.244 OA
BRANCH   9  11
ATOM     11  C   UNL d   1      32.856  18.793 -25.018  0.00  0.00     0.085 C 
ATOM     12  C   UNL d   1      33.240  19.526 -25.047  0.00  0.00     0.021 C 
ENDBRANCH   9  11
BRANCH   9  13
ATOM     13  C   UNL d   1      33.233  18.549 -23.647  0.00  0.00     0.085 C 
ATOM     14  C   UNL d   1      33.218  19.270 -23.253  0.00  0.00     0.021 C 
ENDBRANCH   9  13
ENDBRANCH   2   7
BRANCH   1  15
ATOM     15  C   UNL d   1      28.928  15.875 -24.459  0.00  0.00     0.300 C 
ATOM     16  O   UNL d   1      28.623  15.453 -25.096  0.00  0.00    -0.259 OA
BRANCH  15  17
ATOM     17  O   UNL d   1      28.572  15.811 -23.718  0.00  0.00    -0.271 OA
BRANCH  17  18
ATOM     18  C   UNL d   1      27.830  15.479 -23.647  0.00  0.00     0.126 C 
ATOM     19  C   UNL d   1      27.436  15.491 -22.926  0.00  0.00     0.029 C 
ENDBRANCH  17  18
ENDBRANCH  15  17
ENDBRANCH   1  15
TORSDOF 6
ENDMDL
MODEL 5
REMARK VINA RESULT:      -0.4      3.572      5.528
REMARK  6 active torsions:
REMARK  status: ('A' for Active; 'I' for Inactive)
REMARK       I    between atoms: N_2  and  C_1 
REMARK       I    between atoms: N_4  and  C_1 
REMARK    1  A    between atoms: C_8  and  N_2 
REMARK    2  A    between atoms: C_3  and  C_5 
REMARK    3  A    between atoms: O_11  and  C_3 
REMARK    4  A    between atoms: C_14  and  N_4 
REMARK    5  A    between atoms: C_15  and  N_4 
REMARK    6  A    between atoms: C_16  and  O_11 
ROOT
ATOM      1  C   UNL d   1      28.871  15.641 -24.171  0.00  0.00     0.064 A 
ATOM      2  C   UNL d   1      30.484  15.822 -23.898  0.00  0.00     0.086 A 
ATOM      3  C   UNL d   1      29.384  15.805 -24.801  0.00  0.00     0.007 A 
ATOM      4  C   UNL d   1      29.158  15.570 -23.417  0.00  0.00     0.007 A 
ATOM      5  C   UNL d   1      30.197  15.894 -24.652  0.00  0.00     0.019 A 
ATOM      6  C   UNL d   1      29.968  15.659 -23.270  0.00  0.00     0.019 A 
ENDROOT
BRANCH   2   7
ATOM      7  N   UNL d   1      31.290  15.911 -23.750  0.00  0.00    -0.192 NA
ATOM      8  C   UNL d   1      31.607  16.673 -23.657  0.00  0.00     0.354 C 
ATOM      9  N   UNL d   1      32.403  16.761 -23.510  0.00  0.00    -0.256 N 
ATOM     10  O   UNL d   1      31.113  17.331 -23.713  0.00  0.00    -0.244 OA
BRANCH   9  11
ATOM     11  C   UNL d   1      32.889  16.096 -23.455  0.00  0.00     0.085 C 
ATOM     12  C   UNL d   1      33.227  15.887 -22.728  0.00  0.00     0.021 C 
ENDBRANCH   9  11
BRANCH   9  13
ATOM     13  C   UNL d   1      32.718  17.528 -23.417  0.00  0.00     0.085 C 
ATOM     14  C   UNL d   1      33.229  17.824 -23.989  0.00  0.00     0.021 C 
ENDBRANCH   9  13
ENDBRANCH   2   7
BRANCH   1  15
ATOM     15  C   UNL d   1      28.070  15.552 -24.311  0.00  0.00     0.300 C 
ATOM     16  O   UNL d   1      27.778  15.530 -25.079  0.00  0.00    -0.259 OA
BRANCH  15  17
ATOM     17  O   UNL d   1      27.550  15.484 -23.674  0.00  0.00    -0.271 OA
BRANCH  17  18
ATOM     18  C   UNL d   1      26.745  15.473 -23.802  0.00  0.00     0.126 C 
ATOM     19  C   UNL d   1      26.223  15.453 -23.168  0.00  0.00     0.029 C 
ENDBRANCH  17  18
ENDBRANCH  15  17
ENDBRANCH   1  15
TORSDOF 6
ENDMDL
MODEL 6
REMARK VINA RESULT:       0.0      3.441      5.857
REMARK  6 active torsions:
REMARK  status: ('A' for Active; 'I' for Inactive)
REMARK       I    between atoms: N_2  and  C_1 
REMARK       I    between atoms: N_4  and  C_1 
REMARK    1  A    between atoms: C_8  and  N_2 
REMARK    2  A    between atoms: C_3  and  C_5 
REMARK    3  A    between atoms: O_11  and  C_3 
REMARK    4  A    between atoms: C_14  and  N_4 
REMARK    5  A    between atoms: C_15  and  N_4 
REMARK    6  A    between atoms: C_16  and  O_11 
ROOT
ATOM      1  C   UNL d   1      32.513  23.419 -18.437  0.00  0.00     0.064 A 
ATOM      2  C   UNL d   1      32.557  23.539 -20.078  0.00  0.00     0.086 A 
ATOM      3  C   UNL d   1      33.228  23.578 -18.824  0.00  0.00     0.007 A 
ATOM      4  C   UNL d   1      31.830  23.322 -18.862  0.00  0.00     0.007 A 
ATOM      5  C   UNL d   1      33.239  23.636 -19.653  0.00  0.00     0.019 A 
ATOM      6  C   UNL d   1      31.842  23.380 -19.687  0.00  0.00     0.019 A 
ENDROOT
BRANCH   2   7
ATOM      7  N   UNL d   1      32.566  23.596 -20.900  0.00  0.00    -0.192 NA
ATOM      8  C   UNL d   1      32.848  22.957 -21.351  0.00  0.00     0.354 C 
ATOM      9  N   UNL d   1      32.857  23.014 -22.163  0.00  0.00    -0.256 N 
ATOM     10  O   UNL d   1      33.113  22.275 -20.972  0.00  0.00    -0.244 OA
BRANCH   9  11
ATOM     11  C   UNL d   1      32.589  23.702 -22.533  0.00  0.00     0.085 C 
ATOM     12  C   UNL d   1      32.226  23.658 -23.277  0.00  0.00     0.021 C 
ENDBRANCH   9  11
BRANCH   9  13
ATOM     13  C   UNL d   1      33.141  22.370 -22.613  0.00  0.00     0.085 C 
ATOM     14  C   UNL d   1      33.116  22.413 -23.434  0.00  0.00     0.021 C 
ENDBRANCH   9  13
ENDBRANCH   2   7
BRANCH   1  15
ATOM     15  C   UNL d   1      32.496  23.361 -17.621  0.00  0.00     0.300 C 
ATOM     16  O   UNL d   1      31.825  23.578 -17.199  0.00  0.00    -0.259 OA
BRANCH  15  17
ATOM     17  O   UNL d   1      33.160  23.080 -17.219  0.00  0.00    -0.271 OA
BRANCH  17  18
ATOM     18  C   UNL d   1      33.080  22.751 -16.478  0.00  0.00     0.126 C 
ATOM     19  C   UNL d   1      33.185  23.211 -15.804  0.00  0.00     0.029 C 
ENDBRANCH  17  18
ENDBRANCH  15  17
ENDBRANCH   1  15
TORSDOF 6
ENDMDL
