MODEL 1
REMARK VINA RESULT:      18.6      0.000      0.000
REMARK  3 active torsions:
REMARK  status: ('A' for Active; 'I' for Inactive)
REMARK    1  A    between atoms: C_7  and  C_3 
REMARK    2  A    between atoms: N_5  and  C_8 
REMARK    3  A    between atoms: C_13  and  C_7 
ROOT
ATOM      1  C   UNL d   1     -58.577 -98.809 -44.126  0.00  0.00     0.127 A 
ATOM      2  C   UNL d   1     -57.212 -98.778 -44.600  0.00  0.00     0.002 A 
ATOM      3  C   UNL d   1     -57.771 -98.787 -43.954  0.00  0.00     0.024 A 
ATOM      4  C   UNL d   1     -58.837 -98.822 -44.898  0.00  0.00     0.024 A 
ATOM      5  C   UNL d   1     -58.273 -98.813 -45.526  0.00  0.00     0.002 A 
ATOM      6  C   UNL d   1     -57.462 -98.790 -45.355  0.00  0.00     0.000 A 
ENDROOT
BRANCH   2   7
ATOM      7  C   UNL d   1     -56.410 -98.756 -44.419  0.00  0.00     0.011 C 
BRANCH   7   8
ATOM      8  C   UNL d   1     -55.980 -99.476 -44.417  0.00  0.00     0.092 A 
ATOM      9  C   UNL d   1     -55.212 -99.480 -44.551  0.00  0.00     0.288 A 
ATOM     10  N   UNL d   1     -54.955-100.262 -44.512  0.00  0.00    -0.163 NA
ATOM     11  O   UNL d   1     -54.730 -98.805 -44.709  0.00  0.00    -0.265 OA
ATOM     12  C   UNL d   1     -55.596-100.729 -44.349  0.00  0.00     0.313 A 
ATOM     13  S   UNL d   1     -56.248-100.267 -44.285  0.00  0.00    -0.021 SA
ATOM     14  O   UNL d   1     -55.600-101.571 -44.258  0.00  0.00    -0.258 OA
ENDBRANCH   7   8
ENDBRANCH   2   7
BRANCH   1  15
ATOM     15  N   UNL d   1     -59.130 -98.818 -43.521  0.00  0.00    -0.114 N 
ATOM     16  O   UNL d   1     -58.889 -98.764 -42.734  0.00  0.00    -0.532 OA
ATOM     17  O   UNL d   1     -59.922 -98.880 -43.699  0.00  0.00    -0.532 OA
ENDBRANCH   1  15
TORSDOF 3
ENDMDL
MODEL 2
REMARK VINA RESULT:      19.2      1.170      3.538
REMARK  3 active torsions:
REMARK  status: ('A' for Active; 'I' for Inactive)
REMARK    1  A    between atoms: C_7  and  C_3 
REMARK    2  A    between atoms: N_5  and  C_8 
REMARK    3  A    between atoms: C_13  and  C_7 
ROOT
ATOM      1  C   UNL d   1     -55.301-100.422 -44.392  0.00  0.00     0.127 A 
ATOM      2  C   UNL d   1     -55.993 -99.164 -44.219  0.00  0.00     0.002 A 
ATOM      3  C   UNL d   1     -55.946-100.006 -44.088  0.00  0.00     0.024 A 
ATOM      4  C   UNL d   1     -54.719-100.036 -44.810  0.00  0.00     0.024 A 
ATOM      5  C   UNL d   1     -54.778 -99.202 -44.931  0.00  0.00     0.002 A 
ATOM      6  C   UNL d   1     -55.425 -98.784 -44.626  0.00  0.00     0.000 A 
ENDROOT
BRANCH   2   7
ATOM      7  C   UNL d   1     -56.639 -98.758 -43.912  0.00  0.00     0.011 C 
BRANCH   7   8
ATOM      8  C   UNL d   1     -57.355 -98.759 -44.348  0.00  0.00     0.092 A 
ATOM      9  C   UNL d   1     -58.043 -98.766 -43.980  0.00  0.00     0.288 A 
ATOM     10  N   UNL d   1     -58.635 -98.766 -44.554  0.00  0.00    -0.163 NA
ATOM     11  O   UNL d   1     -58.161 -98.771 -43.144  0.00  0.00    -0.265 OA
ATOM     12  C   UNL d   1     -58.278 -98.759 -45.281  0.00  0.00     0.313 A 
ATOM     13  S   UNL d   1     -57.483 -98.755 -45.184  0.00  0.00    -0.021 SA
ATOM     14  O   UNL d   1     -58.665 -98.757 -46.035  0.00  0.00    -0.258 OA
ENDBRANCH   7   8
ENDBRANCH   2   7
BRANCH   1  15
ATOM     15  N   UNL d   1     -55.238-101.231 -44.277  0.00  0.00    -0.114 N 
ATOM     16  O   UNL d   1     -55.323-101.750 -44.913  0.00  0.00    -0.532 OA
ATOM     17  O   UNL d   1     -55.089-101.523 -43.532  0.00  0.00    -0.532 OA
ENDBRANCH   1  15
TORSDOF 3
ENDMDL
