MODEL 1
REMARK VINA RESULT:       8.7      0.000      0.000
REMARK  7 active torsions:
REMARK  status: ('A' for Active; 'I' for Inactive)
REMARK    1  A    between atoms: C_3  and  C_1 
REMARK    2  A    between atoms: C_9  and  N_2 
REMARK    3  A    between atoms: C_6  and  C_3 
REMARK    4  A    between atoms: C_8  and  C_3 
REMARK       I    between atoms: N_11  and  C_6 
REMARK    5  A    between atoms: C_26  and  C_7 
REMARK    6  A    between atoms: C_21  and  N_11 
REMARK    7  A    between atoms: C_12  and  C_21 
ROOT
ATOM      1  C   UNL d   1     -42.042-122.922 -51.474  0.00  0.00     0.103 A 
ATOM      2  N   UNL d   1     -41.809-122.263 -51.907  0.00  0.00    -0.269 N 
ATOM      3  S   UNL d   1     -41.973-123.585 -51.961  0.00  0.00    -0.064 SA
ATOM      4  C   UNL d   1     -41.594-122.511 -52.665  0.00  0.00     0.271 A 
ATOM      5  C   UNL d   1     -41.697-123.331 -52.695  0.00  0.00     0.087 A 
ATOM      6  O   UNL d   1     -41.327-122.029 -53.275  0.00  0.00    -0.266 OA
ENDROOT
BRANCH   1   7
ATOM      7  C   UNL d   1     -42.301-122.924 -50.687  0.00  0.00     0.101 C 
BRANCH   7   8
ATOM      8  C   UNL d   1     -41.883-123.345 -50.112  0.00  0.00     0.283 C 
ATOM      9  N   UNL d   1     -42.104-123.300 -49.324  0.00  0.00    -0.204 NA
ATOM     10  O   UNL d   1     -41.238-123.815 -50.336  0.00  0.00    -0.265 OA
BRANCH   9  11
ATOM     11  C   UNL d   1     -41.684-123.721 -48.749  0.00  0.00     0.127 C 
BRANCH  11  12
ATOM     12  C   UNL d   1     -41.737-123.514 -47.955  0.00  0.00     0.119 A 
ATOM     13  O   UNL d   1     -41.259-122.980 -47.551  0.00  0.00    -0.304 OA
ATOM     14  C   UNL d   1     -41.512-122.946 -46.766  0.00  0.00     0.123 A 
ATOM     15  C   UNL d   1     -42.148-123.461 -46.684  0.00  0.00     0.029 A 
ATOM     16  C   UNL d   1     -42.290-123.814 -47.414  0.00  0.00     0.028 A 
ENDBRANCH  11  12
ENDBRANCH   9  11
ENDBRANCH   7   8
BRANCH   7  17
ATOM     17  C   UNL d   1     -42.984-122.501 -50.475  0.00  0.00     0.129 C 
ATOM     18  N   UNL d   1     -43.648-122.910 -50.213  0.00  0.00    -0.146 N 
ENDBRANCH   7  17
ENDBRANCH   1   7
BRANCH   2  19
ATOM     19  C   UNL d   1     -41.637-121.478 -52.102  0.00  0.00     0.068 A 
ATOM     20  C   UNL d   1     -41.514-120.925 -51.514  0.00  0.00     0.020 A 
ATOM     21  C   UNL d   1     -41.343-120.146 -51.709  0.00  0.00     0.031 A 
ATOM     22  C   UNL d   1     -41.295-119.923 -52.505  0.00  0.00     0.140 A 
ATOM     23  C   UNL d   1     -41.420-120.484 -53.096  0.00  0.00     0.031 A 
ATOM     24  F   UNL d   1     -41.125-119.144 -52.708  0.00  0.00    -0.204 F 
ATOM     25  C   UNL d   1     -41.590-121.260 -52.898  0.00  0.00     0.020 A 
ENDBRANCH   2  19
BRANCH   5  26
ATOM     26  C   UNL d   1     -41.546-123.807 -53.353  0.00  0.00     0.011 C 
ATOM     27  C   UNL d   1     -41.856-123.608 -54.085  0.00  0.00     0.001 C 
ENDBRANCH   5  26
TORSDOF 7
ENDMDL
