MODEL 1
REMARK VINA RESULT:      75.8      0.000      0.000
REMARK  2 active torsions:
REMARK  status: ('A' for Active; 'I' for Inactive)
REMARK    1  A    between atoms: N_9  and  C_3 
REMARK    2  A    between atoms: C_11  and  C_4 
ROOT
ATOM      1  N   UNL d   1     -56.701 -99.347 -44.463  0.00  0.00    -0.196 N 
ATOM      2  C   UNL d   1     -57.085 -99.144 -45.158  0.00  0.00     0.167 A 
ATOM      3  C   UNL d   1     -55.876 -99.355 -44.430  0.00  0.00     0.153 A 
ATOM      4  C   UNL d   1     -57.893 -99.184 -45.025  0.00  0.00     0.057 A 
ATOM      5  N   UNL d   1     -57.270 -99.512 -43.896  0.00  0.00    -0.161 NA
ATOM      6  N   UNL d   1     -56.650 -98.948 -45.832  0.00  0.00    -0.227 NA
ATOM      7  C   UNL d   1     -55.438 -99.159 -45.105  0.00  0.00     0.057 A 
ATOM      8  C   UNL d   1     -58.007 -99.409 -44.250  0.00  0.00     0.124 A 
ATOM      9  C   UNL d   1     -55.822 -98.957 -45.801  0.00  0.00     0.086 A 
ATOM     10  C   UNL d   1     -55.374 -98.760 -46.476  0.00  0.00     0.021 C 
ENDROOT
BRANCH   3  11
ATOM     11  N   UNL d   1     -55.492 -99.558 -43.734  0.00  0.00    -0.285 N 
ATOM     12  C   UNL d   1     -55.210 -98.967 -43.227  0.00  0.00     0.108 A 
ATOM     13  C   UNL d   1     -54.824 -99.170 -42.528  0.00  0.00     0.142 A 
ATOM     14  O   UNL d   1     -54.718 -99.965 -42.332  0.00  0.00    -0.300 OA
ATOM     15  C   UNL d   1     -54.998-100.555 -42.834  0.00  0.00     0.142 A 
ATOM     16  C   UNL d   1     -55.383-100.352 -43.534  0.00  0.00     0.108 A 
ENDBRANCH   3  11
BRANCH   4  17
ATOM     17  C   UNL d   1     -58.542 -99.042 -45.512  0.00  0.00     0.004 A 
ATOM     18  C   UNL d   1     -58.440 -98.934 -46.332  0.00  0.00     0.000 A 
ATOM     19  C   UNL d   1     -59.092 -98.794 -46.810  0.00  0.00     0.000 A 
ATOM     20  C   UNL d   1     -59.855 -98.758 -46.484  0.00  0.00     0.000 A 
ATOM     21  C   UNL d   1     -59.955 -98.865 -45.672  0.00  0.00     0.000 A 
ATOM     22  C   UNL d   1     -59.301 -99.007 -45.184  0.00  0.00     0.000 A 
ENDBRANCH   4  17
TORSDOF 2
ENDMDL
MODEL 2
REMARK VINA RESULT:      77.0      3.130      5.019
REMARK  2 active torsions:
REMARK  status: ('A' for Active; 'I' for Inactive)
REMARK    1  A    between atoms: N_9  and  C_3 
REMARK    2  A    between atoms: C_11  and  C_4 
ROOT
ATOM      1  N   UNL d   1     -54.855-101.304 -43.536  0.00  0.00    -0.196 N 
ATOM      2  C   UNL d   1     -54.806-101.100 -42.743  0.00  0.00     0.167 A 
ATOM      3  C   UNL d   1     -54.857-100.718 -44.117  0.00  0.00     0.153 A 
ATOM      4  C   UNL d   1     -54.815-101.790 -42.301  0.00  0.00     0.057 A 
ATOM      5  N   UNL d   1     -54.894-102.121 -43.586  0.00  0.00    -0.161 NA
ATOM      6  N   UNL d   1     -54.760-100.306 -42.520  0.00  0.00    -0.227 NA
ATOM      7  C   UNL d   1     -54.810 -99.922 -43.895  0.00  0.00     0.057 A 
ATOM      8  C   UNL d   1     -54.869-102.417 -42.817  0.00  0.00     0.124 A 
ATOM      9  C   UNL d   1     -54.762 -99.717 -43.102  0.00  0.00     0.086 A 
ATOM     10  C   UNL d   1     -54.715 -98.912 -42.887  0.00  0.00     0.021 C 
ENDROOT
BRANCH   3  11
ATOM     11  N   UNL d   1     -54.906-100.922 -44.910  0.00  0.00    -0.285 N 
ATOM     12  C   UNL d   1     -55.047-101.709 -45.130  0.00  0.00     0.108 A 
ATOM     13  C   UNL d   1     -55.096-101.914 -45.926  0.00  0.00     0.142 A 
ATOM     14  O   UNL d   1     -55.004-101.334 -46.508  0.00  0.00    -0.300 OA
ATOM     15  C   UNL d   1     -54.863-100.552 -46.292  0.00  0.00     0.142 A 
ATOM     16  C   UNL d   1     -54.814-100.347 -45.495  0.00  0.00     0.108 A 
ENDBRANCH   3  11
BRANCH   4  17
ATOM     17  C   UNL d   1     -54.781-101.927 -41.489  0.00  0.00     0.004 A 
ATOM     18  C   UNL d   1     -54.776-101.291 -40.952  0.00  0.00     0.000 A 
ATOM     19  C   UNL d   1     -54.742-101.436 -40.145  0.00  0.00     0.000 A 
ATOM     20  C   UNL d   1     -54.713-102.215 -39.857  0.00  0.00     0.000 A 
ATOM     21  C   UNL d   1     -54.718-102.845 -40.390  0.00  0.00     0.000 A 
ATOM     22  C   UNL d   1     -54.753-102.704 -41.206  0.00  0.00     0.000 A 
ENDBRANCH   4  17
TORSDOF 2
ENDMDL
