MODEL 1
REMARK VINA RESULT:      -4.0      0.000      0.000
REMARK  5 active torsions:
REMARK  status: ('A' for Active; 'I' for Inactive)
REMARK    1  A    between atoms: N_5  and  C_1 
REMARK       I    between atoms: C_9  and  N_5 
REMARK    2  A    between atoms: C_17  and  C_9 
REMARK    3  A    between atoms: C_12  and  C_10 
REMARK    4  A    between atoms: C_11  and  S_13 
REMARK    5  A    between atoms: S_13  and  C_17 
ROOT
ATOM      1  N   UNL d   1      56.018  -0.638  33.368  0.00  0.00    -0.148 NA
ATOM      2  N   UNL d   1      56.446  -0.827  32.689  0.00  0.00    -0.141 NA
ATOM      3  C   UNL d   1      55.686   0.117  33.453  0.00  0.00     0.104 A 
ATOM      4  C   UNL d   1      56.549  -0.274  32.093  0.00  0.00     0.133 A 
ATOM      5  C   UNL d   1      55.788   0.677  32.853  0.00  0.00     0.023 A 
ATOM      6  C   UNL d   1      56.216   0.486  32.177  0.00  0.00     0.029 A 
ENDROOT
BRANCH   4   7
ATOM      7  S   UNL d   1      56.978  -0.463  31.414  0.00  0.00    -0.061 SA
BRANCH   7   8
ATOM      8  C   UNL d   1      57.438   0.106  31.042  0.00  0.00     0.099 C 
BRANCH   8   9
ATOM      9  C   UNL d   1      57.962  -0.121  30.443  0.00  0.00     0.288 C 
ATOM     10  N   UNL d   1      58.643   0.321  30.307  0.00  0.00    -0.181 NA
ATOM     11  O   UNL d   1      57.804  -0.785  29.986  0.00  0.00    -0.265 OA
BRANCH  10  12
ATOM     12  C   UNL d   1      59.163   0.100  29.716  0.00  0.00     0.219 A 
ATOM     13  S   UNL d   1      59.989   0.159  29.745  0.00  0.00    -0.026 SA
ATOM     14  C   UNL d   1      60.287  -0.123  29.041  0.00  0.00     0.135 A 
ATOM     15  C   UNL d   1      61.086  -0.165  28.833  0.00  0.00     0.030 C 
ATOM     16  N   UNL d   1      59.653  -0.359  28.571  0.00  0.00    -0.139 NA
ATOM     17  N   UNL d   1      58.957  -0.222  28.988  0.00  0.00    -0.121 NA
ENDBRANCH  10  12
ENDBRANCH   8   9
ENDBRANCH   7   8
ENDBRANCH   4   7
BRANCH   3  18
ATOM     18  C   UNL d   1      55.257   0.306  34.132  0.00  0.00     0.039 A 
ATOM     19  C   UNL d   1      55.640   0.361  34.848  0.00  0.00     0.101 A 
ATOM     20  N   UNL d   1      55.219   0.548  35.525  0.00  0.00    -0.242 NA
ATOM     21  C   UNL d   1      54.399   0.682  35.477  0.00  0.00     0.099 A 
ATOM     22  C   UNL d   1      54.019   0.626  34.755  0.00  0.00     0.021 A 
ATOM     23  C   UNL d   1      54.439   0.437  34.070  0.00  0.00     0.005 A 
ENDBRANCH   3  18
TORSDOF 5
ENDMDL
MODEL 2
REMARK VINA RESULT:      -3.0      1.987      5.884
REMARK  5 active torsions:
REMARK  status: ('A' for Active; 'I' for Inactive)
REMARK    1  A    between atoms: N_5  and  C_1 
REMARK       I    between atoms: C_9  and  N_5 
REMARK    2  A    between atoms: C_17  and  C_9 
REMARK    3  A    between atoms: C_12  and  C_10 
REMARK    4  A    between atoms: C_11  and  S_13 
REMARK    5  A    between atoms: S_13  and  C_17 
ROOT
ATOM      1  N   UNL d   1      58.186  -1.992  30.039  0.00  0.00    -0.148 NA
ATOM      2  N   UNL d   1      57.727  -1.395  30.376  0.00  0.00    -0.141 NA
ATOM      3  C   UNL d   1      58.807  -1.798  29.525  0.00  0.00     0.104 A 
ATOM      4  C   UNL d   1      57.879  -0.608  30.209  0.00  0.00     0.133 A 
ATOM      5  C   UNL d   1      58.962  -1.003  29.354  0.00  0.00     0.023 A 
ATOM      6  C   UNL d   1      58.503  -0.411  29.693  0.00  0.00     0.029 A 
ENDROOT
BRANCH   4   7
ATOM      7  S   UNL d   1      57.420  -0.012  30.547  0.00  0.00    -0.061 SA
BRANCH   7   8
ATOM      8  C   UNL d   1      57.555   0.229  31.320  0.00  0.00     0.099 C 
BRANCH   8   9
ATOM      9  C   UNL d   1      56.914   0.337  31.832  0.00  0.00     0.288 C 
ATOM     10  N   UNL d   1      56.973   0.100  32.617  0.00  0.00    -0.181 NA
ATOM     11  O   UNL d   1      56.221   0.681  31.558  0.00  0.00    -0.265 OA
BRANCH  10  12
ATOM     12  C   UNL d   1      56.342   0.205  33.127  0.00  0.00     0.219 A 
ATOM     13  S   UNL d   1      56.389   0.424  33.924  0.00  0.00    -0.026 SA
ATOM     14  C   UNL d   1      55.630   0.465  34.219  0.00  0.00     0.135 A 
ATOM     15  C   UNL d   1      55.420   0.665  34.994  0.00  0.00     0.030 C 
ATOM     16  N   UNL d   1      55.109   0.273  33.612  0.00  0.00    -0.139 NA
ATOM     17  N   UNL d   1      55.548   0.112  32.935  0.00  0.00    -0.121 NA
ENDBRANCH  10  12
ENDBRANCH   8   9
ENDBRANCH   7   8
ENDBRANCH   4   7
BRANCH   3  18
ATOM     18  C   UNL d   1      59.266  -2.394  29.187  0.00  0.00     0.039 A 
ATOM     19  C   UNL d   1      60.077  -2.324  29.180  0.00  0.00     0.101 A 
ATOM     20  N   UNL d   1      60.537  -2.914  28.846  0.00  0.00    -0.242 NA
ATOM     21  C   UNL d   1      60.172  -3.584  28.514  0.00  0.00     0.099 A 
ATOM     22  C   UNL d   1      59.356  -3.650  28.523  0.00  0.00     0.021 A 
ATOM     23  C   UNL d   1      58.889  -3.057  28.859  0.00  0.00     0.005 A 
ENDBRANCH   3  18
TORSDOF 5
ENDMDL
MODEL 3
REMARK VINA RESULT:      -2.0      1.511      5.940
REMARK  5 active torsions:
REMARK  status: ('A' for Active; 'I' for Inactive)
REMARK    1  A    between atoms: N_5  and  C_1 
REMARK       I    between atoms: C_9  and  N_5 
REMARK    2  A    between atoms: C_17  and  C_9 
REMARK    3  A    between atoms: C_12  and  C_10 
REMARK    4  A    between atoms: C_11  and  S_13 
REMARK    5  A    between atoms: S_13  and  C_17 
ROOT
ATOM      1  N   UNL d   1      58.397  -1.048  30.279  0.00  0.00    -0.148 NA
ATOM      2  N   UNL d   1      57.891  -0.610  30.761  0.00  0.00    -0.141 NA
ATOM      3  C   UNL d   1      59.032  -0.676  29.897  0.00  0.00     0.104 A 
ATOM      4  C   UNL d   1      58.008   0.193  30.867  0.00  0.00     0.133 A 
ATOM      5  C   UNL d   1      59.153   0.135  30.002  0.00  0.00     0.023 A 
ATOM      6  C   UNL d   1      58.646   0.569  30.484  0.00  0.00     0.029 A 
ENDROOT
BRANCH   4   7
ATOM      7  S   UNL d   1      57.502   0.632  31.349  0.00  0.00    -0.061 SA
BRANCH   7   8
ATOM      8  C   UNL d   1      57.427   0.450  32.147  0.00  0.00     0.099 C 
BRANCH   8   9
ATOM      9  C   UNL d   1      56.676   0.431  32.492  0.00  0.00     0.288 C 
ATOM     10  N   UNL d   1      56.603   0.330  33.305  0.00  0.00    -0.181 NA
ATOM     11  O   UNL d   1      56.005   0.514  32.026  0.00  0.00    -0.265 OA
BRANCH  10  12
ATOM     12  C   UNL d   1      55.861   0.310  33.651  0.00  0.00     0.219 A 
ATOM     13  S   UNL d   1      55.663   0.609  34.398  0.00  0.00    -0.026 SA
ATOM     14  C   UNL d   1      54.868   0.473  34.520  0.00  0.00     0.135 A 
ATOM     15  C   UNL d   1      54.438   0.682  35.195  0.00  0.00     0.030 C 
ATOM     16  N   UNL d   1      54.568   0.092  33.855  0.00  0.00    -0.139 NA
ATOM     17  N   UNL d   1      55.182  -0.009  33.316  0.00  0.00    -0.121 NA
ENDBRANCH  10  12
ENDBRANCH   8   9
ENDBRANCH   7   8
ENDBRANCH   4   7
BRANCH   3  18
ATOM     18  C   UNL d   1      59.538  -1.115  29.415  0.00  0.00     0.039 A 
ATOM     19  C   UNL d   1      60.307  -0.869  29.309  0.00  0.00     0.101 A 
ATOM     20  N   UNL d   1      60.812  -1.301  28.831  0.00  0.00    -0.242 NA
ATOM     21  C   UNL d   1      60.538  -1.990  28.455  0.00  0.00     0.099 A 
ATOM     22  C   UNL d   1      59.764  -2.233  28.565  0.00  0.00     0.021 A 
ATOM     23  C   UNL d   1      59.250  -1.801  29.045  0.00  0.00     0.005 A 
ENDBRANCH   3  18
TORSDOF 5
ENDMDL
