MODEL 1
REMARK VINA RESULT:      30.3      0.000      0.000
REMARK  4 active torsions:
REMARK  status: ('A' for Active; 'I' for Inactive)
REMARK    1  A    between atoms: C_6  and  C_1 
REMARK    2  A    between atoms: S_7  and  C_3 
REMARK    3  A    between atoms: C_17  and  S_7 
REMARK    4  A    between atoms: C_18  and  C_17 
ROOT
ATOM      1  C   UNL d   1     -59.069 -98.761 -44.882  0.00  0.00     0.087 A 
ATOM      2  N   UNL d   1     -59.724 -98.762 -44.375  0.00  0.00    -0.245 NA
ATOM      3  C   UNL d   1     -58.383 -98.759 -44.419  0.00  0.00     0.049 A 
ATOM      4  C   UNL d   1     -58.605 -98.759 -43.625  0.00  0.00     0.025 A 
ATOM      5  C   UNL d   1     -59.437 -98.761 -43.600  0.00  0.00     0.082 A 
ATOM      6  C   UNL d   1     -58.174 -98.758 -42.930  0.00  0.00     0.002 A 
ATOM      7  C   UNL d   1     -59.826 -98.762 -42.873  0.00  0.00     0.019 A 
ATOM      8  C   UNL d   1     -58.564 -98.759 -42.202  0.00  0.00     0.000 A 
ATOM      9  C   UNL d   1     -59.386 -98.761 -42.176  0.00  0.00     0.002 A 
ENDROOT
BRANCH   1  10
ATOM     10  C   UNL d   1     -59.140 -98.761 -45.692  0.00  0.00     0.018 A 
ATOM     11  C   UNL d   1     -58.454 -98.758 -46.166  0.00  0.00     0.004 A 
ATOM     12  C   UNL d   1     -58.527 -98.758 -46.987  0.00  0.00     0.030 A 
ATOM     13  C   UNL d   1     -59.274 -98.762 -47.342  0.00  0.00     0.140 A 
ATOM     14  C   UNL d   1     -59.958 -98.765 -46.872  0.00  0.00     0.030 A 
ATOM     15  F   UNL d   1     -59.354 -98.762 -48.170  0.00  0.00    -0.204 F 
ATOM     16  C   UNL d   1     -59.885 -98.765 -46.052  0.00  0.00     0.004 A 
ENDBRANCH   1  10
BRANCH   3  17
ATOM     17  S   UNL d   1     -57.609 -98.757 -44.701  0.00  0.00    -0.083 SA
BRANCH  17  18
ATOM     18  C   UNL d   1     -56.992 -99.020 -44.198  0.00  0.00     0.058 C 
BRANCH  18  19
ATOM     19  C   UNL d   1     -56.272 -99.259 -44.541  0.00  0.00     0.129 C 
ATOM     20  N   UNL d   1     -55.586 -99.173 -44.109  0.00  0.00    -0.146 N 
ENDBRANCH  18  19
ENDBRANCH  17  18
ENDBRANCH   3  17
TORSDOF 4
ENDMDL
