MODEL 1
REMARK VINA RESULT:      -7.4      0.000      0.000
REMARK  3 active torsions:
REMARK  status: ('A' for Active; 'I' for Inactive)
REMARK    1  A    between atoms: S_9  and  C_2 
REMARK    2  A    between atoms: C_15  and  S_9 
REMARK    3  A    between atoms: C_14  and  C_15 
ROOT
ATOM      1  C   UNL d   1     -46.956  12.134  23.415  0.00  0.00     0.119 A 
ATOM      2  C   UNL d   1     -46.261  12.533  23.206  0.00  0.00     0.119 A 
ATOM      3  O   UNL d   1     -46.742  11.393  23.695  0.00  0.00    -0.300 OA
ATOM      4  O   UNL d   1     -45.627  12.034  23.360  0.00  0.00    -0.300 OA
ATOM      5  C   UNL d   1     -45.926  11.336  23.659  0.00  0.00     0.304 A 
ATOM      6  C   UNL d   1     -47.682  12.499  23.321  0.00  0.00     0.027 A 
ATOM      7  C   UNL d   1     -46.306  13.290  22.908  0.00  0.00     0.026 A 
ATOM      8  C   UNL d   1     -47.725  13.265  23.019  0.00  0.00     0.009 A 
ATOM      9  C   UNL d   1     -47.030  13.664  22.810  0.00  0.00     0.003 A 
ENDROOT
BRANCH   8  10
ATOM     10  C   UNL d   1     -48.454  13.633  22.924  0.00  0.00     0.037 C 
BRANCH  10  11
ATOM     11  S   UNL d   1     -48.502  14.458  22.860  0.00  0.00    -0.059 SA
BRANCH  11  12
ATOM     12  C   UNL d   1     -49.258  14.840  22.840  0.00  0.00     0.164 A 
ATOM     13  S   UNL d   1     -49.629  15.203  23.491  0.00  0.00    -0.039 SA
ATOM     14  C   UNL d   1     -50.370  15.511  23.220  0.00  0.00     0.134 A 
ATOM     15  N   UNL d   1     -50.436  15.331  22.417  0.00  0.00    -0.140 NA
ATOM     16  C   UNL d   1     -50.926  15.922  23.694  0.00  0.00     0.030 C 
ATOM     17  N   UNL d   1     -49.749  14.914  22.172  0.00  0.00    -0.134 NA
ENDBRANCH  11  12
ENDBRANCH  10  11
ENDBRANCH   8  10
TORSDOF 3
ENDMDL
MODEL 2
REMARK VINA RESULT:      -7.2      2.674      4.376
REMARK  3 active torsions:
REMARK  status: ('A' for Active; 'I' for Inactive)
REMARK    1  A    between atoms: S_9  and  C_2 
REMARK    2  A    between atoms: C_15  and  S_9 
REMARK    3  A    between atoms: C_14  and  C_15 
ROOT
ATOM      1  C   UNL d   1     -49.851  13.992  22.042  0.00  0.00     0.119 A 
ATOM      2  C   UNL d   1     -49.897  14.754  22.363  0.00  0.00     0.119 A 
ATOM      3  O   UNL d   1     -50.569  13.831  21.680  0.00  0.00    -0.300 OA
ATOM      4  O   UNL d   1     -50.644  15.054  22.194  0.00  0.00    -0.300 OA
ATOM      5  C   UNL d   1     -51.052  14.485  21.776  0.00  0.00     0.304 A 
ATOM      6  C   UNL d   1     -49.165  13.554  22.125  0.00  0.00     0.027 A 
ATOM      7  C   UNL d   1     -49.257  15.063  22.759  0.00  0.00     0.026 A 
ATOM      8  C   UNL d   1     -48.517  13.870  22.527  0.00  0.00     0.009 A 
ATOM      9  C   UNL d   1     -48.564  14.632  22.848  0.00  0.00     0.003 A 
ENDROOT
BRANCH   8  10
ATOM     10  C   UNL d   1     -47.828  13.431  22.611  0.00  0.00     0.037 C 
BRANCH  10  11
ATOM     11  S   UNL d   1     -47.655  13.054  23.328  0.00  0.00    -0.059 SA
BRANCH  11  12
ATOM     12  C   UNL d   1     -46.962  12.571  23.400  0.00  0.00     0.164 A 
ATOM     13  S   UNL d   1     -46.962  11.749  23.538  0.00  0.00    -0.039 SA
ATOM     14  C   UNL d   1     -46.154  11.498  23.569  0.00  0.00     0.134 A 
ATOM     15  N   UNL d   1     -45.682  12.165  23.450  0.00  0.00    -0.140 NA
ATOM     16  C   UNL d   1     -45.897  10.711  23.698  0.00  0.00     0.030 C 
ATOM     17  N   UNL d   1     -46.176  12.836  23.344  0.00  0.00    -0.134 NA
ENDBRANCH  11  12
ENDBRANCH  10  11
ENDBRANCH   8  10
TORSDOF 3
ENDMDL
MODEL 3
REMARK VINA RESULT:      -7.2      2.653      4.373
REMARK  3 active torsions:
REMARK  status: ('A' for Active; 'I' for Inactive)
REMARK    1  A    between atoms: S_9  and  C_2 
REMARK    2  A    between atoms: C_15  and  S_9 
REMARK    3  A    between atoms: C_14  and  C_15 
ROOT
ATOM      1  C   UNL d   1     -49.869  14.545  23.190  0.00  0.00     0.119 A 
ATOM      2  C   UNL d   1     -49.849  15.326  22.917  0.00  0.00     0.119 A 
ATOM      3  O   UNL d   1     -50.610  14.416  23.519  0.00  0.00    -0.300 OA
ATOM      4  O   UNL d   1     -50.577  15.670  23.081  0.00  0.00    -0.300 OA
ATOM      5  C   UNL d   1     -51.041  15.109  23.449  0.00  0.00     0.304 A 
ATOM      6  C   UNL d   1     -49.215  14.062  23.102  0.00  0.00     0.027 A 
ATOM      7  C   UNL d   1     -49.174  15.610  22.561  0.00  0.00     0.026 A 
ATOM      8  C   UNL d   1     -48.532  14.353  22.741  0.00  0.00     0.009 A 
ATOM      9  C   UNL d   1     -48.511  15.134  22.468  0.00  0.00     0.003 A 
ENDROOT
BRANCH   8  10
ATOM     10  C   UNL d   1     -47.873  13.870  22.651  0.00  0.00     0.037 C 
BRANCH  10  11
ATOM     11  S   UNL d   1     -47.149  14.081  22.993  0.00  0.00    -0.059 SA
BRANCH  11  12
ATOM     12  C   UNL d   1     -46.479  13.565  22.926  0.00  0.00     0.164 A 
ATOM     13  S   UNL d   1     -45.938  13.562  22.292  0.00  0.00    -0.039 SA
ATOM     14  C   UNL d   1     -45.363  12.962  22.454  0.00  0.00     0.134 A 
ATOM     15  N   UNL d   1     -45.563  12.614  23.176  0.00  0.00    -0.140 NA
ATOM     16  C   UNL d   1     -44.714  12.768  21.961  0.00  0.00     0.030 C 
ATOM     17  N   UNL d   1     -46.256  12.983  23.476  0.00  0.00    -0.134 NA
ENDBRANCH  11  12
ENDBRANCH  10  11
ENDBRANCH   8  10
TORSDOF 3
ENDMDL
MODEL 4
REMARK VINA RESULT:      -6.7      3.015      4.324
REMARK  3 active torsions:
REMARK  status: ('A' for Active; 'I' for Inactive)
REMARK    1  A    between atoms: S_9  and  C_2 
REMARK    2  A    between atoms: C_15  and  S_9 
REMARK    3  A    between atoms: C_14  and  C_15 
ROOT
ATOM      1  C   UNL d   1     -49.785  12.506  22.369  0.00  0.00     0.119 A 
ATOM      2  C   UNL d   1     -50.224  12.230  23.013  0.00  0.00     0.119 A 
ATOM      3  O   UNL d   1     -50.310  12.842  21.836  0.00  0.00    -0.300 OA
ATOM      4  O   UNL d   1     -51.016  12.398  22.871  0.00  0.00    -0.300 OA
ATOM      5  C   UNL d   1     -51.064  12.774  22.148  0.00  0.00     0.304 A 
ATOM      6  C   UNL d   1     -48.972  12.414  22.357  0.00  0.00     0.027 A 
ATOM      7  C   UNL d   1     -49.842  11.866  23.634  0.00  0.00     0.026 A 
ATOM      8  C   UNL d   1     -48.587  12.046  22.987  0.00  0.00     0.009 A 
ATOM      9  C   UNL d   1     -49.027  11.769  23.632  0.00  0.00     0.003 A 
ENDROOT
BRANCH   8  10
ATOM     10  C   UNL d   1     -47.771  11.952  22.977  0.00  0.00     0.037 C 
BRANCH  10  11
ATOM     11  S   UNL d   1     -47.275  12.571  23.217  0.00  0.00    -0.059 SA
BRANCH  11  12
ATOM     12  C   UNL d   1     -46.449  12.553  23.029  0.00  0.00     0.164 A 
ATOM     13  S   UNL d   1     -46.075  13.036  22.463  0.00  0.00    -0.039 SA
ATOM     14  C   UNL d   1     -45.253  12.831  22.459  0.00  0.00     0.134 A 
ATOM     15  N   UNL d   1     -45.144  12.232  23.017  0.00  0.00    -0.140 NA
ATOM     16  C   UNL d   1     -44.670  13.182  21.971  0.00  0.00     0.030 C 
ATOM     17  N   UNL d   1     -45.882  12.053  23.376  0.00  0.00    -0.134 NA
ENDBRANCH  11  12
ENDBRANCH  10  11
ENDBRANCH   8  10
TORSDOF 3
ENDMDL
MODEL 5
REMARK VINA RESULT:      -5.4      3.285      4.802
REMARK  3 active torsions:
REMARK  status: ('A' for Active; 'I' for Inactive)
REMARK    1  A    between atoms: S_9  and  C_2 
REMARK    2  A    between atoms: C_15  and  S_9 
REMARK    3  A    between atoms: C_14  and  C_15 
ROOT
ATOM      1  C   UNL d   1     -47.925  13.419  22.290  0.00  0.00     0.119 A 
ATOM      2  C   UNL d   1     -48.058  14.178  22.593  0.00  0.00     0.119 A 
ATOM      3  O   UNL d   1     -48.646  13.125  22.032  0.00  0.00    -0.300 OA
ATOM      4  O   UNL d   1     -48.860  14.343  22.519  0.00  0.00    -0.300 OA
ATOM      5  C   UNL d   1     -49.216  13.695  22.174  0.00  0.00     0.304 A 
ATOM      6  C   UNL d   1     -47.170  13.104  22.291  0.00  0.00     0.027 A 
ATOM      7  C   UNL d   1     -47.433  14.607  22.891  0.00  0.00     0.026 A 
ATOM      8  C   UNL d   1     -46.539  13.540  22.594  0.00  0.00     0.009 A 
ATOM      9  C   UNL d   1     -46.672  14.299  22.897  0.00  0.00     0.003 A 
ENDROOT
BRANCH   8  10
ATOM     10  C   UNL d   1     -45.780  13.225  22.595  0.00  0.00     0.037 C 
BRANCH  10  11
ATOM     11  S   UNL d   1     -45.413  13.013  21.884  0.00  0.00    -0.059 SA
BRANCH  11  12
ATOM     12  C   UNL d   1     -44.601  12.767  21.880  0.00  0.00     0.164 A 
ATOM     13  S   UNL d   1     -43.995  13.121  21.432  0.00  0.00    -0.039 SA
ATOM     14  C   UNL d   1     -43.279  12.699  21.598  0.00  0.00     0.134 A 
ATOM     15  N   UNL d   1     -43.462  12.102  22.139  0.00  0.00    -0.140 NA
ATOM     16  C   UNL d   1     -42.529  12.870  21.266  0.00  0.00     0.030 C 
ATOM     17  N   UNL d   1     -44.282  12.137  22.320  0.00  0.00    -0.134 NA
ENDBRANCH  11  12
ENDBRANCH  10  11
ENDBRANCH   8  10
TORSDOF 3
ENDMDL
MODEL 6
REMARK VINA RESULT:      -5.3      9.195      9.663
REMARK  3 active torsions:
REMARK  status: ('A' for Active; 'I' for Inactive)
REMARK    1  A    between atoms: S_9  and  C_2 
REMARK    2  A    between atoms: C_15  and  S_9 
REMARK    3  A    between atoms: C_14  and  C_15 
ROOT
ATOM      1  C   UNL d   1     -40.654  15.399  18.112  0.00  0.00     0.119 A 
ATOM      2  C   UNL d   1     -40.564  14.702  17.675  0.00  0.00     0.119 A 
ATOM      3  O   UNL d   1     -41.094  15.921  17.657  0.00  0.00    -0.300 OA
ATOM      4  O   UNL d   1     -40.950  14.802  16.956  0.00  0.00    -0.300 OA
ATOM      5  C   UNL d   1     -41.273  15.551  16.950  0.00  0.00     0.304 A 
ATOM      6  C   UNL d   1     -40.324  15.461  18.858  0.00  0.00     0.027 A 
ATOM      7  C   UNL d   1     -40.145  14.079  17.993  0.00  0.00     0.026 A 
ATOM      8  C   UNL d   1     -39.900  14.829  19.177  0.00  0.00     0.009 A 
ATOM      9  C   UNL d   1     -39.811  14.131  18.741  0.00  0.00     0.003 A 
ENDROOT
BRANCH   8  10
ATOM     10  C   UNL d   1     -39.568  14.889  19.926  0.00  0.00     0.037 C 
BRANCH  10  11
ATOM     11  S   UNL d   1     -39.861  14.433  20.553  0.00  0.00    -0.059 SA
BRANCH  11  12
ATOM     12  C   UNL d   1     -39.521  14.502  21.326  0.00  0.00     0.164 A 
ATOM     13  S   UNL d   1     -39.266  13.865  21.798  0.00  0.00    -0.039 SA
ATOM     14  C   UNL d   1     -38.967  14.189  22.521  0.00  0.00     0.134 A 
ATOM     15  N   UNL d   1     -39.044  15.009  22.476  0.00  0.00    -0.140 NA
ATOM     16  C   UNL d   1     -38.652  13.743  23.157  0.00  0.00     0.030 C 
ATOM     17  N   UNL d   1     -39.387  15.214  21.737  0.00  0.00    -0.134 NA
ENDBRANCH  11  12
ENDBRANCH  10  11
ENDBRANCH   8  10
TORSDOF 3
ENDMDL
