MODEL 1
REMARK VINA RESULT:      14.0      0.000      0.000
REMARK  6 active torsions:
REMARK  status: ('A' for Active; 'I' for Inactive)
REMARK    1  A    between atoms: N_2  and  S_1 
REMARK    2  A    between atoms: C_8  and  S_1 
REMARK    3  A    between atoms: C_4  and  C_3 
REMARK    4  A    between atoms: O_18  and  C_5 
REMARK    5  A    between atoms: O_20  and  C_12 
REMARK    6  A    between atoms: O_21  and  C_13 
ROOT
ATOM      1  N   UNL d   1     -42.469-123.092 -50.341  0.00  0.00    -0.127 NA
ATOM      2  C   UNL d   1     -41.789-123.168 -50.797  0.00  0.00     0.086 A 
ATOM      3  S   UNL d   1     -41.123-123.530 -50.484  0.00  0.00    -0.073 SA
ATOM      4  C   UNL d   1     -41.823-123.742 -49.253  0.00  0.00     0.074 A 
ATOM      5  C   UNL d   1     -41.143-123.817 -49.708  0.00  0.00     0.050 A 
ENDROOT
BRANCH   2   6
ATOM      6  C   UNL d   1     -41.771-122.881 -51.571  0.00  0.00     0.042 A 
ATOM      7  C   UNL d   1     -41.533-122.106 -51.708  0.00  0.00     0.098 A 
ATOM      8  C   UNL d   1     -41.517-121.826 -52.480  0.00  0.00     0.050 A 
ATOM      9  C   UNL d   1     -41.734-122.304 -53.106  0.00  0.00     0.118 A 
ATOM     10  C   UNL d   1     -41.973-123.081 -52.963  0.00  0.00     0.117 A 
ATOM     11  C   UNL d   1     -41.992-123.373 -52.193  0.00  0.00     0.030 A 
BRANCH   7  12
ATOM     12  O   UNL d   1     -41.312-121.617 -51.085  0.00  0.00    -0.328 OA
ATOM     13  C   UNL d   1     -41.212-120.809 -51.213  0.00  0.00     0.181 C 
ENDBRANCH   7  12
BRANCH   9  14
ATOM     14  O   UNL d   1     -41.717-122.020 -53.872  0.00  0.00    -0.326 OA
ATOM     15  C   UNL d   1     -42.232-121.422 -54.107  0.00  0.00     0.181 C 
ENDBRANCH   9  14
BRANCH  10  16
ATOM     16  O   UNL d   1     -42.192-123.568 -53.589  0.00  0.00    -0.326 OA
ATOM     17  C   UNL d   1     -41.634-123.811 -54.141  0.00  0.00     0.181 C 
ENDBRANCH  10  16
ENDBRANCH   2   6
BRANCH   1  18
ATOM     18  S   UNL d   1     -43.095-123.117 -49.675  0.00  0.00     0.255 S 
ATOM     19  O   UNL d   1     -43.556-123.304 -48.919  0.00  0.00    -0.205 OA
ATOM     20  O   UNL d   1     -42.592-123.723 -49.227  0.00  0.00    -0.205 OA
BRANCH  18  21
ATOM     21  C   UNL d   1     -43.764-122.554 -49.887  0.00  0.00     0.099 A 
ATOM     22  C   UNL d   1     -43.832-121.750 -49.483  0.00  0.00     0.015 A 
ATOM     23  C   UNL d   1     -44.493-121.189 -49.690  0.00  0.00     0.030 A 
ATOM     24  C   UNL d   1     -45.100-121.425 -50.308  0.00  0.00     0.140 A 
ATOM     25  C   UNL d   1     -45.042-122.229 -50.720  0.00  0.00     0.030 A 
ATOM     26  F   UNL d   1     -45.779-120.862 -50.528  0.00  0.00    -0.204 F 
ATOM     27  C   UNL d   1     -44.370-122.800 -50.511  0.00  0.00     0.015 A 
ENDBRANCH  18  21
ENDBRANCH   1  18
TORSDOF 6
ENDMDL
MODEL 2
REMARK VINA RESULT:      14.7      1.042      1.880
REMARK  6 active torsions:
REMARK  status: ('A' for Active; 'I' for Inactive)
REMARK    1  A    between atoms: N_2  and  S_1 
REMARK    2  A    between atoms: C_8  and  S_1 
REMARK    3  A    between atoms: C_4  and  C_3 
REMARK    4  A    between atoms: O_18  and  C_5 
REMARK    5  A    between atoms: O_20  and  C_12 
REMARK    6  A    between atoms: O_21  and  C_13 
ROOT
ATOM      1  N   UNL d   1     -42.272-122.536 -49.928  0.00  0.00    -0.127 NA
ATOM      2  C   UNL d   1     -41.693-122.684 -50.492  0.00  0.00     0.086 A 
ATOM      3  S   UNL d   1     -41.132-123.269 -50.361  0.00  0.00    -0.073 SA
ATOM      4  C   UNL d   1     -41.735-123.557 -49.095  0.00  0.00     0.074 A 
ATOM      5  C   UNL d   1     -41.156-123.705 -49.658  0.00  0.00     0.050 A 
ENDROOT
BRANCH   2   6
ATOM      6  C   UNL d   1     -41.671-122.247 -51.192  0.00  0.00     0.042 A 
ATOM      7  C   UNL d   1     -41.710-122.640 -51.913  0.00  0.00     0.098 A 
ATOM      8  C   UNL d   1     -41.687-122.199 -52.607  0.00  0.00     0.050 A 
ATOM      9  C   UNL d   1     -41.628-121.385 -52.586  0.00  0.00     0.118 A 
ATOM     10  C   UNL d   1     -41.589-120.995 -51.860  0.00  0.00     0.117 A 
ATOM     11  C   UNL d   1     -41.610-121.426 -51.157  0.00  0.00     0.030 A 
BRANCH   7  12
ATOM     12  O   UNL d   1     -41.770-123.459 -51.944  0.00  0.00    -0.328 OA
ATOM     13  C   UNL d   1     -42.190-123.816 -52.557  0.00  0.00     0.181 C 
ENDBRANCH   7  12
BRANCH   9  14
ATOM     14  O   UNL d   1     -41.606-120.952 -53.279  0.00  0.00    -0.326 OA
ATOM     15  C   UNL d   1     -42.298-120.801 -53.699  0.00  0.00     0.181 C 
ENDBRANCH   9  14
BRANCH  10  16
ATOM     16  O   UNL d   1     -41.529-120.175 -51.832  0.00  0.00    -0.326 OA
ATOM     17  C   UNL d   1     -41.133-119.810 -51.211  0.00  0.00     0.181 C 
ENDBRANCH  10  16
ENDBRANCH   2   6
BRANCH   1  18
ATOM     18  S   UNL d   1     -42.808-122.543 -49.187  0.00  0.00     0.255 S 
ATOM     19  O   UNL d   1     -43.127-122.486 -48.342  0.00  0.00    -0.205 OA
ATOM     20  O   UNL d   1     -42.097-122.310 -48.673  0.00  0.00    -0.205 OA
BRANCH  18  21
ATOM     21  C   UNL d   1     -43.643-122.763 -49.436  0.00  0.00     0.099 A 
ATOM     22  C   UNL d   1     -44.175-122.157 -49.840  0.00  0.00     0.015 A 
ATOM     23  C   UNL d   1     -45.004-122.370 -50.090  0.00  0.00     0.030 A 
ATOM     24  C   UNL d   1     -45.315-123.199 -49.939  0.00  0.00     0.140 A 
ATOM     25  C   UNL d   1     -44.790-123.815 -49.534  0.00  0.00     0.030 A 
ATOM     26  F   UNL d   1     -46.159-123.430 -50.188  0.00  0.00    -0.204 F 
ATOM     27  C   UNL d   1     -43.948-123.600 -49.280  0.00  0.00     0.015 A 
ENDBRANCH  18  21
ENDBRANCH   1  18
TORSDOF 6
ENDMDL
