MODEL 1
REMARK VINA RESULT:      -9.6      0.000      0.000
REMARK  4 active torsions:
REMARK  status: ('A' for Active; 'I' for Inactive)
REMARK    1  A    between atoms: C_4  and  S_1 
REMARK    2  A    between atoms: N_8  and  S_1 
REMARK    3  A    between atoms: C_5  and  C_11 
REMARK    4  A    between atoms: C_16  and  N_8 
ROOT
ATOM      1  C   UNL d   1      51.397  34.208  52.960  0.00  0.00     0.021 A 
ATOM      2  C   UNL d   1      52.402  33.314  53.466  0.00  0.00     0.094 A 
ATOM      3  C   UNL d   1      51.709  33.436  53.040  0.00  0.00     0.021 A 
ATOM      4  C   UNL d   1      51.784  34.843  53.307  0.00  0.00     0.002 A 
ATOM      5  C   UNL d   1      52.486  34.730  53.740  0.00  0.00     0.002 A 
ATOM      6  C   UNL d   1      52.798  33.957  53.820  0.00  0.00     0.020 A 
ENDROOT
BRANCH   2   7
ATOM      7  N   UNL d   1      52.707  32.560  53.545  0.00  0.00    -0.158 NA
BRANCH   7   8
ATOM      8  S   UNL d   1      53.482  32.403  53.319  0.00  0.00     0.287 S 
ATOM      9  O   UNL d   1      53.628  33.203  53.248  0.00  0.00    -0.198 OA
ATOM     10  O   UNL d   1      54.266  32.258  53.090  0.00  0.00    -0.198 OA
BRANCH   8  11
ATOM     11  C   UNL d   1      53.345  31.594  53.387  0.00  0.00     0.133 A 
ATOM     12  C   UNL d   1      53.588  31.195  54.064  0.00  0.00     0.155 A 
ATOM     13  C   UNL d   1      53.455  30.389  54.140  0.00  0.00     0.060 A 
ATOM     14  F   UNL d   1      53.968  31.604  54.672  0.00  0.00    -0.203 F 
ATOM     15  C   UNL d   1      53.071  29.972  53.529  0.00  0.00     0.142 A 
ATOM     16  C   UNL d   1      52.829  30.376  52.851  0.00  0.00     0.030 A 
ATOM     17  F   UNL d   1      52.935  29.160  53.602  0.00  0.00    -0.204 F 
ATOM     18  C   UNL d   1      52.963  31.178  52.779  0.00  0.00     0.018 A 
ENDBRANCH   8  11
ENDBRANCH   7   8
ENDBRANCH   2   7
BRANCH   1  19
ATOM     19  C   UNL d   1      50.704  34.330  52.534  0.00  0.00     0.101 A 
ATOM     20  N   UNL d   1      49.995  34.614  52.840  0.00  0.00    -0.221 NA
ATOM     21  C   UNL d   1      49.440  34.652  52.223  0.00  0.00     0.179 A 
ATOM     22  S   UNL d   1      48.674  34.846  52.027  0.00  0.00    -0.048 SA
ATOM     23  N   UNL d   1      49.827  34.384  51.531  0.00  0.00    -0.282 N 
ATOM     24  C   UNL d   1      48.567  34.706  51.220  0.00  0.00     0.057 A 
ATOM     25  C   UNL d   1      49.279  34.420  50.910  0.00  0.00     0.089 A 
ATOM     26  C   UNL d   1      50.605  34.189  51.737  0.00  0.00     0.101 A 
ENDBRANCH   1  19
TORSDOF 4
ENDMDL
MODEL 2
REMARK VINA RESULT:      -8.8      1.917      2.671
REMARK  4 active torsions:
REMARK  status: ('A' for Active; 'I' for Inactive)
REMARK    1  A    between atoms: C_4  and  S_1 
REMARK    2  A    between atoms: N_8  and  S_1 
REMARK    3  A    between atoms: C_5  and  C_11 
REMARK    4  A    between atoms: C_16  and  N_8 
ROOT
ATOM      1  C   UNL d   1      49.970  34.717  52.633  0.00  0.00     0.021 A 
ATOM      2  C   UNL d   1      51.279  34.205  52.934  0.00  0.00     0.094 A 
ATOM      3  C   UNL d   1      50.616  34.638  53.158  0.00  0.00     0.021 A 
ATOM      4  C   UNL d   1      50.000  34.363  51.893  0.00  0.00     0.002 A 
ATOM      5  C   UNL d   1      50.666  33.923  51.658  0.00  0.00     0.002 A 
ATOM      6  C   UNL d   1      51.312  33.843  52.184  0.00  0.00     0.020 A 
ENDROOT
BRANCH   2   7
ATOM      7  N   UNL d   1      51.910  34.128  53.448  0.00  0.00    -0.158 NA
BRANCH   7   8
ATOM      8  S   UNL d   1      52.617  34.519  53.293  0.00  0.00     0.287 S 
ATOM      9  O   UNL d   1      52.247  34.972  52.725  0.00  0.00    -0.198 OA
ATOM     10  O   UNL d   1      53.324  34.920  53.129  0.00  0.00    -0.198 OA
BRANCH   8  11
ATOM     11  C   UNL d   1      52.999  34.066  53.866  0.00  0.00     0.133 A 
ATOM     12  C   UNL d   1      53.179  34.400  54.597  0.00  0.00     0.155 A 
ATOM     13  C   UNL d   1      53.559  33.955  55.172  0.00  0.00     0.060 A 
ATOM     14  F   UNL d   1      52.978  35.184  54.754  0.00  0.00    -0.203 F 
ATOM     15  C   UNL d   1      53.764  33.162  55.017  0.00  0.00     0.142 A 
ATOM     16  C   UNL d   1      53.582  32.832  54.283  0.00  0.00     0.030 A 
ATOM     17  F   UNL d   1      54.147  32.713  55.594  0.00  0.00    -0.204 F 
ATOM     18  C   UNL d   1      53.203  33.277  53.712  0.00  0.00     0.018 A 
ENDBRANCH   8  11
ENDBRANCH   7   8
ENDBRANCH   2   7
BRANCH   1  19
ATOM     19  C   UNL d   1      49.307  35.150  52.857  0.00  0.00     0.101 A 
ATOM     20  N   UNL d   1      49.196  35.514  53.585  0.00  0.00    -0.221 NA
ATOM     21  C   UNL d   1      48.454  35.890  53.579  0.00  0.00     0.179 A 
ATOM     22  S   UNL d   1      47.931  36.339  54.011  0.00  0.00    -0.048 SA
ATOM     23  N   UNL d   1      48.115  35.746  52.828  0.00  0.00    -0.282 N 
ATOM     24  C   UNL d   1      47.264  36.484  53.547  0.00  0.00     0.057 A 
ATOM     25  C   UNL d   1      47.375  36.118  52.813  0.00  0.00     0.089 A 
ATOM     26  C   UNL d   1      48.651  35.289  52.392  0.00  0.00     0.101 A 
ENDBRANCH   1  19
TORSDOF 4
ENDMDL
MODEL 3
REMARK VINA RESULT:      -8.3      2.070      4.742
REMARK  4 active torsions:
REMARK  status: ('A' for Active; 'I' for Inactive)
REMARK    1  A    between atoms: C_4  and  S_1 
REMARK    2  A    between atoms: N_8  and  S_1 
REMARK    3  A    between atoms: C_5  and  C_11 
REMARK    4  A    between atoms: C_16  and  N_8 
ROOT
ATOM      1  C   UNL d   1      53.564  31.791  53.627  0.00  0.00     0.021 A 
ATOM      2  C   UNL d   1      52.995  33.020  53.145  0.00  0.00     0.094 A 
ATOM      3  C   UNL d   1      52.904  32.231  53.358  0.00  0.00     0.021 A 
ATOM      4  C   UNL d   1      54.300  32.150  53.678  0.00  0.00     0.002 A 
ATOM      5  C   UNL d   1      54.401  32.947  53.464  0.00  0.00     0.002 A 
ATOM      6  C   UNL d   1      53.742  33.387  53.195  0.00  0.00     0.020 A 
ENDROOT
BRANCH   2   7
ATOM      7  N   UNL d   1      52.351  33.449  52.882  0.00  0.00    -0.158 NA
BRANCH   7   8
ATOM      8  S   UNL d   1      52.117  34.128  53.283  0.00  0.00     0.287 S 
ATOM      9  O   UNL d   1      52.775  34.077  53.762  0.00  0.00    -0.198 OA
ATOM     10  O   UNL d   1      51.891  34.811  53.695  0.00  0.00    -0.198 OA
BRANCH   8  11
ATOM     11  C   UNL d   1      51.450  34.188  52.803  0.00  0.00     0.133 A 
ATOM     12  C   UNL d   1      50.702  34.086  53.132  0.00  0.00     0.155 A 
ATOM     13  C   UNL d   1      50.032  34.145  52.661  0.00  0.00     0.060 A 
ATOM     14  F   UNL d   1      50.621  33.926  53.937  0.00  0.00    -0.203 F 
ATOM     15  C   UNL d   1      50.109  34.307  51.847  0.00  0.00     0.142 A 
ATOM     16  C   UNL d   1      50.861  34.408  51.522  0.00  0.00     0.030 A 
ATOM     17  F   UNL d   1      49.436  34.366  51.371  0.00  0.00    -0.204 F 
ATOM     18  C   UNL d   1      51.525  34.350  51.994  0.00  0.00     0.018 A 
ENDBRANCH   8  11
ENDBRANCH   7   8
ENDBRANCH   2   7
BRANCH   1  19
ATOM     19  C   UNL d   1      53.473  31.002  53.841  0.00  0.00     0.101 A 
ATOM     20  N   UNL d   1      53.500  30.706  54.607  0.00  0.00    -0.221 NA
ATOM     21  C   UNL d   1      53.383  29.884  54.574  0.00  0.00     0.179 A 
ATOM     22  S   UNL d   1      53.327  29.200  55.013  0.00  0.00    -0.048 SA
ATOM     23  N   UNL d   1      53.284  29.684  53.768  0.00  0.00    -0.282 N 
ATOM     24  C   UNL d   1      53.194  28.568  54.498  0.00  0.00     0.057 A 
ATOM     25  C   UNL d   1      53.167  28.865  53.726  0.00  0.00     0.089 A 
ATOM     26  C   UNL d   1      53.342  30.383  53.326  0.00  0.00     0.101 A 
ENDBRANCH   1  19
TORSDOF 4
ENDMDL
