MODEL 1
REMARK VINA RESULT:      -8.1      0.000      0.000
REMARK  4 active torsions:
REMARK  status: ('A' for Active; 'I' for Inactive)
REMARK    1  A    between atoms: C_6  and  C_1 
REMARK    2  A    between atoms: C_8  and  N_3 
REMARK       I    between atoms: N_7  and  C_6 
REMARK    3  A    between atoms: C_9  and  N_7 
REMARK    4  A    between atoms: O_19  and  C_16 
ROOT
ATOM      1  C   UNL d   1      51.665  33.569  53.312  0.00  0.00     0.199 A 
ATOM      2  C   UNL d   1      51.255  34.151  52.900  0.00  0.00     0.211 A 
ATOM      3  N   UNL d   1      50.459  33.943  52.880  0.00  0.00    -0.191 N 
ATOM      4  N   UNL d   1      50.375  33.226  53.283  0.00  0.00    -0.058 NA
ATOM      5  N   UNL d   1      51.115  32.991  53.552  0.00  0.00    -0.122 NA
ATOM      6  N   UNL d   1      51.587  34.826  52.564  0.00  0.00    -0.125 N 
ENDROOT
BRANCH   1   7
ATOM      7  C   UNL d   1      52.478  33.558  53.462  0.00  0.00     0.302 C 
ATOM      8  N   UNL d   1      52.750  33.460  54.241  0.00  0.00    -0.204 NA
ATOM      9  O   UNL d   1      53.016  33.644  52.844  0.00  0.00    -0.263 OA
BRANCH   8  10
ATOM     10  C   UNL d   1      53.563  33.450  54.384  0.00  0.00     0.112 A 
ATOM     11  C   UNL d   1      53.870  33.917  54.989  0.00  0.00     0.158 A 
ATOM     12  F   UNL d   1      53.374  34.387  55.444  0.00  0.00    -0.203 F 
ATOM     13  C   UNL d   1      54.690  33.912  55.139  0.00  0.00     0.031 A 
ATOM     14  C   UNL d   1      55.182  33.441  54.681  0.00  0.00     0.002 A 
ATOM     15  C   UNL d   1      54.871  32.972  54.073  0.00  0.00     0.002 A 
ATOM     16  C   UNL d   1      54.058  32.981  53.930  0.00  0.00     0.021 A 
ENDBRANCH   8  10
ENDBRANCH   1   7
BRANCH   3  17
ATOM     17  C   UNL d   1      49.853  34.372  52.523  0.00  0.00     0.086 A 
ATOM     18  C   UNL d   1      49.431  34.930  52.959  0.00  0.00     0.021 A 
ATOM     19  C   UNL d   1      48.824  35.359  52.601  0.00  0.00     0.026 A 
ATOM     20  C   UNL d   1      48.640  35.229  51.807  0.00  0.00     0.094 A 
ATOM     21  C   UNL d   1      49.062  34.671  51.372  0.00  0.00     0.026 A 
ATOM     22  C   UNL d   1      49.669  34.242  51.730  0.00  0.00     0.021 A 
BRANCH  20  23
ATOM     23  O   UNL d   1      48.033  35.658  51.450  0.00  0.00    -0.328 OA
ATOM     24  C   UNL d   1      47.336  35.809  51.863  0.00  0.00     0.181 C 
ENDBRANCH  20  23
ENDBRANCH   3  17
TORSDOF 4
ENDMDL
MODEL 2
REMARK VINA RESULT:      -8.0      1.491      1.989
REMARK  4 active torsions:
REMARK  status: ('A' for Active; 'I' for Inactive)
REMARK    1  A    between atoms: C_6  and  C_1 
REMARK    2  A    between atoms: C_8  and  N_3 
REMARK       I    between atoms: N_7  and  C_6 
REMARK    3  A    between atoms: C_9  and  N_7 
REMARK    4  A    between atoms: O_19  and  C_16 
ROOT
ATOM      1  C   UNL d   1      51.593  33.642  52.612  0.00  0.00     0.199 A 
ATOM      2  C   UNL d   1      50.809  33.813  52.793  0.00  0.00     0.211 A 
ATOM      3  N   UNL d   1      50.521  34.336  52.227  0.00  0.00    -0.191 N 
ATOM      4  N   UNL d   1      51.131  34.490  51.691  0.00  0.00    -0.058 NA
ATOM      5  N   UNL d   1      51.794  34.065  51.923  0.00  0.00    -0.122 NA
ATOM      6  N   UNL d   1      50.388  33.512  53.433  0.00  0.00    -0.125 N 
ENDROOT
BRANCH   1   7
ATOM      7  C   UNL d   1      52.094  33.140  53.037  0.00  0.00     0.302 C 
ATOM      8  N   UNL d   1      52.452  32.497  52.652  0.00  0.00    -0.204 NA
ATOM      9  O   UNL d   1      52.237  33.275  53.837  0.00  0.00    -0.263 OA
BRANCH   8  10
ATOM     10  C   UNL d   1      52.951  31.999  53.082  0.00  0.00     0.112 A 
ATOM     11  C   UNL d   1      52.852  31.183  53.026  0.00  0.00     0.158 A 
ATOM     12  F   UNL d   1      52.264  30.869  52.547  0.00  0.00    -0.203 F 
ATOM     13  C   UNL d   1      53.352  30.676  53.457  0.00  0.00     0.031 A 
ATOM     14  C   UNL d   1      53.938  30.994  53.934  0.00  0.00     0.002 A 
ATOM     15  C   UNL d   1      54.037  31.815  53.990  0.00  0.00     0.002 A 
ATOM     16  C   UNL d   1      53.538  32.313  53.560  0.00  0.00     0.021 A 
ENDBRANCH   8  10
ENDBRANCH   1   7
BRANCH   3  17
ATOM     17  C   UNL d   1      49.760  34.651  52.199  0.00  0.00     0.086 A 
ATOM     18  C   UNL d   1      49.285  34.521  51.537  0.00  0.00     0.021 A 
ATOM     19  C   UNL d   1      48.523  34.836  51.508  0.00  0.00     0.026 A 
ATOM     20  C   UNL d   1      48.237  35.281  52.142  0.00  0.00     0.094 A 
ATOM     21  C   UNL d   1      48.712  35.411  52.803  0.00  0.00     0.026 A 
ATOM     22  C   UNL d   1      49.474  35.095  52.831  0.00  0.00     0.021 A 
BRANCH  20  23
ATOM     23  O   UNL d   1      47.475  35.597  52.113  0.00  0.00    -0.328 OA
ATOM     24  C   UNL d   1      47.340  36.371  52.360  0.00  0.00     0.181 C 
ENDBRANCH  20  23
ENDBRANCH   3  17
TORSDOF 4
ENDMDL
MODEL 3
REMARK VINA RESULT:      -7.9      1.422      5.156
REMARK  4 active torsions:
REMARK  status: ('A' for Active; 'I' for Inactive)
REMARK    1  A    between atoms: C_6  and  C_1 
REMARK    2  A    between atoms: C_8  and  N_3 
REMARK       I    between atoms: N_7  and  C_6 
REMARK    3  A    between atoms: C_9  and  N_7 
REMARK    4  A    between atoms: O_19  and  C_16 
ROOT
ATOM      1  C   UNL d   1      50.853  33.770  52.921  0.00  0.00     0.199 A 
ATOM      2  C   UNL d   1      51.631  33.992  53.069  0.00  0.00     0.211 A 
ATOM      3  N   UNL d   1      51.994  33.393  53.501  0.00  0.00    -0.191 N 
ATOM      4  N   UNL d   1      51.436  32.795  53.623  0.00  0.00    -0.058 NA
ATOM      5  N   UNL d   1      50.731  33.023  53.267  0.00  0.00    -0.122 NA
ATOM      6  N   UNL d   1      51.985  34.694  52.824  0.00  0.00    -0.125 N 
ENDROOT
BRANCH   1   7
ATOM      7  C   UNL d   1      50.291  34.210  52.504  0.00  0.00     0.302 C 
ATOM      8  N   UNL d   1      49.583  34.431  52.878  0.00  0.00    -0.204 NA
ATOM      9  O   UNL d   1      50.432  34.429  51.722  0.00  0.00    -0.263 OA
BRANCH   8  10
ATOM     10  C   UNL d   1      49.026  34.870  52.456  0.00  0.00     0.112 A 
ATOM     11  C   UNL d   1      48.654  35.507  52.823  0.00  0.00     0.158 A 
ATOM     12  F   UNL d   1      48.835  35.702  53.600  0.00  0.00    -0.203 F 
ATOM     13  C   UNL d   1      48.091  35.955  52.402  0.00  0.00     0.031 A 
ATOM     14  C   UNL d   1      47.913  35.756  51.627  0.00  0.00     0.002 A 
ATOM     15  C   UNL d   1      48.288  35.115  51.259  0.00  0.00     0.002 A 
ATOM     16  C   UNL d   1      48.845  34.675  51.681  0.00  0.00     0.021 A 
ENDBRANCH   8  10
ENDBRANCH   1   7
BRANCH   3  17
ATOM     17  C   UNL d   1      52.774  33.388  53.766  0.00  0.00     0.086 A 
ATOM     18  C   UNL d   1      53.347  32.963  53.352  0.00  0.00     0.021 A 
ATOM     19  C   UNL d   1      54.128  32.959  53.618  0.00  0.00     0.026 A 
ATOM     20  C   UNL d   1      54.335  33.379  54.297  0.00  0.00     0.094 A 
ATOM     21  C   UNL d   1      53.762  33.803  54.711  0.00  0.00     0.026 A 
ATOM     22  C   UNL d   1      52.981  33.808  54.445  0.00  0.00     0.021 A 
BRANCH  20  23
ATOM     23  O   UNL d   1      55.116  33.374  54.563  0.00  0.00    -0.328 OA
ATOM     24  C   UNL d   1      55.319  33.776  55.253  0.00  0.00     0.181 C 
ENDBRANCH  20  23
ENDBRANCH   3  17
TORSDOF 4
ENDMDL
MODEL 4
REMARK VINA RESULT:      -7.9      2.039      5.282
REMARK  4 active torsions:
REMARK  status: ('A' for Active; 'I' for Inactive)
REMARK    1  A    between atoms: C_6  and  C_1 
REMARK    2  A    between atoms: C_8  and  N_3 
REMARK       I    between atoms: N_7  and  C_6 
REMARK    3  A    between atoms: C_9  and  N_7 
REMARK    4  A    between atoms: O_19  and  C_16 
ROOT
ATOM      1  C   UNL d   1      51.097  34.044  52.628  0.00  0.00     0.199 A 
ATOM      2  C   UNL d   1      51.312  33.349  53.011  0.00  0.00     0.211 A 
ATOM      3  N   UNL d   1      52.073  33.147  52.772  0.00  0.00    -0.191 N 
ATOM      4  N   UNL d   1      52.331  33.721  52.236  0.00  0.00    -0.058 NA
ATOM      5  N   UNL d   1      51.734  34.277  52.144  0.00  0.00    -0.122 NA
ATOM      6  N   UNL d   1      50.844  32.929  53.543  0.00  0.00    -0.125 N 
ENDROOT
BRANCH   1   7
ATOM      7  C   UNL d   1      50.377  34.442  52.707  0.00  0.00     0.302 C 
ATOM      8  N   UNL d   1      49.865  34.499  52.055  0.00  0.00    -0.204 NA
ATOM      9  O   UNL d   1      50.167  34.781  53.429  0.00  0.00    -0.263 OA
BRANCH   8  10
ATOM     10  C   UNL d   1      49.147  34.898  52.142  0.00  0.00     0.112 A 
ATOM     11  C   UNL d   1      48.602  34.882  51.525  0.00  0.00     0.158 A 
ATOM     12  F   UNL d   1      48.770  34.475  50.832  0.00  0.00    -0.203 F 
ATOM     13  C   UNL d   1      47.876  35.283  51.606  0.00  0.00     0.031 A 
ATOM     14  C   UNL d   1      47.712  35.688  52.300  0.00  0.00     0.002 A 
ATOM     15  C   UNL d   1      48.262  35.703  52.919  0.00  0.00     0.002 A 
ATOM     16  C   UNL d   1      48.980  35.304  52.833  0.00  0.00     0.021 A 
ENDBRANCH   8  10
ENDBRANCH   1   7
BRANCH   3  17
ATOM     17  C   UNL d   1      52.503  32.489  53.021  0.00  0.00     0.086 A 
ATOM     18  C   UNL d   1      52.325  31.742  52.720  0.00  0.00     0.021 A 
ATOM     19  C   UNL d   1      52.755  31.084  52.969  0.00  0.00     0.026 A 
ATOM     20  C   UNL d   1      53.363  31.173  53.520  0.00  0.00     0.094 A 
ATOM     21  C   UNL d   1      53.540  31.920  53.821  0.00  0.00     0.026 A 
ATOM     22  C   UNL d   1      53.110  32.578  53.572  0.00  0.00     0.021 A 
BRANCH  20  23
ATOM     23  O   UNL d   1      53.793  30.515  53.770  0.00  0.00    -0.328 OA
ATOM     24  C   UNL d   1      53.411  29.793  53.885  0.00  0.00     0.181 C 
ENDBRANCH  20  23
ENDBRANCH   3  17
TORSDOF 4
ENDMDL
MODEL 5
REMARK VINA RESULT:      -5.5     10.209     10.975
REMARK  4 active torsions:
REMARK  status: ('A' for Active; 'I' for Inactive)
REMARK    1  A    between atoms: C_6  and  C_1 
REMARK    2  A    between atoms: C_8  and  N_3 
REMARK       I    between atoms: N_7  and  C_6 
REMARK    3  A    between atoms: C_9  and  N_7 
REMARK    4  A    between atoms: O_19  and  C_16 
ROOT
ATOM      1  C   UNL d   1      44.973  29.519  59.620  0.00  0.00     0.199 A 
ATOM      2  C   UNL d   1      44.803  28.822  59.218  0.00  0.00     0.211 A 
ATOM      3  N   UNL d   1      45.061  28.902  58.440  0.00  0.00    -0.191 N 
ATOM      4  N   UNL d   1      45.392  29.655  58.360  0.00  0.00    -0.058 NA
ATOM      5  N   UNL d   1      45.341  30.040  59.084  0.00  0.00    -0.122 NA
ATOM      6  N   UNL d   1      44.438  28.159  59.541  0.00  0.00    -0.125 N 
ENDROOT
BRANCH   1   7
ATOM      7  C   UNL d   1      44.808  29.677  60.415  0.00  0.00     0.302 C 
ATOM      8  N   UNL d   1      44.847  30.458  60.694  0.00  0.00    -0.204 NA
ATOM      9  O   UNL d   1      44.605  29.063  60.927  0.00  0.00    -0.263 OA
BRANCH   8  10
ATOM     10  C   UNL d   1      44.681  30.608  61.489  0.00  0.00     0.112 A 
ATOM     11  C   UNL d   1      44.483  31.374  61.721  0.00  0.00     0.158 A 
ATOM     12  F   UNL d   1      44.451  31.980  61.168  0.00  0.00    -0.203 F 
ATOM     13  C   UNL d   1      44.314  31.532  62.522  0.00  0.00     0.031 A 
ATOM     14  C   UNL d   1      44.347  30.923  63.070  0.00  0.00     0.002 A 
ATOM     15  C   UNL d   1      44.547  30.154  62.835  0.00  0.00     0.002 A 
ATOM     16  C   UNL d   1      44.713  30.003  62.041  0.00  0.00     0.021 A 
ENDBRANCH   8  10
ENDBRANCH   1   7
BRANCH   3  17
ATOM     17  C   UNL d   1      44.999  28.334  57.847  0.00  0.00     0.086 A 
ATOM     18  C   UNL d   1      44.548  28.490  57.173  0.00  0.00     0.021 A 
ATOM     19  C   UNL d   1      44.487  27.921  56.579  0.00  0.00     0.026 A 
ATOM     20  C   UNL d   1      44.877  27.198  56.658  0.00  0.00     0.094 A 
ATOM     21  C   UNL d   1      45.327  27.043  57.331  0.00  0.00     0.026 A 
ATOM     22  C   UNL d   1      45.388  27.612  57.926  0.00  0.00     0.021 A 
BRANCH  20  23
ATOM     23  O   UNL d   1      44.815  26.629  56.064  0.00  0.00    -0.328 OA
ATOM     24  C   UNL d   1      44.719  25.835  56.262  0.00  0.00     0.181 C 
ENDBRANCH  20  23
ENDBRANCH   3  17
TORSDOF 4
ENDMDL
