MODEL 1
REMARK VINA RESULT:      47.8      0.000      0.000
REMARK  5 active torsions:
REMARK  status: ('A' for Active; 'I' for Inactive)
REMARK    1  A    between atoms: C_20  and  C_3 
REMARK    2  A    between atoms: C_6  and  C_8 
REMARK       I    between atoms: C_8  and  N_17 
REMARK    3  A    between atoms: N_17  and  C_21 
REMARK    4  A    between atoms: O_22  and  C_18 
REMARK    5  A    between atoms: C_21  and  C_20 
ROOT
ATOM      1  N   UNL d   1     -58.841 -98.813 -44.761  0.00  0.00    -0.208 NA
ATOM      2  C   UNL d   1     -58.187 -98.801 -44.258  0.00  0.00     0.279 A 
ATOM      3  C   UNL d   1     -57.417 -98.775 -44.576  0.00  0.00     0.059 A 
ATOM      4  C   UNL d   1     -58.729 -98.799 -45.587  0.00  0.00     0.087 A 
ATOM      5  C   UNL d   1     -57.311 -98.762 -45.395  0.00  0.00     0.006 A 
ATOM      6  C   UNL d   1     -57.964 -98.774 -45.895  0.00  0.00     0.018 A 
ATOM      7  C   UNL d   1     -59.389 -98.812 -46.084  0.00  0.00     0.043 A 
ATOM      8  O   UNL d   1     -58.295 -98.814 -43.442  0.00  0.00    -0.265 OA
ATOM      9  C   UNL d   1     -57.859 -98.761 -46.718  0.00  0.00     0.004 A 
ATOM     10  C   UNL d   1     -59.281 -98.799 -46.900  0.00  0.00     0.096 A 
ATOM     11  C   UNL d   1     -58.512 -98.773 -47.218  0.00  0.00     0.024 A 
ENDROOT
BRANCH   3  12
ATOM     12  C   UNL d   1     -56.772 -98.764 -44.073  0.00  0.00     0.026 C 
BRANCH  12  13
ATOM     13  C   UNL d   1     -56.079 -99.155 -44.269  0.00  0.00     0.102 C 
BRANCH  13  14
ATOM     14  N   UNL d   1     -56.053 -99.978 -44.321  0.00  0.00    -0.206 NA
ATOM     15  C   UNL d   1     -55.410-100.395 -44.015  0.00  0.00     0.285 C 
ATOM     16  O   UNL d   1     -54.790 -99.996 -43.656  0.00  0.00    -0.265 OA
BRANCH  15  17
ATOM     17  C   UNL d   1     -55.393-101.220 -44.071  0.00  0.00     0.087 A 
ATOM     18  S   UNL d   1     -54.722-101.687 -44.072  0.00  0.00    -0.082 SA
ATOM     19  C   UNL d   1     -54.941-102.464 -44.136  0.00  0.00     0.036 A 
ATOM     20  C   UNL d   1     -55.769-102.490 -44.178  0.00  0.00     0.008 A 
ATOM     21  C   UNL d   1     -56.048-101.716 -44.137  0.00  0.00     0.012 A 
ENDBRANCH  15  17
ENDBRANCH  13  14
ENDBRANCH  12  13
ENDBRANCH   3  12
BRANCH  10  22
ATOM     22  O   UNL d   1     -59.935 -98.811 -47.401  0.00  0.00    -0.328 OA
ATOM     23  C   UNL d   1     -59.872 -99.145 -48.150  0.00  0.00     0.181 C 
ENDBRANCH  10  22
TORSDOF 5
ENDMDL
MODEL 2
REMARK VINA RESULT:      49.1      4.319      6.967
REMARK  5 active torsions:
REMARK  status: ('A' for Active; 'I' for Inactive)
REMARK    1  A    between atoms: C_20  and  C_3 
REMARK    2  A    between atoms: C_6  and  C_8 
REMARK       I    between atoms: C_8  and  N_17 
REMARK    3  A    between atoms: N_17  and  C_21 
REMARK    4  A    between atoms: O_22  and  C_18 
REMARK    5  A    between atoms: C_21  and  C_20 
ROOT
ATOM      1  N   UNL d   1     -54.946-101.060 -39.609  0.00  0.00    -0.208 NA
ATOM      2  C   UNL d   1     -54.842-101.382 -40.362  0.00  0.00     0.279 A 
ATOM      3  C   UNL d   1     -54.814-102.209 -40.460  0.00  0.00     0.059 A 
ATOM      4  C   UNL d   1     -55.023-101.563 -38.949  0.00  0.00     0.087 A 
ATOM      5  C   UNL d   1     -54.891-102.704 -39.804  0.00  0.00     0.006 A 
ATOM      6  C   UNL d   1     -54.995-102.381 -39.054  0.00  0.00     0.018 A 
ATOM      7  C   UNL d   1     -55.126-101.232 -38.199  0.00  0.00     0.043 A 
ATOM      8  O   UNL d   1     -54.765-100.887 -41.015  0.00  0.00    -0.265 OA
ATOM      9  C   UNL d   1     -55.072-102.877 -38.394  0.00  0.00     0.004 A 
ATOM     10  C   UNL d   1     -55.203-101.727 -37.546  0.00  0.00     0.096 A 
ATOM     11  C   UNL d   1     -55.175-102.554 -37.644  0.00  0.00     0.024 A 
ENDROOT
BRANCH   3  12
ATOM     12  C   UNL d   1     -54.711-102.524 -41.209  0.00  0.00     0.026 C 
BRANCH  12  13
ATOM     13  C   UNL d   1     -55.267-102.399 -41.798  0.00  0.00     0.102 C 
BRANCH  13  14
ATOM     14  N   UNL d   1     -55.038-102.277 -42.582  0.00  0.00    -0.206 NA
ATOM     15  C   UNL d   1     -55.506-101.821 -43.087  0.00  0.00     0.285 C 
ATOM     16  O   UNL d   1     -56.202-101.485 -42.815  0.00  0.00    -0.265 OA
BRANCH  15  17
ATOM     17  C   UNL d   1     -55.269-101.705 -43.870  0.00  0.00     0.087 A 
ATOM     18  S   UNL d   1     -54.840-101.070 -44.152  0.00  0.00    -0.082 SA
ATOM     19  C   UNL d   1     -54.721-101.162 -44.948  0.00  0.00     0.036 A 
ATOM     20  C   UNL d   1     -55.083-101.873 -45.175  0.00  0.00     0.008 A 
ATOM     21  C   UNL d   1     -55.423-102.209 -44.504  0.00  0.00     0.012 A 
ENDBRANCH  15  17
ENDBRANCH  13  14
ENDBRANCH  12  13
ENDBRANCH   3  12
BRANCH  10  22
ATOM     22  O   UNL d   1     -55.306-101.405 -36.796  0.00  0.00    -0.328 OA
ATOM     23  C   UNL d   1     -54.724-101.503 -36.223  0.00  0.00     0.181 C 
ENDBRANCH  10  22
TORSDOF 5
ENDMDL
