MODEL 1
REMARK VINA RESULT:      44.6      0.000      0.000
REMARK  6 active torsions:
REMARK  status: ('A' for Active; 'I' for Inactive)
REMARK    1  A    between atoms: C_10  and  C_2 
REMARK    2  A    between atoms: C_11  and  C_4 
REMARK    3  A    between atoms: N_12  and  C_10 
REMARK    4  A    between atoms: O_17  and  C_11 
REMARK    5  A    between atoms: C_14  and  N_12 
REMARK    6  A    between atoms: C_23  and  O_17 
ROOT
ATOM      1  C   UNL d   1      14.075  13.132  -2.075  0.00  0.00     0.035 A 
ATOM      2  C   UNL d   1      14.148  13.822  -2.545  0.00  0.00     0.060 A 
ATOM      3  C   UNL d   1      13.727  12.450  -2.381  0.00  0.00     0.100 A 
ATOM      4  C   UNL d   1      14.299  12.963  -1.285  0.00  0.00     0.088 A 
ATOM      5  O   UNL d   1      13.728  11.867  -1.808  0.00  0.00    -0.307 OA
ATOM      6  C   UNL d   1      14.080  12.180  -1.131  0.00  0.00     0.105 A 
ATOM      7  C   UNL d   1      13.872  13.816  -3.310  0.00  0.00     0.197 A 
ATOM      8  C   UNL d   1      13.450  12.460  -3.162  0.00  0.00     0.026 A 
ATOM      9  C   UNL d   1      13.524  13.150  -3.631  0.00  0.00     0.041 A 
ATOM     10  O   UNL d   1      13.946  14.509  -3.782  0.00  0.00    -0.286 OA
ATOM     11  C   UNL d   1      14.201  11.779  -0.402  0.00  0.00     0.027 C 
ATOM     12  C   UNL d   1      13.103  11.779  -3.465  0.00  0.00     0.002 A 
ATOM     13  C   UNL d   1      13.249  13.145  -4.394  0.00  0.00     0.003 A 
ATOM     14  C   UNL d   1      12.828  11.790  -4.243  0.00  0.00     0.000 A 
ATOM     15  C   UNL d   1      12.902  12.480  -4.713  0.00  0.00     0.000 A 
ENDROOT
BRANCH   2  16
ATOM     16  C   UNL d   1      14.505  14.513  -2.225  0.00  0.00     0.104 C 
BRANCH  16  17
ATOM     17  N   UNL d   1      14.262  15.268  -2.486  0.00  0.00    -0.225 NA
BRANCH  17  18
ATOM     18  C   UNL d   1      14.616  15.950  -2.178  0.00  0.00     0.163 A 
ATOM     19  N   UNL d   1      14.540  16.115  -1.376  0.00  0.00    -0.225 NA
ATOM     20  C   UNL d   1      14.893  16.791  -1.075  0.00  0.00     0.101 A 
ATOM     21  C   UNL d   1      15.314  17.296  -1.566  0.00  0.00     0.021 A 
ATOM     22  C   UNL d   1      15.393  17.134  -2.368  0.00  0.00     0.005 A 
ATOM     23  C   UNL d   1      15.038  16.454  -2.669  0.00  0.00     0.039 A 
ENDBRANCH  17  18
ENDBRANCH  16  17
ENDBRANCH   2  16
BRANCH   4  24
ATOM     24  C   UNL d   1      14.673  13.483  -0.749  0.00  0.00     0.302 C 
ATOM     25  O   UNL d   1      14.260  14.080  -0.371  0.00  0.00    -0.259 OA
BRANCH  24  26
ATOM     26  O   UNL d   1      15.481  13.384  -0.601  0.00  0.00    -0.271 OA
BRANCH  26  27
ATOM     27  C   UNL d   1      15.837  13.828  -0.015  0.00  0.00     0.126 C 
ATOM     28  C   UNL d   1      16.639  14.051  -0.119  0.00  0.00     0.029 C 
ENDBRANCH  26  27
ENDBRANCH  24  26
ENDBRANCH   4  24
TORSDOF 6
ENDMDL
