MODEL 1
REMARK VINA RESULT:      45.1      0.000      0.000
REMARK  4 active torsions:
REMARK  status: ('A' for Active; 'I' for Inactive)
REMARK    1  A    between atoms: N_5  and  S_1 
REMARK    2  A    between atoms: C_6  and  S_1 
REMARK    3  A    between atoms: N_2  and  C_7 
REMARK    4  A    between atoms: C_18  and  N_5 
ROOT
ATOM      1  C   UNL d   1      45.571 -17.261  39.345  0.00  0.00     0.117 A 
ATOM      2  C   UNL d   1      45.197 -16.363  38.024  0.00  0.00     0.070 A 
ATOM      3  C   UNL d   1      46.121 -16.752  39.032  0.00  0.00     0.015 A 
ATOM      4  C   UNL d   1      44.825 -17.325  38.997  0.00  0.00     0.015 A 
ATOM      5  C   UNL d   1      45.936 -16.300  38.369  0.00  0.00     0.018 A 
ATOM      6  C   UNL d   1      44.643 -16.873  38.335  0.00  0.00     0.018 A 
ENDROOT
BRANCH   1   7
ATOM      7  S   UNL d   1      45.757 -17.713  40.009  0.00  0.00     0.327 S 
ATOM      8  O   UNL d   1      44.964 -17.667  40.256  0.00  0.00    -0.186 OA
ATOM      9  O   UNL d   1      46.533 -17.753  39.758  0.00  0.00    -0.186 OA
BRANCH   7  10
ATOM     10  N   UNL d   1      45.934 -18.162  40.671  0.00  0.00    -0.317 NA
BRANCH  10  11
ATOM     11  C   UNL d   1      46.112 -18.608  41.341  0.00  0.00     0.145 A 
ATOM     12  C   UNL d   1      45.980 -18.295  42.102  0.00  0.00     0.033 A 
ATOM     13  C   UNL d   1      46.159 -18.741  42.772  0.00  0.00     0.003 A 
ATOM     14  C   UNL d   1      46.466 -19.495  42.700  0.00  0.00     0.000 A 
ATOM     15  C   UNL d   1      46.602 -19.820  41.944  0.00  0.00     0.003 A 
ATOM     16  C   UNL d   1      46.643 -19.941  43.373  0.00  0.00     0.000 C 
ATOM     17  C   UNL d   1      46.423 -19.371  41.268  0.00  0.00     0.033 A 
ENDBRANCH  10  11
ENDBRANCH   7  10
ENDBRANCH   1   7
BRANCH   2  18
ATOM     18  N   UNL d   1      45.011 -15.911  37.360  0.00  0.00    -0.242 N 
ATOM     19  C   UNL d   1      44.279 -15.893  36.969  0.00  0.00     0.267 A 
ATOM     20  C   UNL d   1      44.336 -15.366  36.333  0.00  0.00     0.066 A 
ATOM     21  O   UNL d   1      43.610 -16.326  37.178  0.00  0.00    -0.267 OA
ATOM     22  C   UNL d   1      45.101 -15.059  36.330  0.00  0.00     0.066 A 
ATOM     23  C   UNL d   1      45.517 -15.393  36.961  0.00  0.00     0.267 A 
ATOM     24  O   UNL d   1      46.306 -15.234  37.159  0.00  0.00    -0.267 OA
ENDBRANCH   2  18
TORSDOF 4
ENDMDL
