MODEL 1
REMARK VINA RESULT:      -7.7      0.000      0.000
REMARK  4 active torsions:
REMARK  status: ('A' for Active; 'I' for Inactive)
REMARK    1  A    between atoms: N_2  and  C_9 
REMARK    2  A    between atoms: C_11  and  C_5 
REMARK    3  A    between atoms: C_6  and  C_7 
REMARK       I    between atoms: C_7  and  N_10 
REMARK    4  A    between atoms: N_10  and  C_21 
ROOT
ATOM      1  C   UNL d   1     -46.660  13.150  22.914  0.00  0.00     0.019 A 
ATOM      2  C   UNL d   1     -47.075  12.623  23.398  0.00  0.00     0.003 A 
ATOM      3  C   UNL d   1     -46.997  13.869  22.689  0.00  0.00     0.003 A 
ATOM      4  C   UNL d   1     -48.173  13.539  23.433  0.00  0.00     0.085 A 
ATOM      5  C   UNL d   1     -47.754  14.059  22.951  0.00  0.00     0.019 A 
ATOM      6  C   UNL d   1     -47.832  12.822  23.656  0.00  0.00     0.019 A 
ENDROOT
BRANCH   4   7
ATOM      7  N   UNL d   1     -48.934  13.732  23.695  0.00  0.00    -0.208 NA
ATOM      8  C   UNL d   1     -49.592  13.541  23.230  0.00  0.00     0.281 C 
ATOM      9  O   UNL d   1     -50.351  13.736  23.497  0.00  0.00    -0.265 OA
BRANCH   8  10
ATOM     10  C   UNL d   1     -49.488  13.158  22.506  0.00  0.00     0.080 A 
ATOM     11  C   UNL d   1     -49.825  12.417  22.388  0.00  0.00     0.131 A 
ATOM     12  C   UNL d   1     -49.719  12.037  21.663  0.00  0.00     0.024 A 
ATOM     13  C   UNL d   1     -49.284  12.395  21.068  0.00  0.00     0.002 A 
ATOM     14  C   UNL d   1     -48.948  13.139  21.190  0.00  0.00     0.000 A 
ATOM     15  C   UNL d   1     -49.052  13.521  21.913  0.00  0.00     0.006 A 
BRANCH  11  16
ATOM     16  N   UNL d   1     -50.265  12.056  22.993  0.00  0.00    -0.114 N 
ATOM     17  O   UNL d   1     -51.011  12.343  23.190  0.00  0.00    -0.532 OA
ATOM     18  O   UNL d   1     -49.955  11.409  23.400  0.00  0.00    -0.532 OA
ENDBRANCH  11  16
ENDBRANCH   8  10
ENDBRANCH   4   7
BRANCH   1  19
ATOM     19  C   UNL d   1     -45.899  12.957  22.652  0.00  0.00     0.101 A 
ATOM     20  N   UNL d   1     -45.419  12.359  22.943  0.00  0.00    -0.227 NA
ATOM     21  C   UNL d   1     -44.715  12.367  22.522  0.00  0.00     0.148 A 
ATOM     22  N   UNL d   1     -44.760  12.974  21.967  0.00  0.00    -0.288 N 
ATOM     23  C   UNL d   1     -44.037  11.901  22.570  0.00  0.00     0.037 A 
ATOM     24  C   UNL d   1     -44.128  13.115  21.461  0.00  0.00     0.082 A 
ATOM     25  C   UNL d   1     -45.489  13.336  22.048  0.00  0.00     0.101 A 
ATOM     26  C   UNL d   1     -43.449  12.648  21.508  0.00  0.00     0.019 A 
ATOM     27  C   UNL d   1     -43.402  12.041  22.062  0.00  0.00     0.005 A 
ENDBRANCH   1  19
TORSDOF 4
ENDMDL
MODEL 2
REMARK VINA RESULT:      -5.8      7.991      9.683
REMARK  4 active torsions:
REMARK  status: ('A' for Active; 'I' for Inactive)
REMARK    1  A    between atoms: N_2  and  C_9 
REMARK    2  A    between atoms: C_11  and  C_5 
REMARK    3  A    between atoms: C_6  and  C_7 
REMARK       I    between atoms: C_7  and  N_10 
REMARK    4  A    between atoms: N_10  and  C_21 
ROOT
ATOM      1  C   UNL d   1     -39.643  14.674  18.016  0.00  0.00     0.019 A 
ATOM      2  C   UNL d   1     -39.806  14.042  18.525  0.00  0.00     0.003 A 
ATOM      3  C   UNL d   1     -39.876  15.441  18.211  0.00  0.00     0.003 A 
ATOM      4  C   UNL d   1     -40.439  14.950  19.431  0.00  0.00     0.085 A 
ATOM      5  C   UNL d   1     -40.273  15.574  18.919  0.00  0.00     0.019 A 
ATOM      6  C   UNL d   1     -40.204  14.185  19.232  0.00  0.00     0.019 A 
ENDROOT
BRANCH   4   7
ATOM      7  N   UNL d   1     -40.838  15.087  20.142  0.00  0.00    -0.208 NA
ATOM      8  C   UNL d   1     -40.412  15.283  20.824  0.00  0.00     0.281 C 
ATOM      9  O   UNL d   1     -40.816  15.418  21.533  0.00  0.00    -0.265 OA
BRANCH   8  10
ATOM     10  C   UNL d   1     -39.589  15.342  20.794  0.00  0.00     0.080 A 
ATOM     11  C   UNL d   1     -39.131  14.879  21.295  0.00  0.00     0.131 A 
ATOM     12  C   UNL d   1     -38.309  14.941  21.262  0.00  0.00     0.024 A 
ATOM     13  C   UNL d   1     -37.954  15.459  20.735  0.00  0.00     0.002 A 
ATOM     14  C   UNL d   1     -38.416  15.922  20.233  0.00  0.00     0.000 A 
ATOM     15  C   UNL d   1     -39.238  15.862  20.264  0.00  0.00     0.006 A 
BRANCH  11  16
ATOM     16  N   UNL d   1     -39.493  14.356  21.829  0.00  0.00    -0.114 N 
ATOM     17  O   UNL d   1     -39.782  14.632  22.549  0.00  0.00    -0.532 OA
ATOM     18  O   UNL d   1     -39.565  13.556  21.638  0.00  0.00    -0.532 OA
ENDBRANCH  11  16
ENDBRANCH   8  10
ENDBRANCH   4   7
BRANCH   1  19
ATOM     19  C   UNL d   1     -39.243  14.537  17.304  0.00  0.00     0.101 A 
ATOM     20  N   UNL d   1     -39.004  15.105  16.761  0.00  0.00    -0.227 NA
ATOM     21  C   UNL d   1     -38.630  14.723  16.140  0.00  0.00     0.148 A 
ATOM     22  N   UNL d   1     -38.637  13.915  16.299  0.00  0.00    -0.288 N 
ATOM     23  C   UNL d   1     -38.281  15.005  15.447  0.00  0.00     0.037 A 
ATOM     24  C   UNL d   1     -38.296  13.389  15.766  0.00  0.00     0.082 A 
ATOM     25  C   UNL d   1     -39.015  13.802  17.016  0.00  0.00     0.101 A 
ATOM     26  C   UNL d   1     -37.947  13.671  15.073  0.00  0.00     0.019 A 
ATOM     27  C   UNL d   1     -37.940  14.478  14.913  0.00  0.00     0.005 A 
ENDBRANCH   1  19
TORSDOF 4
ENDMDL
MODEL 3
REMARK VINA RESULT:      -5.6      7.753      9.730
REMARK  4 active torsions:
REMARK  status: ('A' for Active; 'I' for Inactive)
REMARK    1  A    between atoms: N_2  and  C_9 
REMARK    2  A    between atoms: C_11  and  C_5 
REMARK    3  A    between atoms: C_6  and  C_7 
REMARK       I    between atoms: C_7  and  N_10 
REMARK    4  A    between atoms: N_10  and  C_21 
ROOT
ATOM      1  C   UNL d   1     -38.286  15.003  18.857  0.00  0.00     0.019 A 
ATOM      2  C   UNL d   1     -37.940  14.511  19.426  0.00  0.00     0.003 A 
ATOM      3  C   UNL d   1     -38.651  15.709  19.079  0.00  0.00     0.003 A 
ATOM      4  C   UNL d   1     -38.326  15.438  20.445  0.00  0.00     0.085 A 
ATOM      5  C   UNL d   1     -38.669  15.922  19.874  0.00  0.00     0.019 A 
ATOM      6  C   UNL d   1     -37.962  14.733  20.219  0.00  0.00     0.019 A 
ENDROOT
BRANCH   4   7
ATOM      7  N   UNL d   1     -38.345  15.654  21.244  0.00  0.00    -0.208 NA
ATOM      8  C   UNL d   1     -39.012  15.480  21.703  0.00  0.00     0.281 C 
ATOM      9  O   UNL d   1     -39.025  15.698  22.501  0.00  0.00    -0.265 OA
BRANCH   8  10
ATOM     10  C   UNL d   1     -39.656  15.093  21.364  0.00  0.00     0.080 A 
ATOM     11  C   UNL d   1     -39.863  14.342  21.630  0.00  0.00     0.131 A 
ATOM     12  C   UNL d   1     -40.508  13.958  21.288  0.00  0.00     0.024 A 
ATOM     13  C   UNL d   1     -40.938  14.320  20.692  0.00  0.00     0.002 A 
ATOM     14  C   UNL d   1     -40.728  15.072  20.428  0.00  0.00     0.000 A 
ATOM     15  C   UNL d   1     -40.084  15.460  20.767  0.00  0.00     0.006 A 
BRANCH  11  16
ATOM     16  N   UNL d   1     -39.426  13.978  22.234  0.00  0.00    -0.114 N 
ATOM     17  O   UNL d   1     -39.421  14.298  22.993  0.00  0.00    -0.532 OA
ATOM     18  O   UNL d   1     -38.994  13.293  22.076  0.00  0.00    -0.532 OA
ENDBRANCH  11  16
ENDBRANCH   8  10
ENDBRANCH   4   7
BRANCH   1  19
ATOM     19  C   UNL d   1     -38.268  14.787  18.058  0.00  0.00     0.101 A 
ATOM     20  N   UNL d   1     -38.432  14.045  17.749  0.00  0.00    -0.227 NA
ATOM     21  C   UNL d   1     -38.346  14.082  16.935  0.00  0.00     0.148 A 
ATOM     22  N   UNL d   1     -38.127  14.852  16.739  0.00  0.00    -0.288 N 
ATOM     23  C   UNL d   1     -38.438  13.516  16.342  0.00  0.00     0.037 A 
ATOM     24  C   UNL d   1     -38.000  15.055  15.952  0.00  0.00     0.082 A 
ATOM     25  C   UNL d   1     -38.079  15.284  17.432  0.00  0.00     0.101 A 
ATOM     26  C   UNL d   1     -38.092  14.488  15.359  0.00  0.00     0.019 A 
ATOM     27  C   UNL d   1     -38.311  13.719  15.554  0.00  0.00     0.005 A 
ENDBRANCH   1  19
TORSDOF 4
ENDMDL
MODEL 4
REMARK VINA RESULT:      -5.0      8.778      9.855
REMARK  4 active torsions:
REMARK  status: ('A' for Active; 'I' for Inactive)
REMARK    1  A    between atoms: N_2  and  C_9 
REMARK    2  A    between atoms: C_11  and  C_5 
REMARK    3  A    between atoms: C_6  and  C_7 
REMARK       I    between atoms: C_7  and  N_10 
REMARK    4  A    between atoms: N_10  and  C_21 
ROOT
ATOM      1  C   UNL d   1     -38.130  14.447  20.182  0.00  0.00     0.019 A 
ATOM      2  C   UNL d   1     -37.967  15.223  19.942  0.00  0.00     0.003 A 
ATOM      3  C   UNL d   1     -38.295  13.862  19.624  0.00  0.00     0.003 A 
ATOM      4  C   UNL d   1     -38.135  14.825  18.579  0.00  0.00     0.085 A 
ATOM      5  C   UNL d   1     -38.296  14.055  18.824  0.00  0.00     0.019 A 
ATOM      6  C   UNL d   1     -37.971  15.407  19.139  0.00  0.00     0.019 A 
ENDROOT
BRANCH   4   7
ATOM      7  N   UNL d   1     -38.136  15.017  17.774  0.00  0.00    -0.208 NA
ATOM      8  C   UNL d   1     -38.833  15.284  17.415  0.00  0.00     0.281 C 
ATOM      9  O   UNL d   1     -38.829  15.476  16.610  0.00  0.00    -0.265 OA
BRANCH   8  10
ATOM     10  C   UNL d   1     -39.524  15.358  17.859  0.00  0.00     0.080 A 
ATOM     11  C   UNL d   1     -40.196  14.940  17.635  0.00  0.00     0.131 A 
ATOM     12  C   UNL d   1     -40.885  15.017  18.082  0.00  0.00     0.024 A 
ATOM     13  C   UNL d   1     -40.900  15.504  18.741  0.00  0.00     0.002 A 
ATOM     14  C   UNL d   1     -40.225  15.922  18.963  0.00  0.00     0.000 A 
ATOM     15  C   UNL d   1     -39.533  15.848  18.518  0.00  0.00     0.006 A 
BRANCH  11  16
ATOM     16  N   UNL d   1     -40.178  14.447  16.967  0.00  0.00    -0.114 N 
ATOM     17  O   UNL d   1     -40.068  13.636  17.054  0.00  0.00    -0.532 OA
ATOM     18  O   UNL d   1     -40.271  14.770  16.214  0.00  0.00    -0.532 OA
ENDBRANCH  11  16
ENDBRANCH   8  10
ENDBRANCH   4   7
BRANCH   1  19
ATOM     19  C   UNL d   1     -38.129  14.254  20.986  0.00  0.00     0.101 A 
ATOM     20  N   UNL d   1     -38.031  14.775  21.613  0.00  0.00    -0.227 NA
ATOM     21  C   UNL d   1     -38.068  14.346  22.311  0.00  0.00     0.148 A 
ATOM     22  N   UNL d   1     -38.188  13.555  22.114  0.00  0.00    -0.288 N 
ATOM     23  C   UNL d   1     -38.007  14.570  23.102  0.00  0.00     0.037 A 
ATOM     24  C   UNL d   1     -38.247  12.989  22.709  0.00  0.00     0.082 A 
ATOM     25  C   UNL d   1     -38.225  13.500  21.299  0.00  0.00     0.101 A 
ATOM     26  C   UNL d   1     -38.187  13.214  23.500  0.00  0.00     0.019 A 
ATOM     27  C   UNL d   1     -38.066  14.004  23.698  0.00  0.00     0.005 A 
ENDBRANCH   1  19
TORSDOF 4
ENDMDL
MODEL 5
REMARK VINA RESULT:      -4.7      8.032     10.298
REMARK  4 active torsions:
REMARK  status: ('A' for Active; 'I' for Inactive)
REMARK    1  A    between atoms: N_2  and  C_9 
REMARK    2  A    between atoms: C_11  and  C_5 
REMARK    3  A    between atoms: C_6  and  C_7 
REMARK       I    between atoms: C_7  and  N_10 
REMARK    4  A    between atoms: N_10  and  C_21 
ROOT
ATOM      1  C   UNL d   1     -38.015  14.732  17.681  0.00  0.00     0.019 A 
ATOM      2  C   UNL d   1     -37.948  14.152  18.268  0.00  0.00     0.003 A 
ATOM      3  C   UNL d   1     -38.097  15.527  17.884  0.00  0.00     0.003 A 
ATOM      4  C   UNL d   1     -38.047  15.171  19.268  0.00  0.00     0.085 A 
ATOM      5  C   UNL d   1     -38.113  15.742  18.678  0.00  0.00     0.019 A 
ATOM      6  C   UNL d   1     -37.964  14.377  19.061  0.00  0.00     0.019 A 
ENDROOT
BRANCH   4   7
ATOM      7  N   UNL d   1     -38.062  15.389  20.066  0.00  0.00    -0.208 NA
ATOM      8  C   UNL d   1     -38.787  15.534  20.440  0.00  0.00     0.281 C 
ATOM      9  O   UNL d   1     -38.797  15.751  21.238  0.00  0.00    -0.265 OA
BRANCH   8  10
ATOM     10  C   UNL d   1     -39.491  15.461  20.017  0.00  0.00     0.080 A 
ATOM     11  C   UNL d   1     -40.062  14.926  20.271  0.00  0.00     0.131 A 
ATOM     12  C   UNL d   1     -40.766  14.855  19.845  0.00  0.00     0.024 A 
ATOM     13  C   UNL d   1     -40.894  15.313  19.178  0.00  0.00     0.002 A 
ATOM     14  C   UNL d   1     -40.319  15.849  18.926  0.00  0.00     0.000 A 
ATOM     15  C   UNL d   1     -39.615  15.922  19.349  0.00  0.00     0.006 A 
BRANCH  11  16
ATOM     16  N   UNL d   1     -39.930  14.463  20.947  0.00  0.00    -0.114 N 
ATOM     17  O   UNL d   1     -39.961  14.804  21.696  0.00  0.00    -0.532 OA
ATOM     18  O   UNL d   1     -39.766  13.658  20.871  0.00  0.00    -0.532 OA
ENDBRANCH  11  16
ENDBRANCH   8  10
ENDBRANCH   4   7
BRANCH   1  19
ATOM     19  C   UNL d   1     -37.999  14.514  16.883  0.00  0.00     0.101 A 
ATOM     20  N   UNL d   1     -38.003  15.021  16.238  0.00  0.00    -0.227 NA
ATOM     21  C   UNL d   1     -37.983  14.568  15.555  0.00  0.00     0.148 A 
ATOM     22  N   UNL d   1     -37.967  13.775  15.779  0.00  0.00    -0.288 N 
ATOM     23  C   UNL d   1     -37.977  14.771  14.755  0.00  0.00     0.037 A 
ATOM     24  C   UNL d   1     -37.945  13.187  15.204  0.00  0.00     0.082 A 
ATOM     25  C   UNL d   1     -37.977  13.744  16.596  0.00  0.00     0.101 A 
ATOM     26  C   UNL d   1     -37.940  13.390  14.405  0.00  0.00     0.019 A 
ATOM     27  C   UNL d   1     -37.955  14.182  14.180  0.00  0.00     0.005 A 
ENDBRANCH   1  19
TORSDOF 4
ENDMDL
