MODEL 1
REMARK VINA RESULT:      97.8      0.000      0.000
REMARK  7 active torsions:
REMARK  status: ('A' for Active; 'I' for Inactive)
REMARK    1  A    between atoms: C_11  and  N_3 
REMARK    2  A    between atoms: C_10  and  C_4 
REMARK    3  A    between atoms: C_16  and  C_11 
REMARK    4  A    between atoms: N_13  and  C_17 
REMARK    5  A    between atoms: C_18  and  N_14 
REMARK    6  A    between atoms: C_17  and  C_16 
REMARK    7  A    between atoms: C_27  and  C_18 
ROOT
ATOM      1  C   UNL d   1     -57.775 -98.963 -45.017  0.00  0.00     0.137 A 
ATOM      2  N   UNL d   1     -58.585 -98.888 -44.832  0.00  0.00    -0.259 N 
ATOM      3  N   UNL d   1     -57.367 -99.002 -44.301  0.00  0.00    -0.287 N 
ATOM      4  C   UNL d   1     -57.533 -98.984 -45.799  0.00  0.00     0.054 A 
ATOM      5  C   UNL d   1     -59.142 -98.835 -45.443  0.00  0.00     0.266 A 
ATOM      6  C   UNL d   1     -58.667 -98.881 -44.011  0.00  0.00     0.084 A 
ATOM      7  C   UNL d   1     -57.904 -98.953 -43.679  0.00  0.00     0.082 A 
ATOM      8  C   UNL d   1     -58.085 -98.932 -46.410  0.00  0.00     0.009 A 
ATOM      9  C   UNL d   1     -58.894 -98.857 -46.238  0.00  0.00     0.061 A 
ATOM     10  O   UNL d   1     -59.948 -98.760 -45.267  0.00  0.00    -0.267 OA
ATOM     11  C   UNL d   1     -59.321 -98.821 -43.516  0.00  0.00     0.019 A 
ATOM     12  C   UNL d   1     -57.839 -98.954 -47.200  0.00  0.00     0.000 C 
ATOM     13  C   UNL d   1     -57.824 -98.962 -42.865  0.00  0.00     0.019 A 
ATOM     14  C   UNL d   1     -59.223 -98.831 -42.704  0.00  0.00     0.002 A 
ATOM     15  C   UNL d   1     -58.467 -98.902 -42.375  0.00  0.00     0.002 A 
ENDROOT
BRANCH   3  16
ATOM     16  C   UNL d   1     -56.618 -99.073 -43.966  0.00  0.00     0.125 C 
BRANCH  16  17
ATOM     17  C   UNL d   1     -55.984 -99.327 -44.427  0.00  0.00     0.231 C 
ATOM     18  O   UNL d   1     -55.386 -98.803 -44.638  0.00  0.00    -0.283 OA
BRANCH  17  19
ATOM     19  C   UNL d   1     -55.948-100.110 -44.679  0.00  0.00     0.124 C 
BRANCH  19  20
ATOM     20  N   UNL d   1     -55.546-100.667 -44.221  0.00  0.00    -0.297 N 
ATOM     21  C   UNL d   1     -55.814-100.496 -43.456  0.00  0.00     0.100 A 
ATOM     22  C   UNL d   1     -55.534-100.943 -42.817  0.00  0.00     0.100 A 
ATOM     23  N   UNL d   1     -54.988-101.561 -42.929  0.00  0.00    -0.300 N 
ATOM     24  C   UNL d   1     -54.720-101.729 -43.706  0.00  0.00     0.100 A 
ATOM     25  C   UNL d   1     -55.000-101.282 -44.345  0.00  0.00     0.100 A 
BRANCH  23  26
ATOM     26  C   UNL d   1     -54.716-101.999 -42.284  0.00  0.00     0.080 C 
BRANCH  26  27
ATOM     27  C   UNL d   1     -55.254-102.275 -41.717  0.00  0.00     0.018 A 
ATOM     28  C   UNL d   1     -56.056-102.311 -41.905  0.00  0.00     0.002 A 
ATOM     29  C   UNL d   1     -56.601-102.589 -41.334  0.00  0.00     0.000 A 
ATOM     30  C   UNL d   1     -56.335-102.824 -40.592  0.00  0.00     0.000 A 
ATOM     31  C   UNL d   1     -55.522-102.785 -40.409  0.00  0.00     0.000 A 
ATOM     32  C   UNL d   1     -54.985-102.509 -40.977  0.00  0.00     0.002 A 
ENDBRANCH  26  27
ENDBRANCH  23  26
ENDBRANCH  19  20
ENDBRANCH  17  19
ENDBRANCH  16  17
ENDBRANCH   3  16
BRANCH   4  33
ATOM     33  C   UNL d   1     -56.737 -99.058 -45.981  0.00  0.00     0.125 C 
ATOM     34  N   UNL d   1     -56.430 -98.764 -46.685  0.00  0.00    -0.146 N 
ENDBRANCH   4  33
TORSDOF 7
ENDMDL
