MODEL 1
REMARK VINA RESULT:      -2.7      0.000      0.000
REMARK  2 active torsions:
REMARK  status: ('A' for Active; 'I' for Inactive)
REMARK       I    between atoms: C_3  and  N_1 
REMARK    1  A    between atoms: C_7  and  C_3 
REMARK    2  A    between atoms: O_15  and  C_11 
ROOT
ATOM      1  N   UNL d   1      29.663  17.041 -24.304  0.00  0.00    -0.195 N 
ATOM      2  N   UNL d   1      29.516  16.418 -23.771  0.00  0.00    -0.163 NA
ATOM      3  C   UNL d   1      30.391  17.326 -24.559  0.00  0.00     0.280 C 
ATOM      4  C   UNL d   1      28.975  17.340 -24.547  0.00  0.00     0.088 A 
ATOM      5  C   UNL d   1      28.355  16.922 -24.181  0.00  0.00     0.040 A 
ATOM      6  C   UNL d   1      28.696  16.355 -23.704  0.00  0.00     0.103 A 
ATOM      7  O   UNL d   1      30.413  17.945 -25.087  0.00  0.00    -0.265 OA
ATOM      8  C   UNL d   1      28.883  17.984 -25.094  0.00  0.00     0.021 C 
ATOM      9  C   UNL d   1      28.269  15.806 -23.229  0.00  0.00     0.022 C 
ENDROOT
BRANCH   3  10
ATOM     10  C   UNL d   1      31.106  16.995 -24.289  0.00  0.00     0.058 A 
ATOM     11  C   UNL d   1      31.516  17.359 -23.674  0.00  0.00     0.007 A 
ATOM     12  C   UNL d   1      32.223  17.043 -23.399  0.00  0.00     0.024 A 
ATOM     13  C   UNL d   1      32.522  16.359 -23.739  0.00  0.00     0.094 A 
ATOM     14  C   UNL d   1      32.117  15.989 -24.356  0.00  0.00     0.024 A 
ATOM     15  C   UNL d   1      31.412  16.297 -24.637  0.00  0.00     0.007 A 
BRANCH  13  16
ATOM     16  O   UNL d   1      33.241  16.049 -23.450  0.00  0.00    -0.328 OA
ATOM     17  C   UNL d   1      33.233  15.453 -22.863  0.00  0.00     0.181 C 
ENDBRANCH  13  16
ENDBRANCH   3  10
TORSDOF 2
ENDMDL
MODEL 2
REMARK VINA RESULT:      -2.7      1.566      2.203
REMARK  2 active torsions:
REMARK  status: ('A' for Active; 'I' for Inactive)
REMARK       I    between atoms: C_3  and  N_1 
REMARK    1  A    between atoms: C_7  and  C_3 
REMARK    2  A    between atoms: O_15  and  C_11 
ROOT
ATOM      1  N   UNL d   1      30.750  16.807 -24.541  0.00  0.00    -0.195 N 
ATOM      2  N   UNL d   1      30.225  17.407 -24.301  0.00  0.00    -0.163 NA
ATOM      3  C   UNL d   1      31.572  16.819 -24.523  0.00  0.00     0.280 C 
ATOM      4  C   UNL d   1      30.335  16.189 -24.802  0.00  0.00     0.088 A 
ATOM      5  C   UNL d   1      29.523  16.365 -24.742  0.00  0.00     0.040 A 
ATOM      6  C   UNL d   1      29.463  17.117 -24.432  0.00  0.00     0.103 A 
ATOM      7  O   UNL d   1      31.986  16.169 -24.785  0.00  0.00    -0.265 OA
ATOM      8  C   UNL d   1      30.665  15.464 -25.097  0.00  0.00     0.021 C 
ATOM      9  C   UNL d   1      28.737  17.517 -24.278  0.00  0.00     0.022 C 
ENDROOT
BRANCH   3  10
ATOM     10  C   UNL d   1      31.991  17.482 -24.243  0.00  0.00     0.058 A 
ATOM     11  C   UNL d   1      32.226  17.512 -23.453  0.00  0.00     0.007 A 
ATOM     12  C   UNL d   1      32.640  18.160 -23.165  0.00  0.00     0.024 A 
ATOM     13  C   UNL d   1      32.820  18.784 -23.666  0.00  0.00     0.094 A 
ATOM     14  C   UNL d   1      32.588  18.762 -24.458  0.00  0.00     0.024 A 
ATOM     15  C   UNL d   1      32.175  18.120 -24.754  0.00  0.00     0.007 A 
BRANCH  13  16
ATOM     16  O   UNL d   1      33.241  19.436 -23.360  0.00  0.00    -0.328 OA
ATOM     17  C   UNL d   1      32.994  19.796 -22.646  0.00  0.00     0.181 C 
ENDBRANCH  13  16
ENDBRANCH   3  10
TORSDOF 2
ENDMDL
MODEL 3
REMARK VINA RESULT:      -2.6      2.114      3.424
REMARK  2 active torsions:
REMARK  status: ('A' for Active; 'I' for Inactive)
REMARK       I    between atoms: C_3  and  N_1 
REMARK    1  A    between atoms: C_7  and  C_3 
REMARK    2  A    between atoms: O_15  and  C_11 
ROOT
ATOM      1  N   UNL d   1      32.545  18.432 -23.813  0.00  0.00    -0.195 N 
ATOM      2  N   UNL d   1      32.441  18.520 -22.991  0.00  0.00    -0.163 NA
ATOM      3  C   UNL d   1      32.237  17.846 -24.301  0.00  0.00     0.280 C 
ATOM      4  C   UNL d   1      33.002  19.016 -24.079  0.00  0.00     0.088 A 
ATOM      5  C   UNL d   1      33.213  19.506 -23.440  0.00  0.00     0.040 A 
ATOM      6  C   UNL d   1      32.863  19.194 -22.772  0.00  0.00     0.103 A 
ATOM      7  O   UNL d   1      32.406  17.860 -25.097  0.00  0.00    -0.265 OA
ATOM      8  C   UNL d   1      33.240  19.126 -24.888  0.00  0.00     0.021 C 
ATOM      9  C   UNL d   1      32.932  19.517 -21.997  0.00  0.00     0.022 C 
ENDROOT
BRANCH   3  10
ATOM     10  C   UNL d   1      31.755  17.237 -23.999  0.00  0.00     0.058 A 
ATOM     11  C   UNL d   1      30.937  17.332 -23.989  0.00  0.00     0.007 A 
ATOM     12  C   UNL d   1      30.451  16.739 -23.694  0.00  0.00     0.024 A 
ATOM     13  C   UNL d   1      30.783  16.047 -23.406  0.00  0.00     0.094 A 
ATOM     14  C   UNL d   1      31.602  15.944 -23.412  0.00  0.00     0.024 A 
ATOM     15  C   UNL d   1      32.094  16.530 -23.705  0.00  0.00     0.007 A 
BRANCH  13  16
ATOM     16  O   UNL d   1      30.279  15.453 -23.109  0.00  0.00    -0.328 OA
ATOM     17  C   UNL d   1      29.449  15.554 -23.140  0.00  0.00     0.181 C 
ENDBRANCH  13  16
ENDBRANCH   3  10
TORSDOF 2
ENDMDL
MODEL 4
REMARK VINA RESULT:      -2.5      1.569      3.531
REMARK  2 active torsions:
REMARK  status: ('A' for Active; 'I' for Inactive)
REMARK       I    between atoms: C_3  and  N_1 
REMARK    1  A    between atoms: C_7  and  C_3 
REMARK    2  A    between atoms: O_15  and  C_11 
ROOT
ATOM      1  N   UNL d   1      32.131  16.855 -24.095  0.00  0.00    -0.195 N 
ATOM      2  N   UNL d   1      31.986  17.418 -23.499  0.00  0.00    -0.163 NA
ATOM      3  C   UNL d   1      31.610  16.296 -24.399  0.00  0.00     0.280 C 
ATOM      4  C   UNL d   1      32.875  16.931 -24.346  0.00  0.00     0.088 A 
ATOM      5  C   UNL d   1      33.241  17.547 -23.921  0.00  0.00     0.040 A 
ATOM      6  C   UNL d   1      32.687  17.842 -23.401  0.00  0.00     0.103 A 
ATOM      7  O   UNL d   1      31.864  15.793 -24.987  0.00  0.00    -0.265 OA
ATOM      8  C   UNL d   1      33.241  16.460 -24.952  0.00  0.00     0.021 C 
ATOM      9  C   UNL d   1      32.824  18.474 -22.861  0.00  0.00     0.022 C 
ENDROOT
BRANCH   3  10
ATOM     10  C   UNL d   1      30.829  16.233 -24.120  0.00  0.00     0.058 A 
ATOM     11  C   UNL d   1      30.229  16.666 -24.484  0.00  0.00     0.007 A 
ATOM     12  C   UNL d   1      29.454  16.612 -24.218  0.00  0.00     0.024 A 
ATOM     13  C   UNL d   1      29.274  16.124 -23.584  0.00  0.00     0.094 A 
ATOM     14  C   UNL d   1      29.869  15.687 -23.213  0.00  0.00     0.024 A 
ATOM     15  C   UNL d   1      30.645  15.734 -23.472  0.00  0.00     0.007 A 
BRANCH  13  16
ATOM     16  O   UNL d   1      28.483  16.078 -23.323  0.00  0.00    -0.328 OA
ATOM     17  C   UNL d   1      27.991  15.455 -23.587  0.00  0.00     0.181 C 
ENDBRANCH  13  16
ENDBRANCH   3  10
TORSDOF 2
ENDMDL
MODEL 5
REMARK VINA RESULT:      -2.0      2.598      3.761
REMARK  2 active torsions:
REMARK  status: ('A' for Active; 'I' for Inactive)
REMARK       I    between atoms: C_3  and  N_1 
REMARK    1  A    between atoms: C_7  and  C_3 
REMARK    2  A    between atoms: O_15  and  C_11 
ROOT
ATOM      1  N   UNL d   1      32.929  19.358 -23.504  0.00  0.00    -0.195 N 
ATOM      2  N   UNL d   1      32.888  19.238 -22.681  0.00  0.00    -0.163 NA
ATOM      3  C   UNL d   1      32.782  18.812 -24.101  0.00  0.00     0.280 C 
ATOM      4  C   UNL d   1      33.138  20.105 -23.646  0.00  0.00     0.088 A 
ATOM      5  C   UNL d   1      33.241  20.499 -22.919  0.00  0.00     0.040 A 
ATOM      6  C   UNL d   1      33.085  19.958 -22.329  0.00  0.00     0.103 A 
ATOM      7  O   UNL d   1      32.853  19.043 -24.878  0.00  0.00    -0.265 OA
ATOM      8  C   UNL d   1      33.240  20.450 -24.416  0.00  0.00     0.021 C 
ATOM      9  C   UNL d   1      33.124  20.123 -21.504  0.00  0.00     0.022 C 
ENDROOT
BRANCH   3  10
ATOM     10  C   UNL d   1      32.563  18.028 -23.929  0.00  0.00     0.058 A 
ATOM     11  C   UNL d   1      31.810  17.761 -24.132  0.00  0.00     0.007 A 
ATOM     12  C   UNL d   1      31.581  16.990 -23.968  0.00  0.00     0.024 A 
ATOM     13  C   UNL d   1      32.106  16.480 -23.598  0.00  0.00     0.094 A 
ATOM     14  C   UNL d   1      32.862  16.739 -23.390  0.00  0.00     0.024 A 
ATOM     15  C   UNL d   1      33.099  17.507 -23.550  0.00  0.00     0.007 A 
BRANCH  13  16
ATOM     16  O   UNL d   1      31.862  15.699 -23.436  0.00  0.00    -0.328 OA
ATOM     17  C   UNL d   1      31.087  15.552 -23.155  0.00  0.00     0.181 C 
ENDBRANCH  13  16
ENDBRANCH   3  10
TORSDOF 2
ENDMDL
MODEL 6
REMARK VINA RESULT:      -2.0      1.202      1.612
REMARK  2 active torsions:
REMARK  status: ('A' for Active; 'I' for Inactive)
REMARK       I    between atoms: C_3  and  N_1 
REMARK    1  A    between atoms: C_7  and  C_3 
REMARK    2  A    between atoms: O_15  and  C_11 
ROOT
ATOM      1  N   UNL d   1      29.592  16.627 -24.358  0.00  0.00    -0.195 N 
ATOM      2  N   UNL d   1      29.424  17.330 -23.944  0.00  0.00    -0.163 NA
ATOM      3  C   UNL d   1      30.318  16.375 -24.652  0.00  0.00     0.280 C 
ATOM      4  C   UNL d   1      28.928  16.208 -24.436  0.00  0.00     0.088 A 
ATOM      5  C   UNL d   1      28.303  16.624 -24.075  0.00  0.00     0.040 A 
ATOM      6  C   UNL d   1      28.617  17.315 -23.774  0.00  0.00     0.103 A 
ATOM      7  O   UNL d   1      30.364  15.663 -25.044  0.00  0.00    -0.265 OA
ATOM      8  C   UNL d   1      28.863  15.455 -24.825  0.00  0.00     0.021 C 
ATOM      9  C   UNL d   1      28.176  17.903 -23.362  0.00  0.00     0.022 C 
ENDROOT
BRANCH   3  10
ATOM     10  C   UNL d   1      31.007  16.833 -24.559  0.00  0.00     0.058 A 
ATOM     11  C   UNL d   1      31.528  16.664 -23.943  0.00  0.00     0.007 A 
ATOM     12  C   UNL d   1      32.211  17.108 -23.840  0.00  0.00     0.024 A 
ATOM     13  C   UNL d   1      32.377  17.725 -24.354  0.00  0.00     0.094 A 
ATOM     14  C   UNL d   1      31.860  17.901 -24.974  0.00  0.00     0.024 A 
ATOM     15  C   UNL d   1      31.176  17.463 -25.084  0.00  0.00     0.007 A 
BRANCH  13  16
ATOM     16  O   UNL d   1      33.074  18.168 -24.239  0.00  0.00    -0.328 OA
ATOM     17  C   UNL d   1      33.228  18.521 -23.496  0.00  0.00     0.181 C 
ENDBRANCH  13  16
ENDBRANCH   3  10
TORSDOF 2
ENDMDL
MODEL 7
REMARK VINA RESULT:      -1.3      7.044      7.844
REMARK  2 active torsions:
REMARK  status: ('A' for Active; 'I' for Inactive)
REMARK       I    between atoms: C_3  and  N_1 
REMARK    1  A    between atoms: C_7  and  C_3 
REMARK    2  A    between atoms: O_15  and  C_11 
ROOT
ATOM      1  N   UNL d   1      32.525  22.332 -20.870  0.00  0.00    -0.195 N 
ATOM      2  N   UNL d   1      32.720  21.620 -20.484  0.00  0.00    -0.163 NA
ATOM      3  C   UNL d   1      32.399  23.071 -20.533  0.00  0.00     0.280 C 
ATOM      4  C   UNL d   1      32.474  22.199 -21.646  0.00  0.00     0.088 A 
ATOM      5  C   UNL d   1      32.634  21.395 -21.793  0.00  0.00     0.040 A 
ATOM      6  C   UNL d   1      32.785  21.045 -21.072  0.00  0.00     0.103 A 
ATOM      7  O   UNL d   1      32.212  23.702 -21.013  0.00  0.00    -0.265 OA
ATOM      8  C   UNL d   1      32.286  22.783 -22.234  0.00  0.00     0.021 C 
ATOM      9  C   UNL d   1      32.973  20.230 -20.963  0.00  0.00     0.022 C 
ENDROOT
BRANCH   3  10
ATOM     10  C   UNL d   1      32.458  23.189 -19.711  0.00  0.00     0.058 A 
ATOM     11  C   UNL d   1      33.170  23.448 -19.387  0.00  0.00     0.007 A 
ATOM     12  C   UNL d   1      33.241  23.569 -18.577  0.00  0.00     0.024 A 
ATOM     13  C   UNL d   1      32.598  23.431 -18.087  0.00  0.00     0.094 A 
ATOM     14  C   UNL d   1      31.882  23.171 -18.404  0.00  0.00     0.024 A 
ATOM     15  C   UNL d   1      31.801  23.048 -19.210  0.00  0.00     0.007 A 
BRANCH  13  16
ATOM     16  O   UNL d   1      32.684  23.557 -17.267  0.00  0.00    -0.328 OA
ATOM     17  C   UNL d   1      33.214  23.086 -16.824  0.00  0.00     0.181 C 
ENDBRANCH  13  16
ENDBRANCH   3  10
TORSDOF 2
ENDMDL
MODEL 8
REMARK VINA RESULT:      -1.1      4.107      5.399
REMARK  2 active torsions:
REMARK  status: ('A' for Active; 'I' for Inactive)
REMARK       I    between atoms: C_3  and  N_1 
REMARK    1  A    between atoms: C_7  and  C_3 
REMARK    2  A    between atoms: O_15  and  C_11 
ROOT
ATOM      1  N   UNL d   1      32.928  19.358 -22.851  0.00  0.00    -0.195 N 
ATOM      2  N   UNL d   1      32.744  19.804 -23.529  0.00  0.00    -0.163 NA
ATOM      3  C   UNL d   1      32.992  19.622 -22.075  0.00  0.00     0.280 C 
ATOM      4  C   UNL d   1      33.041  18.606 -23.060  0.00  0.00     0.088 A 
ATOM      5  C   UNL d   1      32.934  18.535 -23.883  0.00  0.00     0.040 A 
ATOM      6  C   UNL d   1      32.751  19.278 -24.165  0.00  0.00     0.103 A 
ATOM      7  O   UNL d   1      33.179  19.090 -21.487  0.00  0.00    -0.265 OA
ATOM      8  C   UNL d   1      33.240  17.972 -22.529  0.00  0.00     0.021 C 
ATOM      9  C   UNL d   1      32.598  19.461 -24.973  0.00  0.00     0.022 C 
ENDROOT
BRANCH   3  10
ATOM     10  C   UNL d   1      32.868  20.421 -21.876  0.00  0.00     0.058 A 
ATOM     11  C   UNL d   1      32.381  20.612 -21.239  0.00  0.00     0.007 A 
ATOM     12  C   UNL d   1      32.251  21.396 -21.033  0.00  0.00     0.024 A 
ATOM     13  C   UNL d   1      32.610  21.995 -21.464  0.00  0.00     0.094 A 
ATOM     14  C   UNL d   1      33.099  21.812 -22.103  0.00  0.00     0.024 A 
ATOM     15  C   UNL d   1      33.234  21.032 -22.316  0.00  0.00     0.007 A 
BRANCH  13  16
ATOM     16  O   UNL d   1      32.470  22.787 -21.245  0.00  0.00    -0.328 OA
ATOM     17  C   UNL d   1      32.013  23.285 -21.739  0.00  0.00     0.181 C 
ENDBRANCH  13  16
ENDBRANCH   3  10
TORSDOF 2
ENDMDL
MODEL 9
REMARK VINA RESULT:      -1.1      2.290      3.453
REMARK  2 active torsions:
REMARK  status: ('A' for Active; 'I' for Inactive)
REMARK       I    between atoms: C_3  and  N_1 
REMARK    1  A    between atoms: C_7  and  C_3 
REMARK    2  A    between atoms: O_15  and  C_11 
ROOT
ATOM      1  N   UNL d   1      32.324  17.088 -23.992  0.00  0.00    -0.195 N 
ATOM      2  N   UNL d   1      32.800  16.821 -23.363  0.00  0.00    -0.163 NA
ATOM      3  C   UNL d   1      32.123  17.863 -24.179  0.00  0.00     0.280 C 
ATOM      4  C   UNL d   1      32.075  16.467 -24.409  0.00  0.00     0.088 A 
ATOM      5  C   UNL d   1      32.381  15.772 -24.066  0.00  0.00     0.040 A 
ATOM      6  C   UNL d   1      32.827  15.999 -23.422  0.00  0.00     0.103 A 
ATOM      7  O   UNL d   1      31.646  18.007 -24.823  0.00  0.00    -0.265 OA
ATOM      8  C   UNL d   1      31.575  16.503 -25.096  0.00  0.00     0.021 C 
ATOM      9  C   UNL d   1      33.239  15.469 -22.913  0.00  0.00     0.022 C 
ENDROOT
BRANCH   3  10
ATOM     10  C   UNL d   1      32.397  18.505 -23.725  0.00  0.00     0.058 A 
ATOM     11  C   UNL d   1      32.919  19.048 -24.060  0.00  0.00     0.007 A 
ATOM     12  C   UNL d   1      33.196  19.685 -23.623  0.00  0.00     0.024 A 
ATOM     13  C   UNL d   1      32.952  19.783 -22.846  0.00  0.00     0.094 A 
ATOM     14  C   UNL d   1      32.429  19.244 -22.503  0.00  0.00     0.024 A 
ATOM     15  C   UNL d   1      32.147  18.605 -22.932  0.00  0.00     0.007 A 
BRANCH  13  16
ATOM     16  O   UNL d   1      33.241  20.435 -22.412  0.00  0.00    -0.328 OA
ATOM     17  C   UNL d   1      33.144  20.461 -21.582  0.00  0.00     0.181 C 
ENDBRANCH  13  16
ENDBRANCH   3  10
TORSDOF 2
ENDMDL
