MODEL 1
REMARK VINA RESULT:      -2.0      0.000      0.000
REMARK  1 active torsions:
REMARK  status: ('A' for Active; 'I' for Inactive)
REMARK    1  A    between atoms: C_3  and  C_1 
REMARK       I    between atoms: N_2  and  C_3 
ROOT
ATOM      1  N   UNL d   1     -41.538-122.057 -52.280  0.00  0.00    -0.303 N 
ATOM      2  C   UNL d   1     -41.427-121.783 -53.070  0.00  0.00     0.244 C 
ATOM      3  C   UNL d   1     -41.837-122.839 -52.202  0.00  0.00     0.088 A 
ATOM      4  C   UNL d   1     -41.386-121.627 -50.842  0.00  0.00     0.037 A 
ATOM      5  C   UNL d   1     -41.337-121.515 -51.665  0.00  0.00     0.051 A 
ATOM      6  C   UNL d   1     -41.707-122.480 -51.292  0.00  0.00     0.028 A 
ATOM      7  C   UNL d   1     -41.922-123.031 -50.713  0.00  0.00     0.002 A 
ATOM      8  C   UNL d   1     -42.005-123.265 -51.499  0.00  0.00     0.023 A 
ATOM      9  O   UNL d   1     -41.151-121.059 -53.183  0.00  0.00    -0.271 OA
ATOM     10  C   UNL d   1     -41.645-122.297 -50.434  0.00  0.00     0.006 A 
ATOM     11  C   UNL d   1     -41.126-120.934 -50.422  0.00  0.00     0.006 C 
ATOM     12  C   UNL d   1     -41.901-122.956 -49.875  0.00  0.00     0.000 C 
ATOM     13  C   UNL d   1     -42.221-123.814 -50.636  0.00  0.00     0.000 C 
ENDROOT
BRANCH   2  14
ATOM     14  C   UNL d   1     -41.604-122.260 -53.675  0.00  0.00     0.111 A 
ATOM     15  C   UNL d   1     -42.269-122.657 -54.924  0.00  0.00     0.025 A 
ATOM     16  C   UNL d   1     -41.795-122.725 -54.294  0.00  0.00     0.074 A 
ATOM     17  C   UNL d   1     -42.762-122.105 -55.225  0.00  0.00     0.002 C 
ATOM     18  C   UNL d   1     -42.318-123.259 -55.439  0.00  0.00     0.002 C 
ATOM     19  C   UNL d   1     -41.850-123.312 -54.805  0.00  0.00     0.012 C 
ATOM     20  C   UNL d   1     -41.310-123.277 -54.004  0.00  0.00    -0.023 A 
ATOM     21  C   UNL d   1     -42.123-122.007 -54.235  0.00  0.00     0.172 A 
ATOM     22  C   UNL d   1     -41.126-122.811 -53.396  0.00  0.00    -0.018 A 
ATOM     23  C   UNL d   1     -41.937-121.536 -53.619  0.00  0.00     0.024 A 
ATOM     24  O   UNL d   1     -42.639-121.590 -54.667  0.00  0.00    -0.291 OA
ENDBRANCH   2  14
TORSDOF 1
ENDMDL
MODEL 2
REMARK VINA RESULT:      -0.1      1.604      4.220
REMARK  1 active torsions:
REMARK  status: ('A' for Active; 'I' for Inactive)
REMARK    1  A    between atoms: C_3  and  C_1 
REMARK       I    between atoms: N_2  and  C_3 
ROOT
ATOM      1  N   UNL d   1     -41.688-122.452 -51.076  0.00  0.00    -0.303 N 
ATOM      2  C   UNL d   1     -41.869-123.152 -50.642  0.00  0.00     0.244 C 
ATOM      3  C   UNL d   1     -41.554-121.761 -50.616  0.00  0.00     0.088 A 
ATOM      4  C   UNL d   1     -41.500-121.943 -52.483  0.00  0.00     0.037 A 
ATOM      5  C   UNL d   1     -41.663-122.530 -51.916  0.00  0.00     0.051 A 
ATOM      6  C   UNL d   1     -41.449-121.511 -51.566  0.00  0.00     0.028 A 
ATOM      7  C   UNL d   1     -41.262-120.708 -51.651  0.00  0.00     0.002 A 
ATOM      8  C   UNL d   1     -41.365-120.988 -50.881  0.00  0.00     0.023 A 
ATOM      9  O   UNL d   1     -42.000-123.817 -51.035  0.00  0.00    -0.271 OA
ATOM     10  C   UNL d   1     -41.326-121.146 -52.356  0.00  0.00     0.006 A 
ATOM     11  C   UNL d   1     -41.533-122.262 -53.272  0.00  0.00     0.006 C 
ATOM     12  C   UNL d   1     -41.126-120.267 -52.353  0.00  0.00     0.000 C 
ATOM     13  C   UNL d   1     -41.128-120.017 -51.190  0.00  0.00     0.000 C 
ENDROOT
BRANCH   2  14
ATOM     14  C   UNL d   1     -41.903-123.123 -49.853  0.00  0.00     0.111 A 
ATOM     15  C   UNL d   1     -42.553-123.063 -48.536  0.00  0.00     0.025 A 
ATOM     16  C   UNL d   1     -41.958-123.093 -49.058  0.00  0.00     0.074 A 
ATOM     17  C   UNL d   1     -43.351-123.049 -48.562  0.00  0.00     0.002 C 
ATOM     18  C   UNL d   1     -42.386-123.038 -47.760  0.00  0.00     0.002 C 
ATOM     19  C   UNL d   1     -41.804-123.068 -48.293  0.00  0.00     0.012 C 
ATOM     20  C   UNL d   1     -41.169-123.106 -49.021  0.00  0.00    -0.023 A 
ATOM     21  C   UNL d   1     -42.620-123.097 -49.491  0.00  0.00     0.172 A 
ATOM     22  C   UNL d   1     -41.123-123.136 -49.807  0.00  0.00    -0.018 A 
ATOM     23  C   UNL d   1     -42.573-123.126 -50.286  0.00  0.00     0.024 A 
ATOM     24  O   UNL d   1     -43.396-123.076 -49.330  0.00  0.00    -0.291 OA
ENDBRANCH   2  14
TORSDOF 1
ENDMDL
