MODEL 1
REMARK VINA RESULT:      -8.6      0.000      0.000
REMARK  4 active torsions:
REMARK  status: ('A' for Active; 'I' for Inactive)
REMARK    1  A    between atoms: N_3  and  C_1 
REMARK    2  A    between atoms: C_6  and  C_2 
REMARK    3  A    between atoms: C_13  and  N_8 
REMARK    4  A    between atoms: C_16  and  C_13 
ROOT
ATOM      1  N   UNL d   1      52.994  32.585  53.203  0.00  0.00    -0.286 N 
ATOM      2  N   UNL d   1      53.154  30.935  53.073  0.00  0.00    -0.300 N 
ATOM      3  C   UNL d   1      52.332  32.118  53.050  0.00  0.00     0.101 A 
ATOM      4  C   UNL d   1      53.745  32.236  53.293  0.00  0.00     0.101 A 
ATOM      5  C   UNL d   1      53.822  31.419  53.228  0.00  0.00     0.100 A 
ATOM      6  C   UNL d   1      52.412  31.294  52.985  0.00  0.00     0.100 A 
ENDROOT
BRANCH   1   7
ATOM      7  C   UNL d   1      52.671  33.349  53.222  0.00  0.00     0.149 A 
ATOM      8  C   UNL d   1      52.987  33.912  53.753  0.00  0.00     0.056 A 
ATOM      9  C   UNL d   1      52.667  34.669  53.773  0.00  0.00     0.006 A 
ATOM     10  C   UNL d   1      52.969  35.242  54.295  0.00  0.00     0.000 C 
ATOM     11  C   UNL d   1      52.034  34.865  53.265  0.00  0.00     0.019 A 
ATOM     12  C   UNL d   1      51.726  34.297  52.740  0.00  0.00     0.083 A 
ATOM     13  N   UNL d   1      52.049  33.541  52.723  0.00  0.00    -0.228 NA
ATOM     14  C   UNL d   1      51.098  34.495  52.238  0.00  0.00     0.021 C 
BRANCH   8  15
ATOM     15  C   UNL d   1      53.611  33.712  54.250  0.00  0.00     0.125 C 
ATOM     16  N   UNL d   1      53.728  34.127  54.952  0.00  0.00    -0.146 N 
ENDBRANCH   8  15
ENDBRANCH   1   7
BRANCH   2  17
ATOM     17  C   UNL d   1      53.240  30.117  53.009  0.00  0.00     0.080 C 
BRANCH  17  18
ATOM     18  C   UNL d   1      53.255  29.646  53.687  0.00  0.00     0.018 A 
ATOM     19  C   UNL d   1      52.556  29.483  54.086  0.00  0.00     0.002 A 
ATOM     20  C   UNL d   1      52.571  29.013  54.763  0.00  0.00     0.000 A 
ATOM     21  C   UNL d   1      53.284  28.711  55.031  0.00  0.00     0.000 A 
ATOM     22  C   UNL d   1      53.989  28.873  54.632  0.00  0.00     0.000 A 
ATOM     23  C   UNL d   1      53.969  29.345  53.955  0.00  0.00     0.002 A 
ENDBRANCH  17  18
ENDBRANCH   2  17
TORSDOF 4
ENDMDL
MODEL 2
REMARK VINA RESULT:      -7.9      1.420      4.622
REMARK  4 active torsions:
REMARK  status: ('A' for Active; 'I' for Inactive)
REMARK    1  A    between atoms: N_3  and  C_1 
REMARK    2  A    between atoms: C_6  and  C_2 
REMARK    3  A    between atoms: C_13  and  N_8 
REMARK    4  A    between atoms: C_16  and  C_13 
ROOT
ATOM      1  N   UNL d   1      52.066  33.448  53.113  0.00  0.00    -0.286 N 
ATOM      2  N   UNL d   1      50.662  34.309  52.880  0.00  0.00    -0.300 N 
ATOM      3  C   UNL d   1      51.343  33.125  53.340  0.00  0.00     0.101 A 
ATOM      4  C   UNL d   1      52.100  34.205  52.765  0.00  0.00     0.101 A 
ATOM      5  C   UNL d   1      51.403  34.629  52.651  0.00  0.00     0.100 A 
ATOM      6  C   UNL d   1      50.641  33.555  53.224  0.00  0.00     0.100 A 
ENDROOT
BRANCH   1   7
ATOM      7  C   UNL d   1      52.601  32.850  53.324  0.00  0.00     0.149 A 
ATOM      8  C   UNL d   1      53.213  33.024  53.866  0.00  0.00     0.056 A 
ATOM      9  C   UNL d   1      53.743  32.432  54.075  0.00  0.00     0.006 A 
ATOM     10  C   UNL d   1      54.359  32.586  54.614  0.00  0.00     0.000 C 
ATOM     11  C   UNL d   1      53.664  31.669  53.745  0.00  0.00     0.019 A 
ATOM     12  C   UNL d   1      53.052  31.506  53.206  0.00  0.00     0.083 A 
ATOM     13  N   UNL d   1      52.523  32.101  52.999  0.00  0.00    -0.228 NA
ATOM     14  C   UNL d   1      52.976  30.748  52.881  0.00  0.00     0.021 C 
BRANCH   8  15
ATOM     15  C   UNL d   1      53.284  33.777  54.187  0.00  0.00     0.125 C 
ATOM     16  N   UNL d   1      53.732  33.895  54.868  0.00  0.00    -0.146 N 
ENDBRANCH   8  15
ENDBRANCH   1   7
BRANCH   2  17
ATOM     17  C   UNL d   1      49.969  34.741  52.762  0.00  0.00     0.080 C 
BRANCH  17  18
ATOM     18  C   UNL d   1      49.540  34.657  52.062  0.00  0.00     0.018 A 
ATOM     19  C   UNL d   1      49.925  34.437  51.371  0.00  0.00     0.002 A 
ATOM     20  C   UNL d   1      49.496  34.353  50.672  0.00  0.00     0.000 A 
ATOM     21  C   UNL d   1      48.688  34.490  50.673  0.00  0.00     0.000 A 
ATOM     22  C   UNL d   1      48.298  34.711  51.366  0.00  0.00     0.000 A 
ATOM     23  C   UNL d   1      48.732  34.794  52.064  0.00  0.00     0.002 A 
ENDBRANCH  17  18
ENDBRANCH   2  17
TORSDOF 4
ENDMDL
MODEL 3
REMARK VINA RESULT:      -6.9      2.395      3.955
REMARK  4 active torsions:
REMARK  status: ('A' for Active; 'I' for Inactive)
REMARK    1  A    between atoms: N_3  and  C_1 
REMARK    2  A    between atoms: C_6  and  C_2 
REMARK    3  A    between atoms: C_13  and  N_8 
REMARK    4  A    between atoms: C_16  and  C_13 
ROOT
ATOM      1  N   UNL d   1      50.491  34.377  52.656  0.00  0.00    -0.286 N 
ATOM      2  N   UNL d   1      51.712  33.297  52.988  0.00  0.00    -0.300 N 
ATOM      3  C   UNL d   1      50.387  33.804  53.239  0.00  0.00     0.101 A 
ATOM      4  C   UNL d   1      51.206  34.419  52.229  0.00  0.00     0.101 A 
ATOM      5  C   UNL d   1      51.809  33.884  52.395  0.00  0.00     0.100 A 
ATOM      6  C   UNL d   1      50.997  33.265  53.405  0.00  0.00     0.100 A 
ENDROOT
BRANCH   1   7
ATOM      7  C   UNL d   1      49.767  34.783  52.675  0.00  0.00     0.149 A 
ATOM      8  C   UNL d   1      49.269  34.757  52.005  0.00  0.00     0.056 A 
ATOM      9  C   UNL d   1      48.552  35.159  52.023  0.00  0.00     0.006 A 
ATOM     10  C   UNL d   1      48.042  35.145  51.366  0.00  0.00     0.000 C 
ATOM     11  C   UNL d   1      48.333  35.585  52.708  0.00  0.00     0.019 A 
ATOM     12  C   UNL d   1      48.837  35.604  53.369  0.00  0.00     0.083 A 
ATOM     13  N   UNL d   1      49.553  35.201  53.347  0.00  0.00    -0.228 NA
ATOM     14  C   UNL d   1      48.616  36.028  54.046  0.00  0.00     0.021 C 
BRANCH   8  15
ATOM     15  C   UNL d   1      49.491  34.336  51.335  0.00  0.00     0.125 C 
ATOM     16  N   UNL d   1      49.001  34.325  50.673  0.00  0.00    -0.146 N 
ENDBRANCH   8  15
ENDBRANCH   1   7
BRANCH   2  17
ATOM     17  C   UNL d   1      52.322  32.765  53.147  0.00  0.00     0.080 C 
BRANCH  17  18
ATOM     18  C   UNL d   1      52.977  33.002  53.590  0.00  0.00     0.018 A 
ATOM     19  C   UNL d   1      52.868  33.337  54.331  0.00  0.00     0.002 A 
ATOM     20  C   UNL d   1      53.523  33.574  54.773  0.00  0.00     0.000 A 
ATOM     21  C   UNL d   1      54.277  33.473  54.467  0.00  0.00     0.000 A 
ATOM     22  C   UNL d   1      54.389  33.136  53.722  0.00  0.00     0.000 A 
ATOM     23  C   UNL d   1      53.730  32.900  53.283  0.00  0.00     0.002 A 
ENDBRANCH  17  18
ENDBRANCH   2  17
TORSDOF 4
ENDMDL
MODEL 4
REMARK VINA RESULT:      -6.7      1.296      4.635
REMARK  4 active torsions:
REMARK  status: ('A' for Active; 'I' for Inactive)
REMARK    1  A    between atoms: N_3  and  C_1 
REMARK    2  A    between atoms: C_6  and  C_2 
REMARK    3  A    between atoms: C_13  and  N_8 
REMARK    4  A    between atoms: C_16  and  C_13 
ROOT
ATOM      1  N   UNL d   1      53.858  31.486  53.993  0.00  0.00    -0.286 N 
ATOM      2  N   UNL d   1      54.224  33.018  54.526  0.00  0.00    -0.300 N 
ATOM      3  C   UNL d   1      53.568  31.750  54.717  0.00  0.00     0.101 A 
ATOM      4  C   UNL d   1      54.335  31.982  53.523  0.00  0.00     0.101 A 
ATOM      5  C   UNL d   1      54.515  32.740  53.789  0.00  0.00     0.100 A 
ATOM      6  C   UNL d   1      53.751  32.515  54.984  0.00  0.00     0.100 A 
ENDROOT
BRANCH   1   7
ATOM      7  C   UNL d   1      53.549  30.717  53.948  0.00  0.00     0.149 A 
ATOM      8  C   UNL d   1      53.060  30.511  53.302  0.00  0.00     0.056 A 
ATOM      9  C   UNL d   1      52.755  29.749  53.257  0.00  0.00     0.006 A 
ATOM     10  C   UNL d   1      52.266  29.526  52.622  0.00  0.00     0.000 C 
ATOM     11  C   UNL d   1      52.936  29.194  53.855  0.00  0.00     0.019 A 
ATOM     12  C   UNL d   1      53.424  29.409  54.493  0.00  0.00     0.083 A 
ATOM     13  N   UNL d   1      53.728  30.172  54.534  0.00  0.00    -0.228 NA
ATOM     14  C   UNL d   1      53.602  28.856  55.084  0.00  0.00     0.021 C 
BRANCH   8  15
ATOM     15  C   UNL d   1      52.886  31.063  52.718  0.00  0.00     0.125 C 
ATOM     16  N   UNL d   1      52.106  31.178  52.479  0.00  0.00    -0.146 N 
ENDBRANCH   8  15
ENDBRANCH   1   7
BRANCH   2  17
ATOM     17  C   UNL d   1      54.410  33.779  54.785  0.00  0.00     0.080 C 
BRANCH  17  18
ATOM     18  C   UNL d   1      53.882  34.401  54.661  0.00  0.00     0.018 A 
ATOM     19  C   UNL d   1      53.804  34.727  53.912  0.00  0.00     0.002 A 
ATOM     20  C   UNL d   1      53.276  35.349  53.789  0.00  0.00     0.000 A 
ATOM     21  C   UNL d   1      52.834  35.636  54.417  0.00  0.00     0.000 A 
ATOM     22  C   UNL d   1      52.911  35.309  55.172  0.00  0.00     0.000 A 
ATOM     23  C   UNL d   1      53.440  34.687  55.290  0.00  0.00     0.002 A 
ENDBRANCH  17  18
ENDBRANCH   2  17
TORSDOF 4
ENDMDL
