MODEL 1
REMARK VINA RESULT:      28.8      0.000      0.000
REMARK  5 active torsions:
REMARK  status: ('A' for Active; 'I' for Inactive)
REMARK    1  A    between atoms: C_11  and  N_3 
REMARK    2  A    between atoms: C_10  and  C_4 
REMARK    3  A    between atoms: C_15  and  C_11 
REMARK    4  A    between atoms: N_13  and  C_16 
REMARK    5  A    between atoms: C_16  and  C_15 
ROOT
ATOM      1  C   UNL d   1      46.585 -18.298  42.601  0.00  0.00     0.137 A 
ATOM      2  N   UNL d   1      46.557 -19.132  42.556  0.00  0.00    -0.259 N 
ATOM      3  N   UNL d   1      46.576 -18.100  43.402  0.00  0.00    -0.287 N 
ATOM      4  C   UNL d   1      46.614 -17.849  41.915  0.00  0.00     0.054 A 
ATOM      5  C   UNL d   1      46.559 -19.503  41.814  0.00  0.00     0.266 A 
ATOM      6  C   UNL d   1      46.531 -19.436  43.322  0.00  0.00     0.084 A 
ATOM      7  C   UNL d   1      46.543 -18.788  43.853  0.00  0.00     0.082 A 
ATOM      8  C   UNL d   1      46.616 -18.217  41.176  0.00  0.00     0.009 A 
ATOM      9  C   UNL d   1      46.589 -19.046  41.118  0.00  0.00     0.061 A 
ATOM     10  O   UNL d   1      46.531 -20.330  41.762  0.00  0.00    -0.267 OA
ATOM     11  C   UNL d   1      46.498 -20.202  43.618  0.00  0.00     0.019 A 
ATOM     12  C   UNL d   1      46.646 -17.763  40.482  0.00  0.00     0.000 C 
ATOM     13  C   UNL d   1      46.522 -18.934  44.658  0.00  0.00     0.019 A 
ATOM     14  C   UNL d   1      46.477 -20.330  44.427  0.00  0.00     0.002 A 
ATOM     15  C   UNL d   1      46.489 -19.689  44.952  0.00  0.00     0.002 A 
ENDROOT
BRANCH   3  16
ATOM     16  C   UNL d   1      46.587 -17.468  43.930  0.00  0.00     0.125 C 
BRANCH  16  17
ATOM     17  C   UNL d   1      45.879 -17.167  44.228  0.00  0.00     0.231 C 
ATOM     18  O   UNL d   1      45.166 -17.326  43.845  0.00  0.00    -0.283 OA
BRANCH  17  19
ATOM     19  C   UNL d   1      45.883 -16.705  44.910  0.00  0.00     0.124 C 
BRANCH  19  20
ATOM     20  N   UNL d   1      45.714 -15.901  44.865  0.00  0.00    -0.300 N 
ATOM     21  C   UNL d   1      46.331 -15.359  44.808  0.00  0.00     0.080 A 
ATOM     22  C   UNL d   1      46.169 -14.550  44.762  0.00  0.00     0.019 A 
ATOM     23  C   UNL d   1      45.386 -14.286  44.775  0.00  0.00     0.003 A 
ATOM     24  C   UNL d   1      44.769 -14.828  44.833  0.00  0.00     0.019 A 
ATOM     25  C   UNL d   1      45.217 -13.483  44.730  0.00  0.00     0.000 C 
ATOM     26  C   UNL d   1      44.930 -15.638  44.878  0.00  0.00     0.080 A 
ENDBRANCH  19  20
ENDBRANCH  17  19
ENDBRANCH  16  17
ENDBRANCH   3  16
BRANCH   4  27
ATOM     27  C   UNL d   1      46.642 -17.031  41.959  0.00  0.00     0.125 C 
ATOM     28  N   UNL d   1      46.613 -16.566  41.281  0.00  0.00    -0.146 N 
ENDBRANCH   4  27
TORSDOF 5
ENDMDL
