MODEL 1
REMARK VINA RESULT:      -7.9      0.000      0.000
REMARK  6 active torsions:
REMARK  status: ('A' for Active; 'I' for Inactive)
REMARK    1  A    between atoms: N_10  and  C_3 
REMARK    2  A    between atoms: C_9  and  C_4 
REMARK    3  A    between atoms: C_20  and  N_13 
REMARK    4  A    between atoms: O_24  and  C_14 
REMARK    5  A    between atoms: O_26  and  C_16 
REMARK    6  A    between atoms: C_25  and  C_20 
ROOT
ATOM      1  N   UNL d   1      49.186  35.201  52.897  0.00  0.00    -0.196 N 
ATOM      2  C   UNL d   1      48.448  35.348  52.559  0.00  0.00     0.167 A 
ATOM      3  C   UNL d   1      49.721  34.740  52.496  0.00  0.00     0.152 A 
ATOM      4  C   UNL d   1      47.902  35.805  52.943  0.00  0.00     0.055 A 
ATOM      5  N   UNL d   1      48.829  35.976  54.013  0.00  0.00    -0.163 NA
ATOM      6  C   UNL d   1      48.091  36.123  53.675  0.00  0.00     0.104 A 
ATOM      7  N   UNL d   1      48.259  35.029  51.827  0.00  0.00    -0.227 NA
ATOM      8  C   UNL d   1      49.546  34.419  51.770  0.00  0.00     0.057 A 
ATOM      9  C   UNL d   1      48.808  34.565  51.432  0.00  0.00     0.086 A 
ATOM     10  C   UNL d   1      47.556  36.580  54.068  0.00  0.00     0.023 C 
ATOM     11  C   UNL d   1      48.615  34.235  50.675  0.00  0.00     0.021 C 
ENDROOT
BRANCH   3  12
ATOM     12  N   UNL d   1      50.478  34.590  52.842  0.00  0.00    -0.286 N 
ATOM     13  C   UNL d   1      50.964  34.443  52.167  0.00  0.00     0.101 A 
ATOM     14  C   UNL d   1      51.783  34.265  52.274  0.00  0.00     0.100 A 
ATOM     15  N   UNL d   1      52.120  34.233  53.046  0.00  0.00    -0.300 N 
ATOM     16  C   UNL d   1      51.622  34.383  53.726  0.00  0.00     0.100 A 
ATOM     17  C   UNL d   1      50.809  34.560  53.625  0.00  0.00     0.101 A 
BRANCH  15  18
ATOM     18  C   UNL d   1      52.946  34.054  53.144  0.00  0.00     0.080 C 
BRANCH  18  19
ATOM     19  C   UNL d   1      53.175  33.306  53.464  0.00  0.00     0.018 A 
ATOM     20  C   UNL d   1      53.442  33.250  54.256  0.00  0.00     0.002 A 
ATOM     21  C   UNL d   1      53.671  32.499  54.574  0.00  0.00     0.000 A 
ATOM     22  C   UNL d   1      53.628  31.814  54.093  0.00  0.00     0.000 A 
ATOM     23  C   UNL d   1      53.359  31.875  53.295  0.00  0.00     0.000 A 
ATOM     24  C   UNL d   1      53.133  32.621  52.983  0.00  0.00     0.002 A 
ENDBRANCH  18  19
ENDBRANCH  15  18
ENDBRANCH   3  12
BRANCH   4  25
ATOM     25  C   UNL d   1      47.175  35.949  52.610  0.00  0.00     0.007 A 
ATOM     26  C   UNL d   1      46.548  35.465  52.796  0.00  0.00     0.026 A 
ATOM     27  C   UNL d   1      45.809  35.611  52.459  0.00  0.00     0.116 A 
ATOM     28  C   UNL d   1      45.714  36.238  51.942  0.00  0.00     0.116 A 
ATOM     29  C   UNL d   1      46.348  36.710  51.767  0.00  0.00     0.026 A 
ATOM     30  C   UNL d   1      47.082  36.564  52.103  0.00  0.00     0.002 A 
BRANCH  27  31
ATOM     31  O   UNL d   1      45.159  35.124  52.640  0.00  0.00    -0.326 OA
ATOM     32  C   UNL d   1      44.910  35.033  53.454  0.00  0.00     0.181 C 
ENDBRANCH  27  31
BRANCH  28  33
ATOM     33  O   UNL d   1      44.953  36.389  51.593  0.00  0.00    -0.326 OA
ATOM     34  C   UNL d   1      44.911  36.707  50.804  0.00  0.00     0.181 C 
ENDBRANCH  28  33
ENDBRANCH   4  25
TORSDOF 6
ENDMDL
MODEL 2
REMARK VINA RESULT:      -6.3      2.599      6.498
REMARK  6 active torsions:
REMARK  status: ('A' for Active; 'I' for Inactive)
REMARK    1  A    between atoms: N_10  and  C_3 
REMARK    2  A    between atoms: C_9  and  C_4 
REMARK    3  A    between atoms: C_20  and  N_13 
REMARK    4  A    between atoms: O_24  and  C_14 
REMARK    5  A    between atoms: O_26  and  C_16 
REMARK    6  A    between atoms: C_25  and  C_20 
ROOT
ATOM      1  N   UNL d   1      50.976  34.577  53.345  0.00  0.00    -0.196 N 
ATOM      2  C   UNL d   1      51.590  34.029  53.398  0.00  0.00     0.167 A 
ATOM      3  C   UNL d   1      50.228  34.318  53.163  0.00  0.00     0.152 A 
ATOM      4  C   UNL d   1      52.341  34.268  53.578  0.00  0.00     0.055 A 
ATOM      5  N   UNL d   1      51.873  35.612  53.657  0.00  0.00    -0.163 NA
ATOM      6  C   UNL d   1      52.487  35.064  53.709  0.00  0.00     0.104 A 
ATOM      7  N   UNL d   1      51.444  33.233  53.267  0.00  0.00    -0.227 NA
ATOM      8  C   UNL d   1      50.070  33.532  53.031  0.00  0.00     0.057 A 
ATOM      9  C   UNL d   1      50.684  32.984  53.084  0.00  0.00     0.086 A 
ATOM     10  C   UNL d   1      53.231  35.315  53.890  0.00  0.00     0.023 C 
ATOM     11  C   UNL d   1      50.531  32.160  52.948  0.00  0.00     0.021 C 
ENDROOT
BRANCH   3  12
ATOM     12  N   UNL d   1      49.598  34.880  53.109  0.00  0.00    -0.286 N 
ATOM     13  C   UNL d   1      49.381  34.837  52.293  0.00  0.00     0.101 A 
ATOM     14  C   UNL d   1      48.756  35.325  52.003  0.00  0.00     0.100 A 
ATOM     15  N   UNL d   1      48.347  35.853  52.516  0.00  0.00    -0.300 N 
ATOM     16  C   UNL d   1      48.570  35.892  53.342  0.00  0.00     0.100 A 
ATOM     17  C   UNL d   1      49.190  35.410  53.635  0.00  0.00     0.101 A 
BRANCH  15  18
ATOM     18  C   UNL d   1      47.717  36.341  52.214  0.00  0.00     0.080 C 
BRANCH  18  19
ATOM     19  C   UNL d   1      46.923  36.052  52.227  0.00  0.00     0.018 A 
ATOM     20  C   UNL d   1      46.455  36.141  52.916  0.00  0.00     0.002 A 
ATOM     21  C   UNL d   1      45.658  35.851  52.927  0.00  0.00     0.000 A 
ATOM     22  C   UNL d   1      45.344  35.476  52.246  0.00  0.00     0.000 A 
ATOM     23  C   UNL d   1      45.820  35.389  51.554  0.00  0.00     0.000 A 
ATOM     24  C   UNL d   1      46.609  35.677  51.547  0.00  0.00     0.002 A 
ENDBRANCH  18  19
ENDBRANCH  15  18
ENDBRANCH   3  12
BRANCH   4  25
ATOM     25  C   UNL d   1      52.946  33.728  53.630  0.00  0.00     0.007 A 
ATOM     26  C   UNL d   1      53.162  33.439  54.359  0.00  0.00     0.026 A 
ATOM     27  C   UNL d   1      53.777  32.890  54.412  0.00  0.00     0.116 A 
ATOM     28  C   UNL d   1      54.162  32.643  53.734  0.00  0.00     0.116 A 
ATOM     29  C   UNL d   1      53.935  32.940  53.017  0.00  0.00     0.026 A 
ATOM     30  C   UNL d   1      53.323  33.486  52.964  0.00  0.00     0.002 A 
BRANCH  27  31
ATOM     31  O   UNL d   1      54.008  32.587  55.151  0.00  0.00    -0.326 OA
ATOM     32  C   UNL d   1      54.362  33.105  55.733  0.00  0.00     0.181 C 
ENDBRANCH  27  31
BRANCH  28  33
ATOM     33  O   UNL d   1      54.795  32.078  53.788  0.00  0.00    -0.326 OA
ATOM     34  C   UNL d   1      54.796  31.402  53.269  0.00  0.00     0.181 C 
ENDBRANCH  28  33
ENDBRANCH   4  25
TORSDOF 6
ENDMDL
MODEL 3
REMARK VINA RESULT:      -5.7      0.845      1.641
REMARK  6 active torsions:
REMARK  status: ('A' for Active; 'I' for Inactive)
REMARK    1  A    between atoms: N_10  and  C_3 
REMARK    2  A    between atoms: C_9  and  C_4 
REMARK    3  A    between atoms: C_20  and  N_13 
REMARK    4  A    between atoms: O_24  and  C_14 
REMARK    5  A    between atoms: O_26  and  C_16 
REMARK    6  A    between atoms: C_25  and  C_20 
ROOT
ATOM      1  N   UNL d   1      49.313  34.760  52.316  0.00  0.00    -0.196 N 
ATOM      2  C   UNL d   1      48.601  35.156  52.449  0.00  0.00     0.167 A 
ATOM      3  C   UNL d   1      49.902  34.809  52.872  0.00  0.00     0.152 A 
ATOM      4  C   UNL d   1      48.002  35.120  51.906  0.00  0.00     0.055 A 
ATOM      5  N   UNL d   1      48.821  34.289  51.087  0.00  0.00    -0.163 NA
ATOM      6  C   UNL d   1      48.110  34.684  51.220  0.00  0.00     0.104 A 
ATOM      7  N   UNL d   1      48.494  35.592  53.135  0.00  0.00    -0.227 NA
ATOM      8  C   UNL d   1      49.809  35.237  53.556  0.00  0.00     0.057 A 
ATOM      9  C   UNL d   1      49.097  35.632  53.689  0.00  0.00     0.086 A 
ATOM     10  C   UNL d   1      47.521  34.641  50.672  0.00  0.00     0.023 C 
ATOM     11  C   UNL d   1      48.988  36.083  54.400  0.00  0.00     0.021 C 
ENDROOT
BRANCH   3  12
ATOM     12  N   UNL d   1      50.632  34.403  52.736  0.00  0.00    -0.286 N 
ATOM     13  C   UNL d   1      50.626  33.805  53.335  0.00  0.00     0.101 A 
ATOM     14  C   UNL d   1      51.274  33.267  53.392  0.00  0.00     0.100 A 
ATOM     15  N   UNL d   1      51.925  33.317  52.860  0.00  0.00    -0.300 N 
ATOM     16  C   UNL d   1      51.926  33.924  52.256  0.00  0.00     0.100 A 
ATOM     17  C   UNL d   1      51.286  34.461  52.195  0.00  0.00     0.101 A 
BRANCH  15  18
ATOM     18  C   UNL d   1      52.574  32.769  52.925  0.00  0.00     0.080 C 
BRANCH  18  19
ATOM     19  C   UNL d   1      53.189  32.917  53.485  0.00  0.00     0.018 A 
ATOM     20  C   UNL d   1      53.019  32.919  54.305  0.00  0.00     0.002 A 
ATOM     21  C   UNL d   1      53.638  33.067  54.865  0.00  0.00     0.000 A 
ATOM     22  C   UNL d   1      54.418  33.211  54.594  0.00  0.00     0.000 A 
ATOM     23  C   UNL d   1      54.584  33.207  53.765  0.00  0.00     0.000 A 
ATOM     24  C   UNL d   1      53.969  33.060  53.214  0.00  0.00     0.002 A 
ENDBRANCH  18  19
ENDBRANCH  15  18
ENDBRANCH   3  12
BRANCH   4  25
ATOM     25  C   UNL d   1      47.302  35.510  52.037  0.00  0.00     0.007 A 
ATOM     26  C   UNL d   1      46.751  35.185  52.540  0.00  0.00     0.026 A 
ATOM     27  C   UNL d   1      46.040  35.581  52.673  0.00  0.00     0.116 A 
ATOM     28  C   UNL d   1      45.893  36.293  52.299  0.00  0.00     0.116 A 
ATOM     29  C   UNL d   1      46.451  36.603  51.802  0.00  0.00     0.026 A 
ATOM     30  C   UNL d   1      47.159  36.209  51.670  0.00  0.00     0.002 A 
BRANCH  27  31
ATOM     31  O   UNL d   1      45.468  35.259  53.186  0.00  0.00    -0.326 OA
ATOM     32  C   UNL d   1      45.577  35.314  54.033  0.00  0.00     0.181 C 
ENDBRANCH  27  31
BRANCH  28  33
ATOM     33  O   UNL d   1      45.159  36.702  52.436  0.00  0.00    -0.326 OA
ATOM     34  C   UNL d   1      44.566  36.709  51.825  0.00  0.00     0.181 C 
ENDBRANCH  28  33
ENDBRANCH   4  25
TORSDOF 6
ENDMDL
