MODEL 1
REMARK VINA RESULT:      -2.8      0.000      0.000
REMARK  5 active torsions:
REMARK  status: ('A' for Active; 'I' for Inactive)
REMARK    1  A    between atoms: C_2  and  S_1 
REMARK    2  A    between atoms: N_3  and  S_1 
REMARK    3  A    between atoms: C_5  and  C_6 
REMARK       I    between atoms: N_10  and  C_5 
REMARK    4  A    between atoms: C_22  and  N_10 
REMARK    5  A    between atoms: C_21  and  C_22 
ROOT
ATOM      1  C   UNL d   1     -42.388-122.831 -49.783  0.00  0.00     0.104 A 
ATOM      2  C   UNL d   1     -41.933-123.109 -50.413  0.00  0.00     0.018 A 
ATOM      3  C   UNL d   1     -42.097-122.858 -51.182  0.00  0.00     0.059 A 
ATOM      4  C   UNL d   1     -43.008-122.303 -49.924  0.00  0.00     0.012 A 
ATOM      5  C   UNL d   1     -42.715-122.332 -51.322  0.00  0.00     0.005 A 
ATOM      6  C   UNL d   1     -43.175-122.051 -50.686  0.00  0.00     0.001 A 
ATOM      7  C   UNL d   1     -43.468-122.020 -49.300  0.00  0.00     0.001 C 
ENDROOT
BRANCH   3   8
ATOM      8  C   UNL d   1     -41.640-123.138 -51.815  0.00  0.00     0.279 C 
ATOM      9  N   UNL d   1     -41.697-122.782 -52.555  0.00  0.00    -0.206 NA
ATOM     10  O   UNL d   1     -41.123-123.778 -51.700  0.00  0.00    -0.265 OA
BRANCH   9  11
ATOM     11  C   UNL d   1     -41.234-123.068 -53.186  0.00  0.00     0.102 C 
BRANCH  11  12
ATOM     12  C   UNL d   1     -41.443-122.868 -53.971  0.00  0.00     0.021 A 
ATOM     13  C   UNL d   1     -41.656-122.085 -54.157  0.00  0.00     0.028 A 
ATOM     14  C   UNL d   1     -41.861-121.885 -54.929  0.00  0.00     0.119 A 
ATOM     15  O   UNL d   1     -42.091-121.176 -55.276  0.00  0.00    -0.300 OA
ATOM     16  C   UNL d   1     -41.855-122.463 -55.517  0.00  0.00     0.119 A 
ATOM     17  C   UNL d   1     -42.227-121.315 -56.077  0.00  0.00     0.304 A 
ATOM     18  O   UNL d   1     -42.083-122.106 -56.232  0.00  0.00    -0.300 OA
ATOM     19  C   UNL d   1     -41.642-123.246 -55.330  0.00  0.00     0.026 A 
ATOM     20  C   UNL d   1     -41.436-123.444 -54.558  0.00  0.00     0.004 A 
ENDBRANCH  11  12
ENDBRANCH   9  11
ENDBRANCH   3   8
BRANCH   1  21
ATOM     21  S   UNL d   1     -42.228-123.080 -49.000  0.00  0.00     0.271 S 
ATOM     22  O   UNL d   1     -41.543-122.599 -48.997  0.00  0.00    -0.200 OA
ATOM     23  O   UNL d   1     -42.907-123.553 -49.012  0.00  0.00    -0.200 OA
BRANCH  21  24
ATOM     24  N   UNL d   1     -42.067-123.326 -48.223  0.00  0.00    -0.229 N 
ATOM     25  C   UNL d   1     -41.283-123.323 -47.939  0.00  0.00     0.092 A 
ATOM     26  C   UNL d   1     -41.123-123.567 -47.167  0.00  0.00     0.020 A 
ATOM     27  C   UNL d   1     -41.738-123.815 -46.676  0.00  0.00     0.003 A 
ATOM     28  C   UNL d   1     -42.516-123.817 -46.959  0.00  0.00     0.020 A 
ATOM     29  C   UNL d   1     -42.679-123.574 -47.728  0.00  0.00     0.092 A 
ENDBRANCH  21  24
ENDBRANCH   1  21
TORSDOF 5
ENDMDL
