MODEL 1
REMARK VINA RESULT:      -7.1      0.000      0.000
REMARK  5 active torsions:
REMARK  status: ('A' for Active; 'I' for Inactive)
REMARK    1  A    between atoms: N_6  and  C_1 
REMARK    2  A    between atoms: S_10  and  C_4 
REMARK       I    between atoms: C_7  and  N_6 
REMARK       I    between atoms: N_8  and  C_7 
REMARK    3  A    between atoms: C_11  and  N_8 
REMARK    4  A    between atoms: C_12  and  S_10 
REMARK    5  A    between atoms: C_15  and  C_12 
ROOT
ATOM      1  N   UNL d   1      52.496  32.652  52.972  0.00  0.00    -0.321 NA
ATOM      2  C   UNL d   1      52.262  33.309  52.839  0.00  0.00     0.422 C 
ATOM      3  N   UNL d   1      51.995  34.131  52.678  0.00  0.00    -0.180 NA
ATOM      4  O   UNL d   1      51.604  33.077  52.753  0.00  0.00    -0.228 OA
ENDROOT
BRANCH   1   5
ATOM      5  C   UNL d   1      52.942  31.920  53.153  0.00  0.00     0.271 A 
ATOM      6  S   UNL d   1      52.799  31.228  53.211  0.00  0.00    -0.006 SA
ATOM      7  C   UNL d   1      53.329  30.777  53.374  0.00  0.00     0.166 A 
ATOM      8  N   UNL d   1      53.990  31.020  53.476  0.00  0.00    -0.132 NA
ATOM      9  N   UNL d   1      53.602  32.164  53.255  0.00  0.00    -0.107 NA
BRANCH   7  10
ATOM     10  S   UNL d   1      53.319  30.055  53.462  0.00  0.00    -0.059 SA
BRANCH  10  11
ATOM     11  C   UNL d   1      53.309  29.732  54.222  0.00  0.00     0.037 C 
BRANCH  11  12
ATOM     12  C   UNL d   1      53.308  28.913  54.320  0.00  0.00     0.007 C 
ATOM     13  C   UNL d   1      53.385  28.582  55.071  0.00  0.00     0.001 C 
ENDBRANCH  11  12
ENDBRANCH  10  11
ENDBRANCH   7  10
ENDBRANCH   1   5
BRANCH   3  14
ATOM     14  C   UNL d   1      51.191  34.277  52.513  0.00  0.00     0.087 A 
ATOM     15  C   UNL d   1      50.918  34.221  51.745  0.00  0.00     0.019 A 
ATOM     16  C   UNL d   1      50.112  34.367  51.580  0.00  0.00     0.002 A 
ATOM     17  C   UNL d   1      49.595  34.567  52.187  0.00  0.00     0.000 A 
ATOM     18  C   UNL d   1      49.875  34.624  52.970  0.00  0.00     0.002 A 
ATOM     19  C   UNL d   1      50.674  34.478  53.130  0.00  0.00     0.019 A 
ENDBRANCH   3  14
TORSDOF 5
ENDMDL
MODEL 2
REMARK VINA RESULT:      -7.0      2.270      4.952
REMARK  5 active torsions:
REMARK  status: ('A' for Active; 'I' for Inactive)
REMARK    1  A    between atoms: N_6  and  C_1 
REMARK    2  A    between atoms: S_10  and  C_4 
REMARK       I    between atoms: C_7  and  N_6 
REMARK       I    between atoms: N_8  and  C_7 
REMARK    3  A    between atoms: C_11  and  N_8 
REMARK    4  A    between atoms: C_12  and  S_10 
REMARK    5  A    between atoms: C_15  and  C_12 
ROOT
ATOM      1  N   UNL d   1      52.224  33.461  53.137  0.00  0.00    -0.321 NA
ATOM      2  C   UNL d   1      52.761  33.068  53.383  0.00  0.00     0.422 C 
ATOM      3  N   UNL d   1      53.418  32.563  53.675  0.00  0.00    -0.180 NA
ATOM      4  O   UNL d   1      53.017  33.613  53.746  0.00  0.00    -0.228 OA
ENDROOT
BRANCH   1   5
ATOM      5  C   UNL d   1      51.513  33.796  52.749  0.00  0.00     0.271 A 
ATOM      6  S   UNL d   1      50.885  34.054  52.955  0.00  0.00    -0.006 SA
ATOM      7  C   UNL d   1      50.427  34.287  52.458  0.00  0.00     0.166 A 
ATOM      8  N   UNL d   1      50.600  34.261  51.769  0.00  0.00    -0.132 NA
ATOM      9  N   UNL d   1      51.686  33.770  52.060  0.00  0.00    -0.107 NA
BRANCH   7  10
ATOM     10  S   UNL d   1      49.761  34.571  52.532  0.00  0.00    -0.059 SA
BRANCH  10  11
ATOM     11  C   UNL d   1      49.276  34.663  51.870  0.00  0.00     0.037 C 
BRANCH  11  12
ATOM     12  C   UNL d   1      48.535  35.017  51.951  0.00  0.00     0.007 C 
ATOM     13  C   UNL d   1      48.029  35.076  51.303  0.00  0.00     0.001 C 
ENDBRANCH  11  12
ENDBRANCH  10  11
ENDBRANCH   7  10
ENDBRANCH   1   5
BRANCH   3  14
ATOM     14  C   UNL d   1      53.991  32.888  54.187  0.00  0.00     0.087 A 
ATOM     15  C   UNL d   1      54.665  33.229  53.876  0.00  0.00     0.019 A 
ATOM     16  C   UNL d   1      55.239  33.555  54.389  0.00  0.00     0.002 A 
ATOM     17  C   UNL d   1      55.126  33.534  55.202  0.00  0.00     0.000 A 
ATOM     18  C   UNL d   1      54.438  33.185  55.518  0.00  0.00     0.002 A 
ATOM     19  C   UNL d   1      53.872  32.863  55.007  0.00  0.00     0.019 A 
ENDBRANCH   3  14
TORSDOF 5
ENDMDL
MODEL 3
REMARK VINA RESULT:      -6.8      1.517      1.917
REMARK  5 active torsions:
REMARK  status: ('A' for Active; 'I' for Inactive)
REMARK    1  A    between atoms: N_6  and  C_1 
REMARK    2  A    between atoms: S_10  and  C_4 
REMARK       I    between atoms: C_7  and  N_6 
REMARK       I    between atoms: N_8  and  C_7 
REMARK    3  A    between atoms: C_11  and  N_8 
REMARK    4  A    between atoms: C_12  and  S_10 
REMARK    5  A    between atoms: C_15  and  C_12 
ROOT
ATOM      1  N   UNL d   1      52.721  32.452  53.098  0.00  0.00    -0.321 NA
ATOM      2  C   UNL d   1      52.565  33.138  52.996  0.00  0.00     0.422 C 
ATOM      3  N   UNL d   1      52.360  33.980  52.850  0.00  0.00    -0.180 NA
ATOM      4  O   UNL d   1      52.886  33.318  53.595  0.00  0.00    -0.228 OA
ENDROOT
BRANCH   1   5
ATOM      5  C   UNL d   1      52.827  31.583  53.069  0.00  0.00     0.271 A 
ATOM      6  S   UNL d   1      53.200  31.096  53.425  0.00  0.00    -0.006 SA
ATOM      7  C   UNL d   1      53.143  30.409  53.234  0.00  0.00     0.166 A 
ATOM      8  N   UNL d   1      52.718  30.219  52.697  0.00  0.00    -0.132 NA
ATOM      9  N   UNL d   1      52.402  31.394  52.531  0.00  0.00    -0.107 NA
BRANCH   7  10
ATOM     10  S   UNL d   1      53.465  29.819  53.511  0.00  0.00    -0.059 SA
BRANCH  10  11
ATOM     11  C   UNL d   1      53.163  29.465  54.193  0.00  0.00     0.037 C 
BRANCH  11  12
ATOM     12  C   UNL d   1      53.572  28.844  54.549  0.00  0.00     0.007 C 
ATOM     13  C   UNL d   1      53.336  28.555  55.283  0.00  0.00     0.001 C 
ENDBRANCH  11  12
ENDBRANCH  10  11
ENDBRANCH   7  10
ENDBRANCH   1   5
BRANCH   3  14
ATOM     14  C   UNL d   1      52.596  34.562  53.399  0.00  0.00     0.087 A 
ATOM     15  C   UNL d   1      53.331  34.912  53.328  0.00  0.00     0.019 A 
ATOM     16  C   UNL d   1      53.567  35.495  53.878  0.00  0.00     0.002 A 
ATOM     17  C   UNL d   1      53.064  35.715  54.489  0.00  0.00     0.000 A 
ATOM     18  C   UNL d   1      52.315  35.356  54.561  0.00  0.00     0.002 A 
ATOM     19  C   UNL d   1      52.084  34.779  54.013  0.00  0.00     0.019 A 
ENDBRANCH   3  14
TORSDOF 5
ENDMDL
MODEL 4
REMARK VINA RESULT:      -6.6      1.468      4.910
REMARK  5 active torsions:
REMARK  status: ('A' for Active; 'I' for Inactive)
REMARK    1  A    between atoms: N_6  and  C_1 
REMARK    2  A    between atoms: S_10  and  C_4 
REMARK       I    between atoms: C_7  and  N_6 
REMARK       I    between atoms: N_8  and  C_7 
REMARK    3  A    between atoms: C_11  and  N_8 
REMARK    4  A    between atoms: C_12  and  S_10 
REMARK    5  A    between atoms: C_15  and  C_12 
ROOT
ATOM      1  N   UNL d   1      52.108  32.858  52.932  0.00  0.00    -0.321 NA
ATOM      2  C   UNL d   1      52.639  32.389  52.875  0.00  0.00     0.422 C 
ATOM      3  N   UNL d   1      53.308  31.826  52.791  0.00  0.00    -0.180 NA
ATOM      4  O   UNL d   1      52.293  31.922  53.271  0.00  0.00    -0.228 OA
ENDROOT
BRANCH   1   5
ATOM      5  C   UNL d   1      51.558  33.538  52.902  0.00  0.00     0.271 A 
ATOM      6  S   UNL d   1      50.862  33.636  52.801  0.00  0.00    -0.006 SA
ATOM      7  C   UNL d   1      50.602  34.302  52.814  0.00  0.00     0.166 A 
ATOM      8  N   UNL d   1      51.034  34.856  52.926  0.00  0.00    -0.132 NA
ATOM      9  N   UNL d   1      51.990  34.092  53.013  0.00  0.00    -0.107 NA
BRANCH   7  10
ATOM     10  S   UNL d   1      49.920  34.539  52.727  0.00  0.00    -0.059 SA
BRANCH  10  11
ATOM     11  C   UNL d   1      49.594  34.593  51.970  0.00  0.00     0.037 C 
BRANCH  11  12
ATOM     12  C   UNL d   1      48.815  34.846  51.875  0.00  0.00     0.007 C 
ATOM     13  C   UNL d   1      48.457  34.824  51.134  0.00  0.00     0.001 C 
ENDBRANCH  11  12
ENDBRANCH  10  11
ENDBRANCH   7  10
ENDBRANCH   1   5
BRANCH   3  14
ATOM     14  C   UNL d   1      53.265  31.079  53.160  0.00  0.00     0.087 A 
ATOM     15  C   UNL d   1      53.588  30.975  53.903  0.00  0.00     0.019 A 
ATOM     16  C   UNL d   1      53.545  30.227  54.273  0.00  0.00     0.002 A 
ATOM     17  C   UNL d   1      53.180  29.597  53.891  0.00  0.00     0.000 A 
ATOM     18  C   UNL d   1      52.851  29.705  53.134  0.00  0.00     0.002 A 
ATOM     19  C   UNL d   1      52.895  30.448  52.770  0.00  0.00     0.019 A 
ENDBRANCH   3  14
TORSDOF 5
ENDMDL
MODEL 5
REMARK VINA RESULT:      -6.2      1.776      4.745
REMARK  5 active torsions:
REMARK  status: ('A' for Active; 'I' for Inactive)
REMARK    1  A    between atoms: N_6  and  C_1 
REMARK    2  A    between atoms: S_10  and  C_4 
REMARK       I    between atoms: C_7  and  N_6 
REMARK       I    between atoms: N_8  and  C_7 
REMARK    3  A    between atoms: C_11  and  N_8 
REMARK    4  A    between atoms: C_12  and  S_10 
REMARK    5  A    between atoms: C_15  and  C_12 
ROOT
ATOM      1  N   UNL d   1      52.599  32.128  52.874  0.00  0.00    -0.321 NA
ATOM      2  C   UNL d   1      52.741  31.445  52.739  0.00  0.00     0.422 C 
ATOM      3  N   UNL d   1      52.915  30.605  52.547  0.00  0.00    -0.180 NA
ATOM      4  O   UNL d   1      52.786  31.300  53.425  0.00  0.00    -0.228 OA
ENDROOT
BRANCH   1   5
ATOM      5  C   UNL d   1      52.417  32.984  52.864  0.00  0.00     0.271 A 
ATOM      6  S   UNL d   1      52.692  33.574  53.147  0.00  0.00    -0.006 SA
ATOM      7  C   UNL d   1      52.378  34.202  53.009  0.00  0.00     0.166 A 
ATOM      8  N   UNL d   1      51.800  34.233  52.596  0.00  0.00    -0.132 NA
ATOM      9  N   UNL d   1      51.840  33.015  52.451  0.00  0.00    -0.107 NA
BRANCH   7  10
ATOM     10  S   UNL d   1      52.554  34.872  53.231  0.00  0.00    -0.059 SA
BRANCH  10  11
ATOM     11  C   UNL d   1      52.686  35.019  54.033  0.00  0.00     0.037 C 
BRANCH  11  12
ATOM     12  C   UNL d   1      52.995  35.746  54.271  0.00  0.00     0.007 C 
ATOM     13  C   UNL d   1      53.051  35.933  55.072  0.00  0.00     0.001 C 
ENDBRANCH  11  12
ENDBRANCH  10  11
ENDBRANCH   7  10
ENDBRANCH   1   5
BRANCH   3  14
ATOM     14  C   UNL d   1      53.044  30.060  53.166  0.00  0.00     0.087 A 
ATOM     15  C   UNL d   1      53.779  30.014  53.518  0.00  0.00     0.019 A 
ATOM     16  C   UNL d   1      53.908  29.468  54.138  0.00  0.00     0.002 A 
ATOM     17  C   UNL d   1      53.297  28.980  54.392  0.00  0.00     0.000 A 
ATOM     18  C   UNL d   1      52.548  29.029  54.032  0.00  0.00     0.002 A 
ATOM     19  C   UNL d   1      52.424  29.571  53.418  0.00  0.00     0.019 A 
ENDBRANCH   3  14
TORSDOF 5
ENDMDL
MODEL 6
REMARK VINA RESULT:      -5.6      3.665      6.379
REMARK  5 active torsions:
REMARK  status: ('A' for Active; 'I' for Inactive)
REMARK    1  A    between atoms: N_6  and  C_1 
REMARK    2  A    between atoms: S_10  and  C_4 
REMARK       I    between atoms: C_7  and  N_6 
REMARK       I    between atoms: N_8  and  C_7 
REMARK    3  A    between atoms: C_11  and  N_8 
REMARK    4  A    between atoms: C_12  and  S_10 
REMARK    5  A    between atoms: C_15  and  C_12 
ROOT
ATOM      1  N   UNL d   1      49.187  35.196  52.857  0.00  0.00    -0.321 NA
ATOM      2  C   UNL d   1      49.663  34.720  52.630  0.00  0.00     0.422 C 
ATOM      3  N   UNL d   1      50.236  34.125  52.330  0.00  0.00    -0.180 NA
ATOM      4  O   UNL d   1      50.112  34.900  53.140  0.00  0.00    -0.228 OA
ENDROOT
BRANCH   1   5
ATOM      5  C   UNL d   1      48.502  35.722  53.002  0.00  0.00     0.271 A 
ATOM      6  S   UNL d   1      47.906  35.900  52.661  0.00  0.00    -0.006 SA
ATOM      7  C   UNL d   1      47.460  36.369  52.966  0.00  0.00     0.166 A 
ATOM      8  N   UNL d   1      47.613  36.651  53.601  0.00  0.00    -0.132 NA
ATOM      9  N   UNL d   1      48.655  36.004  53.636  0.00  0.00    -0.107 NA
BRANCH   7  10
ATOM     10  S   UNL d   1      46.826  36.634  52.729  0.00  0.00    -0.059 SA
BRANCH  10  11
ATOM     11  C   UNL d   1      46.125  36.444  53.123  0.00  0.00     0.037 C 
BRANCH  11  12
ATOM     12  C   UNL d   1      45.403  36.709  52.826  0.00  0.00     0.007 C 
ATOM     13  C   UNL d   1      44.699  36.516  53.209  0.00  0.00     0.001 C 
ENDBRANCH  11  12
ENDBRANCH  10  11
ENDBRANCH   7  10
ENDBRANCH   1   5
BRANCH   3  14
ATOM     14  C   UNL d   1      50.970  34.031  52.717  0.00  0.00     0.087 A 
ATOM     15  C   UNL d   1      51.054  33.458  53.293  0.00  0.00     0.019 A 
ATOM     16  C   UNL d   1      51.788  33.363  53.680  0.00  0.00     0.002 A 
ATOM     17  C   UNL d   1      52.424  33.845  53.482  0.00  0.00     0.000 A 
ATOM     18  C   UNL d   1      52.337  34.429  52.894  0.00  0.00     0.002 A 
ATOM     19  C   UNL d   1      51.608  34.520  52.513  0.00  0.00     0.019 A 
ENDBRANCH   3  14
TORSDOF 5
ENDMDL
