MODEL 1
REMARK VINA RESULT:      -8.7      0.000      0.000
REMARK  4 active torsions:
REMARK  status: ('A' for Active; 'I' for Inactive)
REMARK    1  A    between atoms: C_11  and  N_4 
REMARK    2  A    between atoms: C_18  and  C_7 
REMARK    3  A    between atoms: C_19  and  C_11 
REMARK    4  A    between atoms: O_20  and  C_16 
ROOT
ATOM      1  C   UNL d   1     -47.419  12.436  23.319  0.00  0.00     0.137 A 
ATOM      2  C   UNL d   1     -46.821  12.965  23.125  0.00  0.00     0.192 A 
ATOM      3  C   UNL d   1     -48.204  12.686  23.330  0.00  0.00     0.272 A 
ATOM      4  N   UNL d   1     -48.392  13.463  23.147  0.00  0.00    -0.258 N 
ATOM      5  N   UNL d   1     -47.000  13.745  22.940  0.00  0.00    -0.204 NA
ATOM      6  C   UNL d   1     -47.234  11.651  23.504  0.00  0.00     0.205 A 
ATOM      7  C   UNL d   1     -47.790  14.002  22.950  0.00  0.00     0.152 A 
ATOM      8  C   UNL d   1     -46.453  11.409  23.492  0.00  0.00     0.062 A 
ATOM      9  O   UNL d   1     -46.034  12.718  23.113  0.00  0.00    -0.289 OA
ATOM     10  C   UNL d   1     -45.852  11.936  23.298  0.00  0.00     0.107 A 
ATOM     11  C   UNL d   1     -45.062  11.679  23.288  0.00  0.00     0.049 A 
ATOM     12  C   UNL d   1     -46.268  10.623  23.677  0.00  0.00     0.007 A 
ATOM     13  O   UNL d   1     -48.799  12.153  23.524  0.00  0.00    -0.266 OA
ATOM     14  O   UNL d   1     -47.836  11.124  23.698  0.00  0.00    -0.286 OA
ATOM     15  C   UNL d   1     -44.883  10.900  23.472  0.00  0.00     0.096 A 
ATOM     16  C   UNL d   1     -45.487  10.371  23.667  0.00  0.00     0.024 A 
ENDROOT
BRANCH   4  17
ATOM     17  C   UNL d   1     -49.187  13.715  23.158  0.00  0.00     0.084 C 
BRANCH  17  18
ATOM     18  C   UNL d   1     -49.703  13.472  22.564  0.00  0.00     0.018 A 
ATOM     19  C   UNL d   1     -49.578  13.682  21.773  0.00  0.00     0.002 A 
ATOM     20  C   UNL d   1     -50.100  13.436  21.182  0.00  0.00     0.000 A 
ATOM     21  C   UNL d   1     -50.764  12.966  21.389  0.00  0.00     0.000 A 
ATOM     22  C   UNL d   1     -50.891  12.754  22.183  0.00  0.00     0.000 A 
ATOM     23  C   UNL d   1     -50.361  13.007  22.765  0.00  0.00     0.002 A 
ENDBRANCH  17  18
ENDBRANCH   4  17
BRANCH   7  24
ATOM     24  C   UNL d   1     -47.978  14.778  22.767  0.00  0.00     0.038 C 
ATOM     25  C   UNL d   1     -47.382  15.310  22.568  0.00  0.00     0.003 C 
ENDBRANCH   7  24
BRANCH  15  26
ATOM     26  O   UNL d   1     -44.105  10.644  23.464  0.00  0.00    -0.328 OA
ATOM     27  C   UNL d   1     -43.925   9.877  23.698  0.00  0.00     0.181 C 
ENDBRANCH  15  26
TORSDOF 4
ENDMDL
MODEL 2
REMARK VINA RESULT:      -8.4      1.438      2.261
REMARK  4 active torsions:
REMARK  status: ('A' for Active; 'I' for Inactive)
REMARK    1  A    between atoms: C_11  and  N_4 
REMARK    2  A    between atoms: C_18  and  C_7 
REMARK    3  A    between atoms: C_19  and  C_11 
REMARK    4  A    between atoms: O_20  and  C_16 
ROOT
ATOM      1  C   UNL d   1     -47.583  13.290  22.936  0.00  0.00     0.137 A 
ATOM      2  C   UNL d   1     -47.497  12.475  23.005  0.00  0.00     0.192 A 
ATOM      3  C   UNL d   1     -48.311  13.643  23.089  0.00  0.00     0.272 A 
ATOM      4  N   UNL d   1     -48.954  13.184  23.309  0.00  0.00    -0.258 N 
ATOM      5  N   UNL d   1     -48.136  12.008  23.225  0.00  0.00    -0.204 NA
ATOM      6  C   UNL d   1     -46.937  13.757  22.714  0.00  0.00     0.205 A 
ATOM      7  C   UNL d   1     -48.872  12.360  23.380  0.00  0.00     0.152 A 
ATOM      8  C   UNL d   1     -46.217  13.401  22.564  0.00  0.00     0.062 A 
ATOM      9  O   UNL d   1     -46.769  12.119  22.853  0.00  0.00    -0.289 OA
ATOM     10  C   UNL d   1     -46.127  12.586  22.632  0.00  0.00     0.107 A 
ATOM     11  C   UNL d   1     -45.391  12.235  22.477  0.00  0.00     0.049 A 
ATOM     12  C   UNL d   1     -45.570  13.869  22.342  0.00  0.00     0.007 A 
ATOM     13  O   UNL d   1     -48.392  14.458  23.019  0.00  0.00    -0.266 OA
ATOM     14  O   UNL d   1     -47.027  14.573  22.647  0.00  0.00    -0.286 OA
ATOM     15  C   UNL d   1     -44.753  12.702  22.257  0.00  0.00     0.096 A 
ATOM     16  C   UNL d   1     -44.843  13.521  22.189  0.00  0.00     0.024 A 
ENDROOT
BRANCH   4  17
ATOM     17  C   UNL d   1     -49.691  13.542  23.463  0.00  0.00     0.084 C 
BRANCH  17  18
ATOM     18  C   UNL d   1     -50.146  13.830  22.840  0.00  0.00     0.018 A 
ATOM     19  C   UNL d   1     -50.355  13.348  22.201  0.00  0.00     0.002 A 
ATOM     20  C   UNL d   1     -50.811  13.644  21.579  0.00  0.00     0.000 A 
ATOM     21  C   UNL d   1     -51.064  14.444  21.599  0.00  0.00     0.000 A 
ATOM     22  C   UNL d   1     -50.855  14.930  22.240  0.00  0.00     0.000 A 
ATOM     23  C   UNL d   1     -50.398  14.622  22.856  0.00  0.00     0.002 A 
ENDBRANCH  17  18
ENDBRANCH   4  17
BRANCH   7  24
ATOM     24  C   UNL d   1     -49.515  11.900  23.600  0.00  0.00     0.038 C 
ATOM     25  C   UNL d   1     -49.426  11.088  23.698  0.00  0.00     0.003 C 
ENDBRANCH   7  24
BRANCH  15  26
ATOM     26  O   UNL d   1     -44.025  12.358  22.104  0.00  0.00    -0.328 OA
ATOM     27  C   UNL d   1     -43.581  12.612  21.461  0.00  0.00     0.181 C 
ENDBRANCH  15  26
TORSDOF 4
ENDMDL
MODEL 3
REMARK VINA RESULT:      -7.9      1.221      1.514
REMARK  4 active torsions:
REMARK  status: ('A' for Active; 'I' for Inactive)
REMARK    1  A    between atoms: C_11  and  N_4 
REMARK    2  A    between atoms: C_18  and  C_7 
REMARK    3  A    between atoms: C_19  and  C_11 
REMARK    4  A    between atoms: O_20  and  C_16 
ROOT
ATOM      1  C   UNL d   1     -47.314  13.272  22.969  0.00  0.00     0.137 A 
ATOM      2  C   UNL d   1     -47.090  13.948  22.559  0.00  0.00     0.192 A 
ATOM      3  C   UNL d   1     -48.071  13.214  23.289  0.00  0.00     0.272 A 
ATOM      4  N   UNL d   1     -48.604  13.830  23.200  0.00  0.00    -0.258 N 
ATOM      5  N   UNL d   1     -47.618  14.570  22.465  0.00  0.00    -0.204 NA
ATOM      6  C   UNL d   1     -46.779  12.647  23.062  0.00  0.00     0.205 A 
ATOM      7  C   UNL d   1     -48.383  14.516  22.786  0.00  0.00     0.152 A 
ATOM      8  C   UNL d   1     -46.029  12.711  22.742  0.00  0.00     0.062 A 
ATOM      9  O   UNL d   1     -46.333  14.009  22.238  0.00  0.00    -0.289 OA
ATOM     10  C   UNL d   1     -45.802  13.387  22.331  0.00  0.00     0.107 A 
ATOM     11  C   UNL d   1     -45.037  13.440  22.011  0.00  0.00     0.049 A 
ATOM     12  C   UNL d   1     -45.493  12.086  22.835  0.00  0.00     0.007 A 
ATOM     13  O   UNL d   1     -48.290  12.536  23.698  0.00  0.00    -0.266 OA
ATOM     14  O   UNL d   1     -47.006  11.972  23.473  0.00  0.00    -0.286 OA
ATOM     15  C   UNL d   1     -44.510  12.819  22.105  0.00  0.00     0.096 A 
ATOM     16  C   UNL d   1     -44.738  12.140  22.518  0.00  0.00     0.024 A 
ENDROOT
BRANCH   4  17
ATOM     17  C   UNL d   1     -49.371  13.770  23.524  0.00  0.00     0.084 C 
BRANCH  17  18
ATOM     18  C   UNL d   1     -49.930  13.283  23.167  0.00  0.00     0.018 A 
ATOM     19  C   UNL d   1     -50.131  13.370  22.369  0.00  0.00     0.002 A 
ATOM     20  C   UNL d   1     -50.693  12.877  22.018  0.00  0.00     0.000 A 
ATOM     21  C   UNL d   1     -51.064  12.282  22.479  0.00  0.00     0.000 A 
ATOM     22  C   UNL d   1     -50.865  12.194  23.281  0.00  0.00     0.000 A 
ATOM     23  C   UNL d   1     -50.300  12.693  23.621  0.00  0.00     0.002 A 
ENDBRANCH  17  18
ENDBRANCH   4  17
BRANCH   7  24
ATOM     24  C   UNL d   1     -48.916  15.132  22.697  0.00  0.00     0.038 C 
ATOM     25  C   UNL d   1     -48.643  15.896  22.556  0.00  0.00     0.003 C 
ENDBRANCH   7  24
BRANCH  15  26
ATOM     26  O   UNL d   1     -43.755  12.869  21.790  0.00  0.00    -0.328 OA
ATOM     27  C   UNL d   1     -43.249  12.223  21.837  0.00  0.00     0.181 C 
ENDBRANCH  15  26
TORSDOF 4
ENDMDL
MODEL 4
REMARK VINA RESULT:      -6.4      7.961      9.954
REMARK  4 active torsions:
REMARK  status: ('A' for Active; 'I' for Inactive)
REMARK    1  A    between atoms: C_11  and  N_4 
REMARK    2  A    between atoms: C_18  and  C_7 
REMARK    3  A    between atoms: C_19  and  C_11 
REMARK    4  A    between atoms: O_20  and  C_16 
ROOT
ATOM      1  C   UNL d   1     -39.348  15.038  19.367  0.00  0.00     0.137 A 
ATOM      2  C   UNL d   1     -39.903  14.475  19.141  0.00  0.00     0.192 A 
ATOM      3  C   UNL d   1     -39.373  15.359  20.126  0.00  0.00     0.272 A 
ATOM      4  N   UNL d   1     -39.949  15.119  20.657  0.00  0.00    -0.258 N 
ATOM      5  N   UNL d   1     -40.484  14.229  19.667  0.00  0.00    -0.204 NA
ATOM      6  C   UNL d   1     -38.765  15.283  18.834  0.00  0.00     0.205 A 
ATOM      7  C   UNL d   1     -40.511  14.550  20.432  0.00  0.00     0.152 A 
ATOM      8  C   UNL d   1     -38.746  14.960  18.084  0.00  0.00     0.062 A 
ATOM      9  O   UNL d   1     -39.881  14.151  18.382  0.00  0.00    -0.289 OA
ATOM     10  C   UNL d   1     -39.300  14.397  17.853  0.00  0.00     0.107 A 
ATOM     11  C   UNL d   1     -39.271  14.076  17.088  0.00  0.00     0.049 A 
ATOM     12  C   UNL d   1     -38.162  15.205  17.550  0.00  0.00     0.007 A 
ATOM     13  O   UNL d   1     -38.816  15.922  20.348  0.00  0.00    -0.266 OA
ATOM     14  O   UNL d   1     -38.211  15.847  19.065  0.00  0.00    -0.286 OA
ATOM     15  C   UNL d   1     -38.691  14.321  16.562  0.00  0.00     0.096 A 
ATOM     16  C   UNL d   1     -38.135  14.888  16.794  0.00  0.00     0.024 A 
ENDROOT
BRANCH   4  17
ATOM     17  C   UNL d   1     -39.972  15.446  21.424  0.00  0.00     0.084 C 
BRANCH  17  18
ATOM     18  C   UNL d   1     -39.428  15.201  21.991  0.00  0.00     0.018 A 
ATOM     19  C   UNL d   1     -39.282  14.398  22.130  0.00  0.00     0.002 A 
ATOM     20  C   UNL d   1     -38.734  14.160  22.700  0.00  0.00     0.000 A 
ATOM     21  C   UNL d   1     -38.322  14.741  23.143  0.00  0.00     0.000 A 
ATOM     22  C   UNL d   1     -38.467  15.547  23.006  0.00  0.00     0.000 A 
ATOM     23  C   UNL d   1     -39.018  15.773  22.432  0.00  0.00     0.002 A 
ENDBRANCH  17  18
ENDBRANCH   4  17
BRANCH   7  24
ATOM     24  C   UNL d   1     -41.088  14.311  20.964  0.00  0.00     0.038 C 
ATOM     25  C   UNL d   1     -41.778  13.956  20.690  0.00  0.00     0.003 C 
ENDBRANCH   7  24
BRANCH  15  26
ATOM     26  O   UNL d   1     -38.661  14.006  15.807  0.00  0.00    -0.328 OA
ATOM     27  C   UNL d   1     -37.964  13.665  15.534  0.00  0.00     0.181 C 
ENDBRANCH  15  26
TORSDOF 4
ENDMDL
MODEL 5
REMARK VINA RESULT:      -6.0      8.902      9.832
REMARK  4 active torsions:
REMARK  status: ('A' for Active; 'I' for Inactive)
REMARK    1  A    between atoms: C_11  and  N_4 
REMARK    2  A    between atoms: C_18  and  C_7 
REMARK    3  A    between atoms: C_19  and  C_11 
REMARK    4  A    between atoms: O_20  and  C_16 
ROOT
ATOM      1  C   UNL d   1     -38.671  14.642  19.723  0.00  0.00     0.137 A 
ATOM      2  C   UNL d   1     -38.547  13.831  19.764  0.00  0.00     0.192 A 
ATOM      3  C   UNL d   1     -38.792  15.005  18.993  0.00  0.00     0.272 A 
ATOM      4  N   UNL d   1     -38.788  14.559  18.305  0.00  0.00    -0.258 N 
ATOM      5  N   UNL d   1     -38.541  13.376  19.080  0.00  0.00    -0.204 NA
ATOM      6  C   UNL d   1     -38.676  15.096  20.414  0.00  0.00     0.205 A 
ATOM      7  C   UNL d   1     -38.662  13.738  18.342  0.00  0.00     0.152 A 
ATOM      8  C   UNL d   1     -38.556  14.731  21.135  0.00  0.00     0.062 A 
ATOM      9  O   UNL d   1     -38.426  13.464  20.493  0.00  0.00    -0.289 OA
ATOM     10  C   UNL d   1     -38.431  13.918  21.181  0.00  0.00     0.107 A 
ATOM     11  C   UNL d   1     -38.310  13.558  21.919  0.00  0.00     0.049 A 
ATOM     12  C   UNL d   1     -38.561  15.185  21.828  0.00  0.00     0.007 A 
ATOM     13  O   UNL d   1     -38.916  15.816  18.957  0.00  0.00    -0.266 OA
ATOM     14  O   UNL d   1     -38.802  15.909  20.369  0.00  0.00    -0.286 OA
ATOM     15  C   UNL d   1     -38.316  14.011  22.602  0.00  0.00     0.096 A 
ATOM     16  C   UNL d   1     -38.442  14.827  22.557  0.00  0.00     0.024 A 
ENDROOT
BRANCH   4  17
ATOM     17  C   UNL d   1     -38.910  14.927  17.567  0.00  0.00     0.084 C 
BRANCH  17  18
ATOM     18  C   UNL d   1     -39.672  15.122  17.326  0.00  0.00     0.018 A 
ATOM     19  C   UNL d   1     -40.335  14.742  17.646  0.00  0.00     0.002 A 
ATOM     20  C   UNL d   1     -41.097  14.943  17.400  0.00  0.00     0.000 A 
ATOM     21  C   UNL d   1     -41.199  15.540  16.818  0.00  0.00     0.000 A 
ATOM     22  C   UNL d   1     -40.535  15.922  16.496  0.00  0.00     0.000 A 
ATOM     23  C   UNL d   1     -39.776  15.712  16.751  0.00  0.00     0.002 A 
ENDBRANCH  17  18
ENDBRANCH   4  17
BRANCH   7  24
ATOM     24  C   UNL d   1     -38.658  13.292  17.654  0.00  0.00     0.038 C 
ATOM     25  C   UNL d   1     -38.298  12.552  17.646  0.00  0.00     0.003 C 
ENDBRANCH   7  24
BRANCH  15  26
ATOM     26  O   UNL d   1     -38.197  13.658  23.331  0.00  0.00    -0.328 OA
ATOM     27  C   UNL d   1     -38.815  13.258  23.697  0.00  0.00     0.181 C 
ENDBRANCH  15  26
TORSDOF 4
ENDMDL
