MODEL 1
REMARK VINA RESULT:      -7.6      0.000      0.000
REMARK  8 active torsions:
REMARK  status: ('A' for Active; 'I' for Inactive)
REMARK    1  A    between atoms: C_10  and  C_3 
REMARK       I    between atoms: N_14  and  C_10 
REMARK    2  A    between atoms: C_12  and  C_13 
REMARK       I    between atoms: N_21  and  C_12 
REMARK    3  A    between atoms: C_29  and  N_14 
REMARK    4  A    between atoms: C_28  and  N_21 
REMARK    5  A    between atoms: O_30  and  C_22 
REMARK    6  A    between atoms: C_23  and  C_31 
REMARK    7  A    between atoms: C_31  and  C_28 
REMARK    8  A    between atoms: C_32  and  O_30 
ROOT
ATOM      1  N   UNL d   1      48.910  35.358  52.861  0.00  0.00    -0.277 N 
ATOM      2  C   UNL d   1      48.268  35.362  52.330  0.00  0.00     0.163 A 
ATOM      3  C   UNL d   1      47.656  35.792  52.681  0.00  0.00     0.124 A 
ATOM      4  C   UNL d   1      48.687  35.787  53.533  0.00  0.00     0.152 A 
ATOM      5  N   UNL d   1      48.329  34.975  51.606  0.00  0.00    -0.190 NA
ATOM      6  S   UNL d   1      47.909  36.053  53.415  0.00  0.00    -0.051 SA
ATOM      7  C   UNL d   1      49.608  34.968  52.663  0.00  0.00     0.071 A 
ATOM      8  C   UNL d   1      49.669  34.581  51.938  0.00  0.00     0.074 A 
ATOM      9  C   UNL d   1      49.027  34.585  51.407  0.00  0.00     0.282 A 
ATOM     10  C   UNL d   1      50.247  34.965  53.191  0.00  0.00     0.023 A 
ATOM     11  C   UNL d   1      50.944  34.575  52.991  0.00  0.00     0.059 A 
ATOM     12  S   UNL d   1      49.161  35.920  54.197  0.00  0.00    -0.052 SA
ATOM     13  C   UNL d   1      50.369  34.189  51.737  0.00  0.00     0.006 A 
ATOM     14  O   UNL d   1      49.091  34.191  50.672  0.00  0.00    -0.265 OA
ATOM     15  C   UNL d   1      51.008  34.185  52.265  0.00  0.00     0.005 A 
ENDROOT
BRANCH  11  16
ATOM     16  C   UNL d   1      51.580  34.571  53.517  0.00  0.00     0.279 C 
ATOM     17  O   UNL d   1      51.722  35.225  53.997  0.00  0.00    -0.265 OA
ATOM     18  N   UNL d   1      52.074  33.915  53.563  0.00  0.00    -0.206 NA
BRANCH  18  19
ATOM     19  C   UNL d   1      51.932  33.260  53.083  0.00  0.00     0.102 C 
BRANCH  19  20
ATOM     20  C   UNL d   1      52.559  32.865  52.730  0.00  0.00     0.021 C 
BRANCH  20  21
ATOM     21  C   UNL d   1      52.754  32.101  52.981  0.00  0.00     0.002 A 
ATOM     22  C   UNL d   1      53.414  31.990  53.460  0.00  0.00     0.002 A 
ATOM     23  C   UNL d   1      53.614  31.233  53.714  0.00  0.00     0.025 A 
ATOM     24  C   UNL d   1      53.153  30.586  53.489  0.00  0.00     0.100 A 
ATOM     25  C   UNL d   1      52.493  30.697  53.009  0.00  0.00     0.025 A 
ATOM     26  C   UNL d   1      52.294  31.455  52.755  0.00  0.00     0.002 A 
BRANCH  24  27
ATOM     27  O   UNL d   1      53.356  29.826  53.744  0.00  0.00    -0.305 OA
BRANCH  27  28
ATOM     28  C   UNL d   1      53.222  29.606  54.526  0.00  0.00     0.123 C 
ATOM     29  C   UNL d   1      53.334  28.818  54.762  0.00  0.00     0.029 C 
ENDBRANCH  27  28
ENDBRANCH  24  27
ENDBRANCH  20  21
ENDBRANCH  19  20
ENDBRANCH  18  19
ENDBRANCH  11  16
BRANCH   3  30
ATOM     30  C   UNL d   1      46.916  35.932  52.341  0.00  0.00     0.288 C 
ATOM     31  N   UNL d   1      46.232  35.667  52.722  0.00  0.00    -0.207 NA
ATOM     32  O   UNL d   1      46.854  36.332  51.625  0.00  0.00    -0.265 OA
BRANCH  31  33
ATOM     33  C   UNL d   1      45.489  35.805  52.385  0.00  0.00     0.085 C 
ATOM     34  C   UNL d   1      45.175  36.561  52.374  0.00  0.00     0.021 C 
ATOM     35  C   UNL d   1      45.061  35.178  52.058  0.00  0.00     0.021 C 
ENDBRANCH  31  33
ENDBRANCH   3  30
TORSDOF 8
ENDMDL
MODEL 2
REMARK VINA RESULT:      -7.2      2.193      6.773
REMARK  8 active torsions:
REMARK  status: ('A' for Active; 'I' for Inactive)
REMARK    1  A    between atoms: C_10  and  C_3 
REMARK       I    between atoms: N_14  and  C_10 
REMARK    2  A    between atoms: C_12  and  C_13 
REMARK       I    between atoms: N_21  and  C_12 
REMARK    3  A    between atoms: C_29  and  N_14 
REMARK    4  A    between atoms: C_28  and  N_21 
REMARK    5  A    between atoms: O_30  and  C_22 
REMARK    6  A    between atoms: C_23  and  C_31 
REMARK    7  A    between atoms: C_31  and  C_28 
REMARK    8  A    between atoms: C_32  and  O_30 
ROOT
ATOM      1  N   UNL d   1      53.057  31.909  53.411  0.00  0.00    -0.277 N 
ATOM      2  C   UNL d   1      53.382  31.405  53.989  0.00  0.00     0.163 A 
ATOM      3  C   UNL d   1      53.325  30.631  53.706  0.00  0.00     0.124 A 
ATOM      4  C   UNL d   1      52.805  31.439  52.778  0.00  0.00     0.152 A 
ATOM      5  N   UNL d   1      53.682  31.719  54.689  0.00  0.00    -0.190 NA
ATOM      6  S   UNL d   1      52.973  30.649  52.966  0.00  0.00    -0.051 SA
ATOM      7  C   UNL d   1      53.036  32.722  53.536  0.00  0.00     0.071 A 
ATOM      8  C   UNL d   1      53.336  33.037  54.237  0.00  0.00     0.074 A 
ATOM      9  C   UNL d   1      53.660  32.533  54.815  0.00  0.00     0.282 A 
ATOM     10  C   UNL d   1      52.713  33.224  52.961  0.00  0.00     0.023 A 
ATOM     11  C   UNL d   1      52.691  34.037  53.088  0.00  0.00     0.059 A 
ATOM     12  S   UNL d   1      52.449  31.718  52.085  0.00  0.00    -0.052 SA
ATOM     13  C   UNL d   1      53.315  33.854  54.365  0.00  0.00     0.006 A 
ATOM     14  O   UNL d   1      53.964  32.854  55.525  0.00  0.00    -0.265 OA
ATOM     15  C   UNL d   1      52.992  34.355  53.789  0.00  0.00     0.005 A 
ENDROOT
BRANCH  11  16
ATOM     16  C   UNL d   1      52.370  34.536  52.515  0.00  0.00     0.279 C 
ATOM     17  O   UNL d   1      52.854  34.864  51.934  0.00  0.00    -0.265 OA
ATOM     18  N   UNL d   1      51.565  34.709  52.522  0.00  0.00    -0.206 NA
BRANCH  18  19
ATOM     19  C   UNL d   1      51.081  34.381  53.102  0.00  0.00     0.102 C 
BRANCH  19  20
ATOM     20  C   UNL d   1      50.315  34.152  52.918  0.00  0.00     0.021 C 
BRANCH  20  21
ATOM     21  C   UNL d   1      49.699  34.703  52.972  0.00  0.00     0.002 A 
ATOM     22  C   UNL d   1      49.226  34.846  52.315  0.00  0.00     0.002 A 
ATOM     23  C   UNL d   1      48.612  35.393  52.362  0.00  0.00     0.025 A 
ATOM     24  C   UNL d   1      48.472  35.797  53.068  0.00  0.00     0.100 A 
ATOM     25  C   UNL d   1      48.946  35.654  53.726  0.00  0.00     0.025 A 
ATOM     26  C   UNL d   1      49.559  35.107  53.678  0.00  0.00     0.002 A 
BRANCH  24  27
ATOM     27  O   UNL d   1      47.855  36.346  53.114  0.00  0.00    -0.305 OA
BRANCH  27  28
ATOM     28  C   UNL d   1      47.099  36.098  53.324  0.00  0.00     0.123 C 
ATOM     29  C   UNL d   1      46.484  36.652  53.397  0.00  0.00     0.029 C 
ENDBRANCH  27  28
ENDBRANCH  24  27
ENDBRANCH  20  21
ENDBRANCH  19  20
ENDBRANCH  18  19
ENDBRANCH  11  16
BRANCH   3  30
ATOM     30  C   UNL d   1      53.584  29.956  54.109  0.00  0.00     0.288 C 
ATOM     31  N   UNL d   1      53.042  29.499  54.534  0.00  0.00    -0.207 NA
ATOM     32  O   UNL d   1      54.376  29.737  54.089  0.00  0.00    -0.265 OA
BRANCH  31  33
ATOM     33  C   UNL d   1      53.296  28.824  54.938  0.00  0.00     0.085 C 
ATOM     34  C   UNL d   1      53.579  28.177  54.523  0.00  0.00     0.021 C 
ATOM     35  C   UNL d   1      53.266  28.799  55.763  0.00  0.00     0.021 C 
ENDBRANCH  31  33
ENDBRANCH   3  30
TORSDOF 8
ENDMDL
MODEL 3
REMARK VINA RESULT:      -5.7      1.714      2.364
REMARK  8 active torsions:
REMARK  status: ('A' for Active; 'I' for Inactive)
REMARK    1  A    between atoms: C_10  and  C_3 
REMARK       I    between atoms: N_14  and  C_10 
REMARK    2  A    between atoms: C_12  and  C_13 
REMARK       I    between atoms: N_21  and  C_12 
REMARK    3  A    between atoms: C_29  and  N_14 
REMARK    4  A    between atoms: C_28  and  N_21 
REMARK    5  A    between atoms: O_30  and  C_22 
REMARK    6  A    between atoms: C_23  and  C_31 
REMARK    7  A    between atoms: C_31  and  C_28 
REMARK    8  A    between atoms: C_32  and  O_30 
ROOT
ATOM      1  N   UNL d   1      47.899  35.272  52.029  0.00  0.00    -0.277 N 
ATOM      2  C   UNL d   1      47.312  35.634  52.496  0.00  0.00     0.163 A 
ATOM      3  C   UNL d   1      46.617  35.659  52.048  0.00  0.00     0.124 A 
ATOM      4  C   UNL d   1      47.560  35.077  51.300  0.00  0.00     0.152 A 
ATOM      5  N   UNL d   1      47.489  35.890  53.258  0.00  0.00    -0.190 NA
ATOM      6  S   UNL d   1      46.767  35.320  51.317  0.00  0.00    -0.051 SA
ATOM      7  C   UNL d   1      48.659  35.168  52.329  0.00  0.00     0.071 A 
ATOM      8  C   UNL d   1      48.837  35.423  53.092  0.00  0.00     0.074 A 
ATOM      9  C   UNL d   1      48.249  35.786  53.558  0.00  0.00     0.282 A 
ATOM     10  C   UNL d   1      49.243  34.807  51.865  0.00  0.00     0.023 A 
ATOM     11  C   UNL d   1      50.003  34.704  52.166  0.00  0.00     0.059 A 
ATOM     12  S   UNL d   1      47.951  34.708  50.672  0.00  0.00    -0.052 SA
ATOM     13  C   UNL d   1      49.599  35.320  53.396  0.00  0.00     0.006 A 
ATOM     14  O   UNL d   1      48.432  36.045  54.333  0.00  0.00    -0.265 OA
ATOM     15  C   UNL d   1      50.184  34.959  52.932  0.00  0.00     0.005 A 
ENDROOT
BRANCH  11  16
ATOM     16  C   UNL d   1      50.585  34.345  51.704  0.00  0.00     0.279 C 
ATOM     17  O   UNL d   1      50.584  34.447  50.887  0.00  0.00    -0.265 OA
ATOM     18  N   UNL d   1      51.167  33.884  52.059  0.00  0.00    -0.206 NA
BRANCH  18  19
ATOM     19  C   UNL d   1      51.168  33.782  52.876  0.00  0.00     0.102 C 
BRANCH  19  20
ATOM     20  C   UNL d   1      51.461  33.088  53.204  0.00  0.00     0.021 C 
BRANCH  20  21
ATOM     21  C   UNL d   1      52.222  33.081  53.532  0.00  0.00     0.002 A 
ATOM     22  C   UNL d   1      52.359  33.474  54.241  0.00  0.00     0.002 A 
ATOM     23  C   UNL d   1      53.113  33.472  54.573  0.00  0.00     0.025 A 
ATOM     24  C   UNL d   1      53.729  33.075  54.194  0.00  0.00     0.100 A 
ATOM     25  C   UNL d   1      53.592  32.681  53.483  0.00  0.00     0.025 A 
ATOM     26  C   UNL d   1      52.838  32.685  53.153  0.00  0.00     0.002 A 
BRANCH  24  27
ATOM     27  O   UNL d   1      54.486  33.073  54.528  0.00  0.00    -0.305 OA
BRANCH  27  28
ATOM     28  C   UNL d   1      54.825  33.779  54.782  0.00  0.00     0.123 C 
ATOM     29  C   UNL d   1      55.552  33.770  55.185  0.00  0.00     0.029 C 
ENDBRANCH  27  28
ENDBRANCH  24  27
ENDBRANCH  20  21
ENDBRANCH  19  20
ENDBRANCH  18  19
ENDBRANCH  11  16
BRANCH   3  30
ATOM     30  C   UNL d   1      45.897  35.976  52.303  0.00  0.00     0.288 C 
ATOM     31  N   UNL d   1      45.428  35.552  52.836  0.00  0.00    -0.207 NA
ATOM     32  O   UNL d   1      45.644  36.709  52.030  0.00  0.00    -0.265 OA
BRANCH  31  33
ATOM     33  C   UNL d   1      44.707  35.865  53.093  0.00  0.00     0.085 C 
ATOM     34  C   UNL d   1      44.314  35.528  53.727  0.00  0.00     0.021 C 
ATOM     35  C   UNL d   1      44.381  36.520  52.709  0.00  0.00     0.021 C 
ENDBRANCH  31  33
ENDBRANCH   3  30
TORSDOF 8
ENDMDL
MODEL 4
REMARK VINA RESULT:      -5.0      1.125      1.542
REMARK  8 active torsions:
REMARK  status: ('A' for Active; 'I' for Inactive)
REMARK    1  A    between atoms: C_10  and  C_3 
REMARK       I    between atoms: N_14  and  C_10 
REMARK    2  A    between atoms: C_12  and  C_13 
REMARK       I    between atoms: N_21  and  C_12 
REMARK    3  A    between atoms: C_29  and  N_14 
REMARK    4  A    between atoms: C_28  and  N_21 
REMARK    5  A    between atoms: O_30  and  C_22 
REMARK    6  A    between atoms: C_23  and  C_31 
REMARK    7  A    between atoms: C_31  and  C_28 
REMARK    8  A    between atoms: C_32  and  O_30 
ROOT
ATOM      1  N   UNL d   1      48.941  34.864  52.017  0.00  0.00    -0.277 N 
ATOM      2  C   UNL d   1      48.311  35.201  52.445  0.00  0.00     0.163 A 
ATOM      3  C   UNL d   1      47.642  35.185  51.959  0.00  0.00     0.124 A 
ATOM      4  C   UNL d   1      48.654  34.644  51.272  0.00  0.00     0.152 A 
ATOM      5  N   UNL d   1      48.432  35.473  53.212  0.00  0.00    -0.190 NA
ATOM      6  S   UNL d   1      47.849  34.845  51.242  0.00  0.00    -0.051 SA
ATOM      7  C   UNL d   1      49.687  34.802  52.359  0.00  0.00     0.071 A 
ATOM      8  C   UNL d   1      49.809  35.075  53.127  0.00  0.00     0.074 A 
ATOM      9  C   UNL d   1      49.178  35.412  53.556  0.00  0.00     0.282 A 
ATOM     10  C   UNL d   1      50.314  34.467  51.933  0.00  0.00     0.023 A 
ATOM     11  C   UNL d   1      51.060  34.406  52.277  0.00  0.00     0.059 A 
ATOM     12  S   UNL d   1      49.098  34.289  50.672  0.00  0.00    -0.052 SA
ATOM     13  C   UNL d   1      50.557  35.014  53.474  0.00  0.00     0.006 A 
ATOM     14  O   UNL d   1      49.304  35.688  54.335  0.00  0.00    -0.265 OA
ATOM     15  C   UNL d   1      51.185  34.679  53.048  0.00  0.00     0.005 A 
ENDROOT
BRANCH  11  16
ATOM     16  C   UNL d   1      51.684  34.073  51.853  0.00  0.00     0.279 C 
ATOM     17  O   UNL d   1      51.892  34.377  51.117  0.00  0.00    -0.265 OA
ATOM     18  N   UNL d   1      52.101  33.435  52.165  0.00  0.00    -0.206 NA
BRANCH  18  19
ATOM     19  C   UNL d   1      51.893  33.131  52.902  0.00  0.00     0.102 C 
BRANCH  19  20
ATOM     20  C   UNL d   1      52.475  32.865  53.416  0.00  0.00     0.021 C 
BRANCH  20  21
ATOM     21  C   UNL d   1      52.615  32.053  53.491  0.00  0.00     0.002 A 
ATOM     22  C   UNL d   1      53.134  31.784  54.070  0.00  0.00     0.002 A 
ATOM     23  C   UNL d   1      53.278  30.977  54.150  0.00  0.00     0.025 A 
ATOM     24  C   UNL d   1      52.902  30.439  53.650  0.00  0.00     0.100 A 
ATOM     25  C   UNL d   1      52.383  30.708  53.069  0.00  0.00     0.025 A 
ATOM     26  C   UNL d   1      52.240  31.515  52.990  0.00  0.00     0.002 A 
BRANCH  24  27
ATOM     27  O   UNL d   1      53.048  29.629  53.731  0.00  0.00    -0.305 OA
BRANCH  27  28
ATOM     28  C   UNL d   1      53.499  29.353  54.361  0.00  0.00     0.123 C 
ATOM     29  C   UNL d   1      53.395  28.578  54.641  0.00  0.00     0.029 C 
ENDBRANCH  27  28
ENDBRANCH  24  27
ENDBRANCH  20  21
ENDBRANCH  19  20
ENDBRANCH  18  19
ENDBRANCH  11  16
BRANCH   3  30
ATOM     30  C   UNL d   1      46.894  35.466  52.169  0.00  0.00     0.288 C 
ATOM     31  N   UNL d   1      46.222  35.018  51.994  0.00  0.00    -0.207 NA
ATOM     32  O   UNL d   1      46.813  36.190  52.552  0.00  0.00    -0.265 OA
BRANCH  31  33
ATOM     33  C   UNL d   1      45.471  35.296  52.202  0.00  0.00     0.085 C 
ATOM     34  C   UNL d   1      45.267  35.380  52.991  0.00  0.00     0.021 C 
ATOM     35  C   UNL d   1      44.925  35.491  51.614  0.00  0.00     0.021 C 
ENDBRANCH  31  33
ENDBRANCH   3  30
TORSDOF 8
ENDMDL
