MODEL 1
REMARK VINA RESULT:       9.2      0.000      0.000
REMARK  6 active torsions:
REMARK  status: ('A' for Active; 'I' for Inactive)
REMARK    1  A    between atoms: C_19  and  N_1 
REMARK    2  A    between atoms: S_12  and  C_2 
REMARK       I    between atoms: N_7  and  C_10 
REMARK    3  A    between atoms: C_10  and  C_23 
REMARK    4  A    between atoms: C_23  and  S_12 
REMARK    5  A    between atoms: O_26  and  C_17 
REMARK    6  A    between atoms: O_27  and  C_18 
ROOT
ATOM      1  S   UNL d   1      32.412  21.359 -21.665  0.00  0.00    -0.044 SA
ENDROOT
BRANCH   1   2
ATOM      2  C   UNL d   1      32.549  21.436 -22.472  0.00  0.00     0.183 A 
ATOM      3  N   UNL d   1      32.716  20.767 -22.931  0.00  0.00    -0.254 N 
ATOM      4  C   UNL d   1      32.854  20.842 -23.741  0.00  0.00     0.271 A 
ATOM      5  C   UNL d   1      32.826  21.589 -24.097  0.00  0.00     0.115 A 
ATOM      6  O   UNL d   1      33.021  20.166 -24.197  0.00  0.00    -0.266 OA
ATOM      7  C   UNL d   1      32.658  22.259 -23.634  0.00  0.00     0.192 A 
ATOM      8  C   UNL d   1      32.937  21.838 -24.877  0.00  0.00     0.130 A 
ATOM      9  N   UNL d   1      32.668  22.915 -24.135  0.00  0.00    -0.128 NA
ATOM     10  N   UNL d   1      32.521  22.182 -22.828  0.00  0.00    -0.201 NA
ATOM     11  N   UNL d   1      32.837  22.657 -24.890  0.00  0.00    -0.145 NA
BRANCH   3  12
ATOM     12  C   UNL d   1      32.744  20.024 -22.577  0.00  0.00     0.069 A 
ATOM     13  C   UNL d   1      32.683  19.345 -23.041  0.00  0.00     0.018 A 
ATOM     14  C   UNL d   1      32.711  18.595 -22.683  0.00  0.00     0.002 A 
ATOM     15  C   UNL d   1      32.800  18.532 -21.866  0.00  0.00     0.000 A 
ATOM     16  C   UNL d   1      32.861  19.210 -21.405  0.00  0.00     0.002 A 
ATOM     17  C   UNL d   1      32.833  19.960 -21.763  0.00  0.00     0.018 A 
ENDBRANCH   3  12
ENDBRANCH   1   2
BRANCH   1  18
ATOM     18  C   UNL d   1      32.859  21.798 -21.128  0.00  0.00     0.099 C 
BRANCH  18  19
ATOM     19  C   UNL d   1      32.983  21.511 -20.368  0.00  0.00     0.271 C 
ATOM     20  N   UNL d   1      32.862  22.004 -19.713  0.00  0.00    -0.272 N 
ATOM     21  C   UNL d   1      32.986  21.718 -18.949  0.00  0.00     0.083 A 
ATOM     22  C   UNL d   1      32.617  22.782 -19.826  0.00  0.00     0.083 A 
ATOM     23  C   UNL d   1      32.865  22.210 -18.302  0.00  0.00     0.020 A 
ATOM     24  C   UNL d   1      32.990  21.924 -17.543  0.00  0.00     0.028 A 
ATOM     25  C   UNL d   1      32.620  22.988 -18.415  0.00  0.00     0.005 A 
ATOM     26  C   UNL d   1      32.868  22.417 -16.887  0.00  0.00     0.116 A 
ATOM     27  C   UNL d   1      32.623  23.194 -17.000  0.00  0.00     0.116 A 
ATOM     28  C   UNL d   1      32.499  23.479 -17.769  0.00  0.00     0.026 A 
ATOM     29  C   UNL d   1      32.496  23.273 -19.175  0.00  0.00     0.019 A 
ATOM     30  O   UNL d   1      33.229  20.733 -20.260  0.00  0.00    -0.266 OA
BRANCH  26  31
ATOM     31  O   UNL d   1      32.993  22.131 -16.123  0.00  0.00    -0.326 OA
ATOM     32  C   UNL d   1      33.236  21.355 -16.002  0.00  0.00     0.181 C 
ENDBRANCH  26  31
BRANCH  27  33
ATOM     33  O   UNL d   1      32.498  23.698 -16.350  0.00  0.00    -0.326 OA
ATOM     34  C   UNL d   1      31.978  23.482 -15.750  0.00  0.00     0.181 C 
ENDBRANCH  27  33
ENDBRANCH  18  19
ENDBRANCH   1  18
TORSDOF 6
ENDMDL
MODEL 2
REMARK VINA RESULT:       9.7      2.414      6.261
REMARK  6 active torsions:
REMARK  status: ('A' for Active; 'I' for Inactive)
REMARK    1  A    between atoms: C_19  and  N_1 
REMARK    2  A    between atoms: S_12  and  C_2 
REMARK       I    between atoms: N_7  and  C_10 
REMARK    3  A    between atoms: C_10  and  C_23 
REMARK    4  A    between atoms: C_23  and  S_12 
REMARK    5  A    between atoms: O_26  and  C_17 
REMARK    6  A    between atoms: O_27  and  C_18 
ROOT
ATOM      1  S   UNL d   1      33.218  20.919 -22.935  0.00  0.00    -0.044 SA
ENDROOT
BRANCH   1   2
ATOM      2  C   UNL d   1      32.915  21.310 -22.278  0.00  0.00     0.183 A 
ATOM      3  N   UNL d   1      32.688  22.105 -22.336  0.00  0.00    -0.254 N 
ATOM      4  C   UNL d   1      32.383  22.499 -21.678  0.00  0.00     0.271 A 
ATOM      5  C   UNL d   1      32.305  22.100 -20.958  0.00  0.00     0.115 A 
ATOM      6  O   UNL d   1      32.157  23.297 -21.743  0.00  0.00    -0.266 OA
ATOM      7  C   UNL d   1      32.534  21.303 -20.902  0.00  0.00     0.192 A 
ATOM      8  C   UNL d   1      32.026  22.338 -20.217  0.00  0.00     0.130 A 
ATOM      9  N   UNL d   1      32.393  21.058 -20.127  0.00  0.00    -0.128 NA
ATOM     10  N   UNL d   1      32.837  20.911 -21.558  0.00  0.00    -0.201 NA
ATOM     11  N   UNL d   1      32.084  21.688 -19.712  0.00  0.00    -0.145 NA
BRANCH   3  12
ATOM     12  C   UNL d   1      32.766  22.502 -23.053  0.00  0.00     0.069 A 
ATOM     13  C   UNL d   1      32.558  23.298 -23.107  0.00  0.00     0.018 A 
ATOM     14  C   UNL d   1      32.637  23.699 -23.832  0.00  0.00     0.002 A 
ATOM     15  C   UNL d   1      32.923  23.299 -24.494  0.00  0.00     0.000 A 
ATOM     16  C   UNL d   1      33.129  22.506 -24.438  0.00  0.00     0.002 A 
ATOM     17  C   UNL d   1      33.050  22.105 -23.713  0.00  0.00     0.018 A 
ENDBRANCH   3  12
ENDBRANCH   1   2
BRANCH   1  18
ATOM     18  C   UNL d   1      32.720  20.465 -23.410  0.00  0.00     0.099 C 
BRANCH  18  19
ATOM     19  C   UNL d   1      32.552  19.688 -23.204  0.00  0.00     0.271 C 
ATOM     20  N   UNL d   1      31.977  19.262 -23.622  0.00  0.00    -0.272 N 
ATOM     21  C   UNL d   1      31.807  18.481 -23.416  0.00  0.00     0.083 A 
ATOM     22  C   UNL d   1      31.574  19.620 -24.243  0.00  0.00     0.083 A 
ATOM     23  C   UNL d   1      31.236  18.062 -23.833  0.00  0.00     0.020 A 
ATOM     24  C   UNL d   1      31.069  17.285 -23.627  0.00  0.00     0.028 A 
ATOM     25  C   UNL d   1      30.833  18.420 -24.454  0.00  0.00     0.005 A 
ATOM     26  C   UNL d   1      30.493  16.858 -24.044  0.00  0.00     0.116 A 
ATOM     27  C   UNL d   1      30.090  17.216 -24.666  0.00  0.00     0.116 A 
ATOM     28  C   UNL d   1      30.263  18.001 -24.870  0.00  0.00     0.026 A 
ATOM     29  C   UNL d   1      31.001  19.197 -24.660  0.00  0.00     0.019 A 
ATOM     30  O   UNL d   1      32.958  19.334 -22.582  0.00  0.00    -0.266 OA
BRANCH  26  31
ATOM     31  O   UNL d   1      30.324  16.077 -23.839  0.00  0.00    -0.326 OA
ATOM     32  C   UNL d   1      29.617  15.727 -24.074  0.00  0.00     0.181 C 
ENDBRANCH  26  31
BRANCH  27  33
ATOM     33  O   UNL d   1      29.511  16.799 -25.092  0.00  0.00    -0.326 OA
ATOM     34  C   UNL d   1      29.485  15.977 -25.063  0.00  0.00     0.181 C 
ENDBRANCH  27  33
ENDBRANCH  18  19
ENDBRANCH   1  18
TORSDOF 6
ENDMDL
