MODEL 1
REMARK VINA RESULT:      18.6      0.000      0.000
REMARK  6 active torsions:
REMARK  status: ('A' for Active; 'I' for Inactive)
REMARK    1  A    between atoms: C_8  and  C_6 
REMARK    2  A    between atoms: C_9  and  C_8 
REMARK       I    between atoms: N_11  and  C_9 
REMARK    3  A    between atoms: C_10  and  C_12 
REMARK    4  A    between atoms: O_20  and  C_10 
REMARK    5  A    between atoms: C_19  and  N_11 
REMARK    6  A    between atoms: C_29  and  O_20 
ROOT
ATOM      1  N   UNL d   1      46.220 -17.510  42.311  0.00  0.00    -0.207 NA
ATOM      2  N   UNL d   1      46.173 -18.014  43.911  0.00  0.00    -0.240 NA
ATOM      3  C   UNL d   1      46.100 -17.107  43.008  0.00  0.00     0.297 A 
ATOM      4  C   UNL d   1      46.359 -18.313  42.182  0.00  0.00     0.086 A 
ATOM      5  C   UNL d   1      46.317 -18.738  43.557  0.00  0.00     0.083 A 
ATOM      6  C   UNL d   1      46.085 -17.281  43.548  0.00  0.00     0.144 A 
ATOM      7  C   UNL d   1      46.411 -18.920  42.753  0.00  0.00     0.035 A 
ATOM      8  O   UNL d   1      45.976 -16.297  42.931  0.00  0.00    -0.264 OA
ATOM      9  C   UNL d   1      46.555 -19.695  42.506  0.00  0.00     0.003 A 
ATOM     10  C   UNL d   1      46.369 -19.340  44.120  0.00  0.00     0.019 A 
ATOM     11  C   UNL d   1      46.452 -18.490  41.380  0.00  0.00     0.019 A 
ATOM     12  C   UNL d   1      46.515 -20.129  43.878  0.00  0.00     0.002 A 
ATOM     13  C   UNL d   1      46.596 -19.269  41.141  0.00  0.00     0.002 A 
ATOM     14  C   UNL d   1      46.606 -20.303  43.077  0.00  0.00     0.000 A 
ATOM     15  C   UNL d   1      46.647 -19.869  41.705  0.00  0.00     0.000 A 
ENDROOT
BRANCH   6  16
ATOM     16  C   UNL d   1      45.944 -16.668  44.082  0.00  0.00     0.086 C 
BRANCH  16  17
ATOM     17  C   UNL d   1      45.332 -16.747  44.642  0.00  0.00     0.281 C 
ATOM     18  N   UNL d   1      44.969 -16.073  44.954  0.00  0.00    -0.208 NA
ATOM     19  O   UNL d   1      45.085 -17.497  44.887  0.00  0.00    -0.265 OA
BRANCH  18  20
ATOM     20  C   UNL d   1      45.213 -15.320  44.712  0.00  0.00     0.085 A 
ATOM     21  C   UNL d   1      46.006 -15.113  44.766  0.00  0.00     0.019 A 
ATOM     22  C   UNL d   1      46.255 -14.366  44.526  0.00  0.00     0.007 A 
ATOM     23  C   UNL d   1      45.702 -13.822  44.230  0.00  0.00     0.064 A 
ATOM     24  C   UNL d   1      44.906 -14.033  44.178  0.00  0.00     0.007 A 
ATOM     25  C   UNL d   1      44.661 -14.783  44.419  0.00  0.00     0.019 A 
BRANCH  23  26
ATOM     26  C   UNL d   1      45.942 -13.086  43.994  0.00  0.00     0.300 C 
ATOM     27  O   UNL d   1      46.406 -12.627  44.484  0.00  0.00    -0.259 OA
BRANCH  26  28
ATOM     28  O   UNL d   1      45.723 -12.799  43.266  0.00  0.00    -0.271 OA
BRANCH  28  29
ATOM     29  C   UNL d   1      45.133 -12.242  43.207  0.00  0.00     0.126 C 
ATOM     30  C   UNL d   1      44.794 -12.080  42.487  0.00  0.00     0.029 C 
ENDBRANCH  28  29
ENDBRANCH  26  28
ENDBRANCH  23  26
ENDBRANCH  18  20
ENDBRANCH  16  17
ENDBRANCH   6  16
TORSDOF 6
ENDMDL
