MODEL 1
REMARK VINA RESULT:      -8.1      0.000      0.000
REMARK  5 active torsions:
REMARK  status: ('A' for Active; 'I' for Inactive)
REMARK    1  A    between atoms: C_3  and  C_1 
REMARK    2  A    between atoms: C_6  and  C_1 
REMARK    3  A    between atoms: C_2  and  C_3 
REMARK       I    between atoms: N_4  and  C_2 
REMARK    4  A    between atoms: C_12  and  N_4 
REMARK    5  A    between atoms: N_7  and  C_5 
ROOT
ATOM      1  C   UNL d   1      52.706  32.329  53.046  0.00  0.00     0.328 C 
ATOM      2  N   UNL d   1      52.058  32.820  52.913  0.00  0.00    -0.365 NA
ATOM      3  O   UNL d   1      52.892  31.735  52.505  0.00  0.00    -0.251 OA
ENDROOT
BRANCH   1   4
ATOM      4  C   UNL d   1      53.166  32.432  53.721  0.00  0.00     0.076 C 
BRANCH   4   5
ATOM      5  C   UNL d   1      53.976  32.564  53.647  0.00  0.00     0.007 C 
BRANCH   5   6
ATOM      6  C   UNL d   1      54.390  32.944  54.255  0.00  0.00     0.011 A 
ATOM      7  C   UNL d   1      55.116  33.310  54.095  0.00  0.00     0.058 A 
ATOM      8 CL   UNL d   1      55.427  33.295  53.332  0.00  0.00    -0.082 Cl
ATOM      9  C   UNL d   1      55.530  33.691  54.705  0.00  0.00     0.011 A 
ATOM     10  C   UNL d   1      55.216  33.705  55.469  0.00  0.00     0.001 A 
ATOM     11  C   UNL d   1      54.492  33.338  55.619  0.00  0.00     0.000 A 
ATOM     12  C   UNL d   1      54.079  32.959  55.017  0.00  0.00     0.001 A 
ENDBRANCH   5   6
ENDBRANCH   4   5
ENDBRANCH   1   4
BRANCH   2  13
ATOM     13  C   UNL d   1      51.411  33.311  52.780  0.00  0.00     0.135 A 
ATOM     14  C   UNL d   1      51.420  33.828  52.134  0.00  0.00     0.034 A 
ATOM     15  C   UNL d   1      50.773  34.319  52.001  0.00  0.00     0.020 A 
ATOM     16  C   UNL d   1      50.116  34.292  52.513  0.00  0.00     0.064 A 
ATOM     17  C   UNL d   1      50.113  33.776  53.154  0.00  0.00     0.020 A 
ATOM     18  C   UNL d   1      50.761  33.284  53.287  0.00  0.00     0.034 A 
BRANCH  16  19
ATOM     19  N   UNL d   1      49.465  34.789  52.376  0.00  0.00    -0.301 N 
ATOM     20  C   UNL d   1      49.193  35.284  52.981  0.00  0.00     0.100 C 
ATOM     21  C   UNL d   1      49.095  34.786  51.638  0.00  0.00     0.100 C 
ENDBRANCH  16  19
ENDBRANCH   2  13
TORSDOF 5
ENDMDL
MODEL 2
REMARK VINA RESULT:      -8.1      1.628      2.273
REMARK  5 active torsions:
REMARK  status: ('A' for Active; 'I' for Inactive)
REMARK    1  A    between atoms: C_3  and  C_1 
REMARK    2  A    between atoms: C_6  and  C_1 
REMARK    3  A    between atoms: C_2  and  C_3 
REMARK       I    between atoms: N_4  and  C_2 
REMARK    4  A    between atoms: C_12  and  N_4 
REMARK    5  A    between atoms: N_7  and  C_5 
ROOT
ATOM      1  C   UNL d   1      51.940  33.905  52.959  0.00  0.00     0.328 C 
ATOM      2  N   UNL d   1      51.199  34.148  52.692  0.00  0.00    -0.365 NA
ATOM      3  O   UNL d   1      52.491  34.462  53.216  0.00  0.00    -0.251 OA
ENDROOT
BRANCH   1   4
ATOM      4  C   UNL d   1      52.128  33.103  52.968  0.00  0.00     0.076 C 
BRANCH   4   5
ATOM      5  C   UNL d   1      52.839  32.853  53.300  0.00  0.00     0.007 C 
BRANCH   5   6
ATOM      6  C   UNL d   1      53.025  32.047  53.321  0.00  0.00     0.011 A 
ATOM      7  C   UNL d   1      53.688  31.786  53.746  0.00  0.00     0.058 A 
ATOM      8 CL   UNL d   1      54.162  32.329  54.146  0.00  0.00    -0.082 Cl
ATOM      9  C   UNL d   1      53.873  30.978  53.766  0.00  0.00     0.011 A 
ATOM     10  C   UNL d   1      53.396  30.436  53.364  0.00  0.00     0.001 A 
ATOM     11  C   UNL d   1      52.738  30.704  52.944  0.00  0.00     0.000 A 
ATOM     12  C   UNL d   1      52.551  31.506  52.921  0.00  0.00     0.001 A 
ENDBRANCH   5   6
ENDBRANCH   4   5
ENDBRANCH   1   4
BRANCH   2  13
ATOM     13  C   UNL d   1      50.460  34.392  52.426  0.00  0.00     0.135 A 
ATOM     14  C   UNL d   1      50.250  34.264  51.636  0.00  0.00     0.034 A 
ATOM     15  C   UNL d   1      49.511  34.508  51.370  0.00  0.00     0.020 A 
ATOM     16  C   UNL d   1      48.981  34.880  51.893  0.00  0.00     0.064 A 
ATOM     17  C   UNL d   1      49.195  35.006  52.678  0.00  0.00     0.020 A 
ATOM     18  C   UNL d   1      49.935  34.761  52.944  0.00  0.00     0.034 A 
BRANCH  16  19
ATOM     19  N   UNL d   1      48.235  35.125  51.621  0.00  0.00    -0.301 N 
ATOM     20  C   UNL d   1      47.963  34.866  50.883  0.00  0.00     0.100 C 
ATOM     21  C   UNL d   1      47.771  35.624  52.087  0.00  0.00     0.100 C 
ENDBRANCH  16  19
ENDBRANCH   2  13
TORSDOF 5
ENDMDL
MODEL 3
REMARK VINA RESULT:      -7.9      2.498      5.572
REMARK  5 active torsions:
REMARK  status: ('A' for Active; 'I' for Inactive)
REMARK    1  A    between atoms: C_3  and  C_1 
REMARK    2  A    between atoms: C_6  and  C_1 
REMARK    3  A    between atoms: C_2  and  C_3 
REMARK       I    between atoms: N_4  and  C_2 
REMARK    4  A    between atoms: C_12  and  N_4 
REMARK    5  A    between atoms: N_7  and  C_5 
ROOT
ATOM      1  C   UNL d   1      50.002  34.529  52.260  0.00  0.00     0.328 C 
ATOM      2  N   UNL d   1      50.714  34.325  52.621  0.00  0.00    -0.365 NA
ATOM      3  O   UNL d   1      49.859  34.315  51.476  0.00  0.00    -0.251 OA
ENDROOT
BRANCH   1   4
ATOM      4  C   UNL d   1      49.434  34.947  52.684  0.00  0.00     0.076 C 
BRANCH   4   5
ATOM      5  C   UNL d   1      48.759  35.224  52.301  0.00  0.00     0.007 C 
BRANCH   5   6
ATOM      6  C   UNL d   1      48.230  35.719  52.702  0.00  0.00     0.011 A 
ATOM      7  C   UNL d   1      47.534  35.969  52.328  0.00  0.00     0.058 A 
ATOM      8 CL   UNL d   1      47.368  35.726  51.558  0.00  0.00    -0.082 Cl
ATOM      9  C   UNL d   1      47.004  36.465  52.731  0.00  0.00     0.011 A 
ATOM     10  C   UNL d   1      47.174  36.707  53.502  0.00  0.00     0.001 A 
ATOM     11  C   UNL d   1      47.869  36.453  53.867  0.00  0.00     0.000 A 
ATOM     12  C   UNL d   1      48.396  35.961  53.470  0.00  0.00     0.001 A 
ENDBRANCH   5   6
ENDBRANCH   4   5
ENDBRANCH   1   4
BRANCH   2  13
ATOM     13  C   UNL d   1      51.425  34.120  52.980  0.00  0.00     0.135 A 
ATOM     14  C   UNL d   1      51.507  33.371  53.323  0.00  0.00     0.034 A 
ATOM     15  C   UNL d   1      52.218  33.167  53.683  0.00  0.00     0.020 A 
ATOM     16  C   UNL d   1      52.848  33.711  53.701  0.00  0.00     0.064 A 
ATOM     17  C   UNL d   1      52.761  34.455  53.359  0.00  0.00     0.020 A 
ATOM     18  C   UNL d   1      52.049  34.659  52.998  0.00  0.00     0.034 A 
BRANCH  16  19
ATOM     19  N   UNL d   1      53.565  33.502  54.065  0.00  0.00    -0.301 N 
ATOM     20  C   UNL d   1      53.742  33.794  54.819  0.00  0.00     0.100 C 
ATOM     21  C   UNL d   1      54.094  33.004  53.674  0.00  0.00     0.100 C 
ENDBRANCH  16  19
ENDBRANCH   2  13
TORSDOF 5
ENDMDL
MODEL 4
REMARK VINA RESULT:      -7.7      1.170      1.641
REMARK  5 active torsions:
REMARK  status: ('A' for Active; 'I' for Inactive)
REMARK    1  A    between atoms: C_3  and  C_1 
REMARK    2  A    between atoms: C_6  and  C_1 
REMARK    3  A    between atoms: C_2  and  C_3 
REMARK       I    between atoms: N_4  and  C_2 
REMARK    4  A    between atoms: C_12  and  N_4 
REMARK    5  A    between atoms: N_7  and  C_5 
ROOT
ATOM      1  C   UNL d   1      51.632  33.651  52.666  0.00  0.00     0.328 C 
ATOM      2  N   UNL d   1      50.915  34.057  52.635  0.00  0.00    -0.365 NA
ATOM      3  O   UNL d   1      51.854  33.157  52.044  0.00  0.00    -0.251 OA
ENDROOT
BRANCH   1   4
ATOM      4  C   UNL d   1      52.125  33.741  53.319  0.00  0.00     0.076 C 
BRANCH   4   5
ATOM      5  C   UNL d   1      52.728  33.196  53.455  0.00  0.00     0.007 C 
BRANCH   5   6
ATOM      6  C   UNL d   1      53.276  33.329  54.060  0.00  0.00     0.011 A 
ATOM      7  C   UNL d   1      53.776  32.716  54.307  0.00  0.00     0.058 A 
ATOM      8 CL   UNL d   1      53.729  31.975  53.949  0.00  0.00    -0.082 Cl
ATOM      9  C   UNL d   1      54.326  32.850  54.915  0.00  0.00     0.011 A 
ATOM     10  C   UNL d   1      54.371  33.594  55.271  0.00  0.00     0.001 A 
ATOM     11  C   UNL d   1      53.869  34.198  55.020  0.00  0.00     0.000 A 
ATOM     12  C   UNL d   1      53.323  34.069  54.417  0.00  0.00     0.001 A 
ENDBRANCH   5   6
ENDBRANCH   4   5
ENDBRANCH   1   4
BRANCH   2  13
ATOM     13  C   UNL d   1      50.200  34.462  52.604  0.00  0.00     0.135 A 
ATOM     14  C   UNL d   1      49.747  34.434  51.912  0.00  0.00     0.034 A 
ATOM     15  C   UNL d   1      49.031  34.839  51.880  0.00  0.00     0.020 A 
ATOM     16  C   UNL d   1      48.768  35.272  52.541  0.00  0.00     0.064 A 
ATOM     17  C   UNL d   1      49.222  35.296  53.227  0.00  0.00     0.020 A 
ATOM     18  C   UNL d   1      49.939  34.890  53.258  0.00  0.00     0.034 A 
BRANCH  16  19
ATOM     19  N   UNL d   1      48.044  35.679  52.506  0.00  0.00    -0.301 N 
ATOM     20  C   UNL d   1      47.798  36.133  53.154  0.00  0.00     0.100 C 
ATOM     21  C   UNL d   1      47.578  35.630  51.828  0.00  0.00     0.100 C 
ENDBRANCH  16  19
ENDBRANCH   2  13
TORSDOF 5
ENDMDL
MODEL 5
REMARK VINA RESULT:      -7.1      2.215      5.163
REMARK  5 active torsions:
REMARK  status: ('A' for Active; 'I' for Inactive)
REMARK    1  A    between atoms: C_3  and  C_1 
REMARK    2  A    between atoms: C_6  and  C_1 
REMARK    3  A    between atoms: C_2  and  C_3 
REMARK       I    between atoms: N_4  and  C_2 
REMARK    4  A    between atoms: C_12  and  N_4 
REMARK    5  A    between atoms: N_7  and  C_5 
ROOT
ATOM      1  C   UNL d   1      51.796  34.026  52.860  0.00  0.00     0.328 C 
ATOM      2  N   UNL d   1      52.147  33.291  52.986  0.00  0.00    -0.365 NA
ATOM      3  O   UNL d   1      52.117  34.702  53.207  0.00  0.00    -0.251 OA
ENDROOT
BRANCH   1   4
ATOM      4  C   UNL d   1      51.124  34.083  52.388  0.00  0.00     0.076 C 
BRANCH   4   5
ATOM      5  C   UNL d   1      50.464  34.493  52.662  0.00  0.00     0.007 C 
BRANCH   5   6
ATOM      6  C   UNL d   1      49.805  34.592  52.171  0.00  0.00     0.011 A 
ATOM      7  C   UNL d   1      49.134  34.988  52.454  0.00  0.00     0.058 A 
ATOM      8 CL   UNL d   1      49.122  35.283  53.223  0.00  0.00    -0.082 Cl
ATOM      9  C   UNL d   1      48.474  35.086  51.961  0.00  0.00     0.011 A 
ATOM     10  C   UNL d   1      48.489  34.789  51.190  0.00  0.00     0.001 A 
ATOM     11  C   UNL d   1      49.161  34.396  50.916  0.00  0.00     0.000 A 
ATOM     12  C   UNL d   1      49.818  34.297  51.403  0.00  0.00     0.001 A 
ENDBRANCH   5   6
ENDBRANCH   4   5
ENDBRANCH   1   4
BRANCH   2  13
ATOM     13  C   UNL d   1      52.497  32.558  53.112  0.00  0.00     0.135 A 
ATOM     14  C   UNL d   1      53.206  32.513  53.538  0.00  0.00     0.034 A 
ATOM     15  C   UNL d   1      53.556  31.780  53.664  0.00  0.00     0.020 A 
ATOM     16  C   UNL d   1      53.199  31.089  53.364  0.00  0.00     0.064 A 
ATOM     17  C   UNL d   1      52.494  31.139  52.942  0.00  0.00     0.020 A 
ATOM     18  C   UNL d   1      52.143  31.874  52.816  0.00  0.00     0.034 A 
BRANCH  16  19
ATOM     19  N   UNL d   1      53.556  30.350  53.493  0.00  0.00    -0.301 N 
ATOM     20  C   UNL d   1      53.121  29.742  53.849  0.00  0.00     0.100 C 
ATOM     21  C   UNL d   1      54.340  30.228  53.267  0.00  0.00     0.100 C 
ENDBRANCH  16  19
ENDBRANCH   2  13
TORSDOF 5
ENDMDL
MODEL 6
REMARK VINA RESULT:      -5.8     10.424     11.398
REMARK  5 active torsions:
REMARK  status: ('A' for Active; 'I' for Inactive)
REMARK    1  A    between atoms: C_3  and  C_1 
REMARK    2  A    between atoms: C_6  and  C_1 
REMARK    3  A    between atoms: C_2  and  C_3 
REMARK       I    between atoms: N_4  and  C_2 
REMARK    4  A    between atoms: C_12  and  N_4 
REMARK    5  A    between atoms: N_7  and  C_5 
ROOT
ATOM      1  C   UNL d   1      44.782  30.580  60.559  0.00  0.00     0.328 C 
ATOM      2  N   UNL d   1      44.756  30.425  59.750  0.00  0.00    -0.365 NA
ATOM      3  O   UNL d   1      44.940  31.343  60.829  0.00  0.00    -0.251 OA
ENDROOT
BRANCH   1   4
ATOM      4  C   UNL d   1      44.649  29.970  61.096  0.00  0.00     0.076 C 
BRANCH   4   5
ATOM      5  C   UNL d   1      44.741  30.109  61.903  0.00  0.00     0.007 C 
BRANCH   5   6
ATOM      6  C   UNL d   1      44.635  29.491  62.443  0.00  0.00     0.011 A 
ATOM      7  C   UNL d   1      44.421  29.658  63.227  0.00  0.00     0.058 A 
ATOM      8 CL   UNL d   1      44.314  30.439  63.468  0.00  0.00    -0.082 Cl
ATOM      9  C   UNL d   1      44.316  29.037  63.767  0.00  0.00     0.011 A 
ATOM     10  C   UNL d   1      44.424  28.256  63.522  0.00  0.00     0.001 A 
ATOM     11  C   UNL d   1      44.637  28.098  62.741  0.00  0.00     0.000 A 
ATOM     12  C   UNL d   1      44.743  28.711  62.202  0.00  0.00     0.001 A 
ENDBRANCH   5   6
ENDBRANCH   4   5
ENDBRANCH   1   4
BRANCH   2  13
ATOM     13  C   UNL d   1      44.731  30.271  58.942  0.00  0.00     0.135 A 
ATOM     14  C   UNL d   1      44.366  30.814  58.436  0.00  0.00     0.034 A 
ATOM     15  C   UNL d   1      44.341  30.660  57.628  0.00  0.00     0.020 A 
ATOM     16  C   UNL d   1      44.681  29.963  57.326  0.00  0.00     0.064 A 
ATOM     17  C   UNL d   1      45.043  29.426  57.834  0.00  0.00     0.020 A 
ATOM     18  C   UNL d   1      45.068  29.580  58.643  0.00  0.00     0.034 A 
BRANCH  16  19
ATOM     19  N   UNL d   1      44.653  29.810  56.509  0.00  0.00    -0.301 N 
ATOM     20  C   UNL d   1      44.867  29.062  56.225  0.00  0.00     0.100 C 
ATOM     21  C   UNL d   1      44.414  30.404  55.989  0.00  0.00     0.100 C 
ENDBRANCH  16  19
ENDBRANCH   2  13
TORSDOF 5
ENDMDL
MODEL 7
REMARK VINA RESULT:      -5.6     10.525     11.370
REMARK  5 active torsions:
REMARK  status: ('A' for Active; 'I' for Inactive)
REMARK    1  A    between atoms: C_3  and  C_1 
REMARK    2  A    between atoms: C_6  and  C_1 
REMARK    3  A    between atoms: C_2  and  C_3 
REMARK       I    between atoms: N_4  and  C_2 
REMARK    4  A    between atoms: C_12  and  N_4 
REMARK    5  A    between atoms: N_7  and  C_5 
ROOT
ATOM      1  C   UNL d   1      45.038  29.678  59.214  0.00  0.00     0.328 C 
ATOM      2  N   UNL d   1      44.955  29.005  58.747  0.00  0.00    -0.365 NA
ATOM      3  O   UNL d   1      45.383  30.359  58.901  0.00  0.00    -0.251 OA
ENDROOT
BRANCH   1   4
ATOM      4  C   UNL d   1      44.775  29.670  59.994  0.00  0.00     0.076 C 
BRANCH   4   5
ATOM      5  C   UNL d   1      44.793  30.363  60.440  0.00  0.00     0.007 C 
BRANCH   5   6
ATOM      6  C   UNL d   1      44.673  30.331  61.258  0.00  0.00     0.011 A 
ATOM      7  C   UNL d   1      44.434  31.011  61.668  0.00  0.00     0.058 A 
ATOM      8 CL   UNL d   1      44.316  31.718  61.261  0.00  0.00    -0.082 Cl
ATOM      9  C   UNL d   1      44.314  30.978  62.488  0.00  0.00     0.011 A 
ATOM     10  C   UNL d   1      44.433  30.268  62.893  0.00  0.00     0.001 A 
ATOM     11  C   UNL d   1      44.671  29.596  62.477  0.00  0.00     0.000 A 
ATOM     12  C   UNL d   1      44.791  29.625  61.664  0.00  0.00     0.001 A 
ENDBRANCH   5   6
ENDBRANCH   4   5
ENDBRANCH   1   4
BRANCH   2  13
ATOM     13  C   UNL d   1      44.873  28.332  58.280  0.00  0.00     0.135 A 
ATOM     14  C   UNL d   1      44.401  28.363  57.602  0.00  0.00     0.034 A 
ATOM     15  C   UNL d   1      44.318  27.691  57.135  0.00  0.00     0.020 A 
ATOM     16  C   UNL d   1      44.709  26.986  57.346  0.00  0.00     0.064 A 
ATOM     17  C   UNL d   1      45.178  26.960  58.022  0.00  0.00     0.020 A 
ATOM     18  C   UNL d   1      45.260  27.634  58.490  0.00  0.00     0.034 A 
BRANCH  16  19
ATOM     19  N   UNL d   1      44.623  26.309  56.873  0.00  0.00    -0.301 N 
ATOM     20  C   UNL d   1      44.375  25.598  57.216  0.00  0.00     0.100 C 
ATOM     21  C   UNL d   1      44.787  26.350  56.065  0.00  0.00     0.100 C 
ENDBRANCH  16  19
ENDBRANCH   2  13
TORSDOF 5
ENDMDL
MODEL 8
REMARK VINA RESULT:      -5.6     10.104     11.324
REMARK  5 active torsions:
REMARK  status: ('A' for Active; 'I' for Inactive)
REMARK    1  A    between atoms: C_3  and  C_1 
REMARK    2  A    between atoms: C_6  and  C_1 
REMARK    3  A    between atoms: C_2  and  C_3 
REMARK       I    between atoms: N_4  and  C_2 
REMARK    4  A    between atoms: C_12  and  N_4 
REMARK    5  A    between atoms: N_7  and  C_5 
ROOT
ATOM      1  C   UNL d   1      44.925  29.888  58.799  0.00  0.00     0.328 C 
ATOM      2  N   UNL d   1      44.814  30.099  59.588  0.00  0.00    -0.365 NA
ATOM      3  O   UNL d   1      45.148  30.458  58.246  0.00  0.00    -0.251 OA
ENDROOT
BRANCH   1   4
ATOM      4  C   UNL d   1      44.812  29.107  58.565  0.00  0.00     0.076 C 
BRANCH   4   5
ATOM      5  C   UNL d   1      45.175  28.828  57.880  0.00  0.00     0.007 C 
BRANCH   5   6
ATOM      6  C   UNL d   1      45.132  28.025  57.686  0.00  0.00     0.011 A 
ATOM      7  C   UNL d   1      45.088  27.792  56.892  0.00  0.00     0.058 A 
ATOM      8 CL   UNL d   1      45.086  28.360  56.295  0.00  0.00    -0.082 Cl
ATOM      9  C   UNL d   1      45.045  26.986  56.700  0.00  0.00     0.011 A 
ATOM     10  C   UNL d   1      45.047  26.419  57.301  0.00  0.00     0.001 A 
ATOM     11  C   UNL d   1      45.091  26.660  58.089  0.00  0.00     0.000 A 
ATOM     12  C   UNL d   1      45.134  27.458  58.283  0.00  0.00     0.001 A 
ENDBRANCH   5   6
ENDBRANCH   4   5
ENDBRANCH   1   4
BRANCH   2  13
ATOM     13  C   UNL d   1      44.704  30.310  60.375  0.00  0.00     0.135 A 
ATOM     14  C   UNL d   1      44.815  29.743  60.968  0.00  0.00     0.034 A 
ATOM     15  C   UNL d   1      44.705  29.954  61.755  0.00  0.00     0.020 A 
ATOM     16  C   UNL d   1      44.483  30.733  61.951  0.00  0.00     0.064 A 
ATOM     17  C   UNL d   1      44.373  31.293  61.358  0.00  0.00     0.020 A 
ATOM     18  C   UNL d   1      44.484  31.081  60.570  0.00  0.00     0.034 A 
BRANCH  16  19
ATOM     19  N   UNL d   1      44.372  30.942  62.748  0.00  0.00    -0.301 N 
ATOM     20  C   UNL d   1      44.314  31.741  62.956  0.00  0.00     0.100 C 
ATOM     21  C   UNL d   1      44.321  30.354  63.323  0.00  0.00     0.100 C 
ENDBRANCH  16  19
ENDBRANCH   2  13
TORSDOF 5
ENDMDL
MODEL 9
REMARK VINA RESULT:      -5.5      9.779     11.080
REMARK  5 active torsions:
REMARK  status: ('A' for Active; 'I' for Inactive)
REMARK    1  A    between atoms: C_3  and  C_1 
REMARK    2  A    between atoms: C_6  and  C_1 
REMARK    3  A    between atoms: C_2  and  C_3 
REMARK       I    between atoms: N_4  and  C_2 
REMARK    4  A    between atoms: C_12  and  N_4 
REMARK    5  A    between atoms: N_7  and  C_5 
ROOT
ATOM      1  C   UNL d   1      44.976  27.795  58.220  0.00  0.00     0.328 C 
ATOM      2  N   UNL d   1      44.890  27.100  57.787  0.00  0.00    -0.365 NA
ATOM      3  O   UNL d   1      45.143  27.761  59.028  0.00  0.00    -0.251 OA
ENDROOT
BRANCH   1   4
ATOM      4  C   UNL d   1      44.896  28.524  57.846  0.00  0.00     0.076 C 
BRANCH   4   5
ATOM      5  C   UNL d   1      45.021  29.219  58.271  0.00  0.00     0.007 C 
BRANCH   5   6
ATOM      6  C   UNL d   1      44.897  29.952  57.909  0.00  0.00     0.011 A 
ATOM      7  C   UNL d   1      45.000  30.651  58.344  0.00  0.00     0.058 A 
ATOM      8 CL   UNL d   1      45.228  30.615  59.135  0.00  0.00    -0.082 Cl
ATOM      9  C   UNL d   1      44.875  31.386  57.980  0.00  0.00     0.011 A 
ATOM     10  C   UNL d   1      44.647  31.419  57.186  0.00  0.00     0.001 A 
ATOM     11  C   UNL d   1      44.546  30.719  56.761  0.00  0.00     0.000 A 
ATOM     12  C   UNL d   1      44.670  29.988  57.119  0.00  0.00     0.001 A 
ENDBRANCH   5   6
ENDBRANCH   4   5
ENDBRANCH   1   4
BRANCH   2  13
ATOM     13  C   UNL d   1      44.803  26.406  57.354  0.00  0.00     0.135 A 
ATOM     14  C   UNL d   1      45.022  26.394  56.556  0.00  0.00     0.034 A 
ATOM     15  C   UNL d   1      44.936  25.700  56.123  0.00  0.00     0.020 A 
ATOM     16  C   UNL d   1      44.630  25.016  56.488  0.00  0.00     0.064 A 
ATOM     17  C   UNL d   1      44.414  25.033  57.282  0.00  0.00     0.020 A 
ATOM     18  C   UNL d   1      44.500  25.729  57.715  0.00  0.00     0.034 A 
BRANCH  16  19
ATOM     19  N   UNL d   1      44.544  24.317  56.048  0.00  0.00    -0.301 N 
ATOM     20  C   UNL d   1      44.429  23.597  56.441  0.00  0.00     0.100 C 
ATOM     21  C   UNL d   1      44.574  24.344  55.224  0.00  0.00     0.100 C 
ENDBRANCH  16  19
ENDBRANCH   2  13
TORSDOF 5
ENDMDL
