MODEL 1
REMARK VINA RESULT:      19.6      0.000      0.000
REMARK  9 active torsions:
REMARK  status: ('A' for Active; 'I' for Inactive)
REMARK    1  A    between atoms: C_14  and  N_1 
REMARK    2  A    between atoms: S_6  and  C_2 
REMARK    3  A    between atoms: C_8  and  C_3 
REMARK    4  A    between atoms: C_16  and  S_6 
REMARK    5  A    between atoms: O_11  and  C_8 
REMARK    6  A    between atoms: C_9  and  C_16 
REMARK    7  A    between atoms: O_19  and  C_9 
REMARK    8  A    between atoms: C_12  and  O_11 
REMARK    9  A    between atoms: C_15  and  C_14 
ROOT
ATOM      1  N   UNL d   1      45.766 -15.478  44.285  0.00  0.00    -0.266 N 
ATOM      2  C   UNL d   1      45.846 -14.775  43.870  0.00  0.00     0.202 A 
ATOM      3  C   UNL d   1      46.251 -16.041  43.924  0.00  0.00     0.196 A 
ATOM      4  N   UNL d   1      46.377 -14.899  43.253  0.00  0.00    -0.121 NA
ATOM      5  N   UNL d   1      46.629 -15.687  43.287  0.00  0.00    -0.126 NA
ENDROOT
BRANCH   3   6
ATOM      6  C   UNL d   1      46.341 -16.826  44.161  0.00  0.00     0.162 C 
BRANCH   6   7
ATOM      7  O   UNL d   1      45.997 -17.434  43.718  0.00  0.00    -0.300 OA
BRANCH   7   8
ATOM      8  C   UNL d   1      46.099 -18.222  43.943  0.00  0.00     0.118 A 
ATOM      9  C   UNL d   1      46.254 -18.790  43.373  0.00  0.00     0.104 A 
ATOM     10  N   UNL d   1      46.307 -18.573  42.577  0.00  0.00    -0.242 NA
ATOM     11  C   UNL d   1      46.356 -19.578  43.590  0.00  0.00     0.020 A 
ATOM     12  C   UNL d   1      46.461 -19.140  42.007  0.00  0.00     0.099 A 
ATOM     13  C   UNL d   1      46.566 -19.935  42.219  0.00  0.00     0.021 A 
ATOM     14  C   UNL d   1      46.512 -20.148  43.014  0.00  0.00     0.003 A 
ATOM     15  C   UNL d   1      46.304 -19.799  44.384  0.00  0.00     0.002 A 
ATOM     16  C   UNL d   1      46.148 -19.223  44.955  0.00  0.00     0.002 A 
ATOM     17  C   UNL d   1      46.047 -18.444  44.739  0.00  0.00     0.026 A 
ENDBRANCH   7   8
ENDBRANCH   6   7
ENDBRANCH   3   6
BRANCH   1  18
ATOM     18  C   UNL d   1      45.292 -15.603  44.942  0.00  0.00     0.084 C 
BRANCH  18  19
ATOM     19  C   UNL d   1      44.471 -15.555  44.868  0.00  0.00     0.019 C 
ATOM     20  C   UNL d   1      44.013 -16.234  44.942  0.00  0.00     0.002 C 
ENDBRANCH  18  19
ENDBRANCH   1  18
BRANCH   2  21
ATOM     21  S   UNL d   1      45.466 -14.068  44.035  0.00  0.00    -0.042 SA
BRANCH  21  22
ATOM     22  C   UNL d   1      45.587 -13.402  43.563  0.00  0.00     0.107 C 
BRANCH  22  23
ATOM     23  C   UNL d   1      45.248 -12.681  43.761  0.00  0.00     0.303 C 
ATOM     24  O   UNL d   1      45.649 -12.157  44.263  0.00  0.00    -0.259 OA
BRANCH  23  25
ATOM     25  O   UNL d   1      44.508 -12.470  43.464  0.00  0.00    -0.295 OA
ATOM     26  C   UNL d   1      44.426 -12.213  42.687  0.00  0.00     0.185 C 
ENDBRANCH  23  25
ENDBRANCH  22  23
ENDBRANCH  21  22
ENDBRANCH   2  21
TORSDOF 9
ENDMDL
