MODEL 1
REMARK VINA RESULT:      -8.4      0.000      0.000
REMARK  4 active torsions:
REMARK  status: ('A' for Active; 'I' for Inactive)
REMARK    1  A    between atoms: C_9  and  C_2 
REMARK    2  A    between atoms: C_7  and  C_9 
REMARK       I    between atoms: N_13  and  C_7 
REMARK    3  A    between atoms: C_10  and  C_19 
REMARK    4  A    between atoms: C_19  and  N_13 
ROOT
ATOM      1  C   UNL d   1     -48.920  13.122  22.962  0.00  0.00     0.100 A 
ATOM      2  C   UNL d   1     -47.649  12.764  23.133  0.00  0.00     0.032 A 
ATOM      3  O   UNL d   1     -48.444  13.743  22.720  0.00  0.00    -0.305 OA
ATOM      4  C   UNL d   1     -48.429  12.508  23.221  0.00  0.00     0.025 A 
ATOM      5  C   UNL d   1     -47.650  13.523  22.825  0.00  0.00     0.123 A 
ATOM      6  C   UNL d   1     -49.742  13.034  22.981  0.00  0.00     0.023 A 
ATOM      7  C   UNL d   1     -48.759  11.811  23.497  0.00  0.00     0.002 A 
ATOM      8  C   UNL d   1     -50.073  12.327  23.261  0.00  0.00     0.002 A 
ATOM      9  C   UNL d   1     -49.577  11.716  23.519  0.00  0.00     0.000 A 
ATOM     10  C   UNL d   1     -50.231  13.640  22.725  0.00  0.00     0.002 C 
ATOM     11  C   UNL d   1     -50.886  12.235  23.282  0.00  0.00     0.000 C 
ENDROOT
BRANCH   2  12
ATOM     12  C   UNL d   1     -46.969  12.328  23.324  0.00  0.00     0.065 C 
BRANCH  12  13
ATOM     13  C   UNL d   1     -46.231  12.691  23.351  0.00  0.00     0.279 C 
ATOM     14  N   UNL d   1     -45.549  12.236  23.337  0.00  0.00    -0.204 NA
ATOM     15  O   UNL d   1     -46.179  13.512  23.394  0.00  0.00    -0.265 OA
BRANCH  14  16
ATOM     16  C   UNL d   1     -45.589  11.416  23.295  0.00  0.00     0.127 C 
BRANCH  16  17
ATOM     17  C   UNL d   1     -44.913  10.958  23.366  0.00  0.00     0.119 A 
ATOM     18  O   UNL d   1     -44.160  11.163  23.129  0.00  0.00    -0.304 OA
ATOM     19  C   UNL d   1     -43.650  10.534  23.308  0.00  0.00     0.123 A 
ATOM     20  C   UNL d   1     -44.096   9.934  23.660  0.00  0.00     0.029 A 
ATOM     21  C   UNL d   1     -44.879  10.193  23.697  0.00  0.00     0.028 A 
ENDBRANCH  16  17
ENDBRANCH  14  16
ENDBRANCH  12  13
ENDBRANCH   2  12
TORSDOF 4
ENDMDL
MODEL 2
REMARK VINA RESULT:      -7.6      1.603      1.949
REMARK  4 active torsions:
REMARK  status: ('A' for Active; 'I' for Inactive)
REMARK    1  A    between atoms: C_9  and  C_2 
REMARK    2  A    between atoms: C_7  and  C_9 
REMARK       I    between atoms: N_13  and  C_7 
REMARK    3  A    between atoms: C_10  and  C_19 
REMARK    4  A    between atoms: C_19  and  N_13 
ROOT
ATOM      1  C   UNL d   1     -48.707  12.399  22.784  0.00  0.00     0.100 A 
ATOM      2  C   UNL d   1     -47.431  12.753  22.649  0.00  0.00     0.032 A 
ATOM      3  O   UNL d   1     -48.296  12.134  23.441  0.00  0.00    -0.305 OA
ATOM      4  C   UNL d   1     -48.171  12.786  22.286  0.00  0.00     0.025 A 
ATOM      5  C   UNL d   1     -47.500  12.353  23.360  0.00  0.00     0.123 A 
ATOM      6  C   UNL d   1     -49.504  12.338  22.572  0.00  0.00     0.023 A 
ATOM      7  C   UNL d   1     -48.432  13.110  21.579  0.00  0.00     0.002 A 
ATOM      8  C   UNL d   1     -49.765  12.667  21.856  0.00  0.00     0.002 A 
ATOM      9  C   UNL d   1     -49.224  13.053  21.361  0.00  0.00     0.000 A 
ATOM     10  C   UNL d   1     -50.037  11.955  23.064  0.00  0.00     0.002 C 
ATOM     11  C   UNL d   1     -50.553  12.609  21.642  0.00  0.00     0.000 C 
ENDROOT
BRANCH   2  12
ATOM     12  C   UNL d   1     -46.726  13.071  22.347  0.00  0.00     0.065 C 
BRANCH  12  13
ATOM     13  C   UNL d   1     -46.146  13.363  22.852  0.00  0.00     0.279 C 
ATOM     14  N   UNL d   1     -45.353  13.266  22.667  0.00  0.00    -0.204 NA
ATOM     15  O   UNL d   1     -46.363  13.752  23.544  0.00  0.00    -0.265 OA
BRANCH  14  16
ATOM     16  C   UNL d   1     -45.125  12.879  21.979  0.00  0.00     0.127 C 
BRANCH  16  17
ATOM     17  C   UNL d   1     -44.333  12.740  21.817  0.00  0.00     0.119 A 
ATOM     18  O   UNL d   1     -43.865  12.160  22.148  0.00  0.00    -0.304 OA
ATOM     19  C   UNL d   1     -43.104  12.223  21.825  0.00  0.00     0.123 A 
ATOM     20  C   UNL d   1     -43.104  12.850  21.288  0.00  0.00     0.029 A 
ATOM     21  C   UNL d   1     -43.864  13.173  21.281  0.00  0.00     0.028 A 
ENDBRANCH  16  17
ENDBRANCH  14  16
ENDBRANCH  12  13
ENDBRANCH   2  12
TORSDOF 4
ENDMDL
MODEL 3
REMARK VINA RESULT:      -6.6      1.303      2.066
REMARK  4 active torsions:
REMARK  status: ('A' for Active; 'I' for Inactive)
REMARK    1  A    between atoms: C_9  and  C_2 
REMARK    2  A    between atoms: C_7  and  C_9 
REMARK       I    between atoms: N_13  and  C_7 
REMARK    3  A    between atoms: C_10  and  C_19 
REMARK    4  A    between atoms: C_19  and  N_13 
ROOT
ATOM      1  C   UNL d   1     -49.873  13.518  22.446  0.00  0.00     0.100 A 
ATOM      2  C   UNL d   1     -49.014  12.635  22.950  0.00  0.00     0.032 A 
ATOM      3  O   UNL d   1     -50.045  12.783  22.128  0.00  0.00    -0.305 OA
ATOM      4  C   UNL d   1     -49.230  13.431  22.960  0.00  0.00     0.025 A 
ATOM      5  C   UNL d   1     -49.511  12.229  22.440  0.00  0.00     0.123 A 
ATOM      6  C   UNL d   1     -50.220  14.260  22.334  0.00  0.00     0.023 A 
ATOM      7  C   UNL d   1     -48.936  14.084  23.359  0.00  0.00     0.002 A 
ATOM      8  C   UNL d   1     -49.921  14.918  22.740  0.00  0.00     0.002 A 
ATOM      9  C   UNL d   1     -49.277  14.826  23.253  0.00  0.00     0.000 A 
ATOM     10  C   UNL d   1     -50.858  14.349  21.826  0.00  0.00     0.002 C 
ATOM     11  C   UNL d   1     -50.261  15.656  22.633  0.00  0.00     0.000 C 
ENDROOT
BRANCH   2  12
ATOM     12  C   UNL d   1     -48.393  12.293  23.383  0.00  0.00     0.065 C 
BRANCH  12  13
ATOM     13  C   UNL d   1     -48.321  11.476  23.441  0.00  0.00     0.279 C 
ATOM     14  N   UNL d   1     -47.580  11.133  23.514  0.00  0.00    -0.204 NA
ATOM     15  O   UNL d   1     -48.995  11.002  23.426  0.00  0.00    -0.265 OA
BRANCH  14  16
ATOM     16  C   UNL d   1     -46.901  11.595  23.530  0.00  0.00     0.127 C 
BRANCH  16  17
ATOM     17  C   UNL d   1     -46.157  11.250  23.547  0.00  0.00     0.119 A 
ATOM     18  O   UNL d   1     -45.445  11.627  23.420  0.00  0.00    -0.304 OA
ATOM     19  C   UNL d   1     -44.838  11.066  23.490  0.00  0.00     0.123 A 
ATOM     20  C   UNL d   1     -45.182  10.335  23.662  0.00  0.00     0.029 A 
ATOM     21  C   UNL d   1     -46.000  10.446  23.698  0.00  0.00     0.028 A 
ENDBRANCH  16  17
ENDBRANCH  14  16
ENDBRANCH  12  13
ENDBRANCH   2  12
TORSDOF 4
ENDMDL
MODEL 4
REMARK VINA RESULT:      -6.5      1.741      5.071
REMARK  4 active torsions:
REMARK  status: ('A' for Active; 'I' for Inactive)
REMARK    1  A    between atoms: C_9  and  C_2 
REMARK    2  A    between atoms: C_7  and  C_9 
REMARK       I    between atoms: N_13  and  C_7 
REMARK    3  A    between atoms: C_10  and  C_19 
REMARK    4  A    between atoms: C_19  and  N_13 
ROOT
ATOM      1  C   UNL d   1     -46.012  12.286  23.021  0.00  0.00     0.100 A 
ATOM      2  C   UNL d   1     -47.226  12.790  23.233  0.00  0.00     0.032 A 
ATOM      3  O   UNL d   1     -46.410  11.789  23.537  0.00  0.00    -0.305 OA
ATOM      4  C   UNL d   1     -46.517  12.912  22.829  0.00  0.00     0.025 A 
ATOM      5  C   UNL d   1     -47.168  12.100  23.671  0.00  0.00     0.123 A 
ATOM      6  C   UNL d   1     -45.251  12.250  22.700  0.00  0.00     0.023 A 
ATOM      7  C   UNL d   1     -46.261  13.500  22.317  0.00  0.00     0.002 A 
ATOM      8  C   UNL d   1     -44.995  12.846  22.183  0.00  0.00     0.002 A 
ATOM      9  C   UNL d   1     -45.505  13.471  21.993  0.00  0.00     0.000 A 
ATOM     10  C   UNL d   1     -44.749  11.630  22.889  0.00  0.00     0.002 C 
ATOM     11  C   UNL d   1     -44.242  12.815  21.862  0.00  0.00     0.000 C 
ENDROOT
BRANCH   2  12
ATOM     12  C   UNL d   1     -47.894  13.282  23.205  0.00  0.00     0.065 C 
BRANCH  12  13
ATOM     13  C   UNL d   1     -48.648  12.974  23.322  0.00  0.00     0.279 C 
ATOM     14  N   UNL d   1     -49.291  13.478  23.394  0.00  0.00    -0.204 NA
ATOM     15  O   UNL d   1     -48.756  12.159  23.366  0.00  0.00    -0.265 OA
BRANCH  14  16
ATOM     16  C   UNL d   1     -49.195  14.293  23.351  0.00  0.00     0.127 C 
BRANCH  16  17
ATOM     17  C   UNL d   1     -49.828  14.799  23.480  0.00  0.00     0.119 A 
ATOM     18  O   UNL d   1     -50.607  14.584  23.584  0.00  0.00    -0.304 OA
ATOM     19  C   UNL d   1     -51.055  15.273  23.697  0.00  0.00     0.123 A 
ATOM     20  C   UNL d   1     -50.543  15.920  23.662  0.00  0.00     0.029 A 
ATOM     21  C   UNL d   1     -49.782  15.630  23.528  0.00  0.00     0.028 A 
ENDBRANCH  16  17
ENDBRANCH  14  16
ENDBRANCH  12  13
ENDBRANCH   2  12
TORSDOF 4
ENDMDL
MODEL 5
REMARK VINA RESULT:      -5.7      7.885      8.874
REMARK  4 active torsions:
REMARK  status: ('A' for Active; 'I' for Inactive)
REMARK    1  A    between atoms: C_9  and  C_2 
REMARK    2  A    between atoms: C_7  and  C_9 
REMARK       I    between atoms: N_13  and  C_7 
REMARK    3  A    between atoms: C_10  and  C_19 
REMARK    4  A    between atoms: C_19  and  N_13 
ROOT
ATOM      1  C   UNL d   1     -40.541  15.364  18.299  0.00  0.00     0.100 A 
ATOM      2  C   UNL d   1     -40.454  15.004  19.578  0.00  0.00     0.032 A 
ATOM      3  O   UNL d   1     -40.937  15.922  18.750  0.00  0.00    -0.305 OA
ATOM      4  C   UNL d   1     -40.238  14.789  18.811  0.00  0.00     0.025 A 
ATOM      5  C   UNL d   1     -40.885  15.701  19.548  0.00  0.00     0.123 A 
ATOM      6  C   UNL d   1     -40.416  15.304  17.484  0.00  0.00     0.023 A 
ATOM      7  C   UNL d   1     -39.812  14.157  18.509  0.00  0.00     0.002 A 
ATOM      8  C   UNL d   1     -39.985  14.663  17.181  0.00  0.00     0.002 A 
ATOM      9  C   UNL d   1     -39.684  14.090  17.698  0.00  0.00     0.000 A 
ATOM     10  C   UNL d   1     -40.715  15.872  16.974  0.00  0.00     0.002 C 
ATOM     11  C   UNL d   1     -39.858  14.599  16.374  0.00  0.00     0.000 C 
ENDROOT
BRANCH   2  12
ATOM     12  C   UNL d   1     -40.269  14.587  20.272  0.00  0.00     0.065 C 
BRANCH  12  13
ATOM     13  C   UNL d   1     -40.560  14.833  21.000  0.00  0.00     0.279 C 
ATOM     14  N   UNL d   1     -40.144  14.664  21.687  0.00  0.00    -0.204 NA
ATOM     15  O   UNL d   1     -41.269  15.251  21.040  0.00  0.00    -0.265 OA
BRANCH  14  16
ATOM     16  C   UNL d   1     -39.436  14.249  21.660  0.00  0.00     0.127 C 
BRANCH  16  17
ATOM     17  C   UNL d   1     -39.029  14.066  22.348  0.00  0.00     0.119 A 
ATOM     18  O   UNL d   1     -38.747  14.596  22.900  0.00  0.00    -0.304 OA
ATOM     19  C   UNL d   1     -38.371  14.168  23.503  0.00  0.00     0.123 A 
ATOM     20  C   UNL d   1     -38.424  13.365  23.320  0.00  0.00     0.029 A 
ATOM     21  C   UNL d   1     -38.831  13.298  22.604  0.00  0.00     0.028 A 
ENDBRANCH  16  17
ENDBRANCH  14  16
ENDBRANCH  12  13
ENDBRANCH   2  12
TORSDOF 4
ENDMDL
MODEL 6
REMARK VINA RESULT:      -5.5      8.305     10.496
REMARK  4 active torsions:
REMARK  status: ('A' for Active; 'I' for Inactive)
REMARK    1  A    between atoms: C_9  and  C_2 
REMARK    2  A    between atoms: C_7  and  C_9 
REMARK       I    between atoms: N_13  and  C_7 
REMARK    3  A    between atoms: C_10  and  C_19 
REMARK    4  A    between atoms: C_19  and  N_13 
ROOT
ATOM      1  C   UNL d   1     -38.818  14.273  16.533  0.00  0.00     0.100 A 
ATOM      2  C   UNL d   1     -39.573  14.500  17.607  0.00  0.00     0.032 A 
ATOM      3  O   UNL d   1     -38.950  13.558  16.911  0.00  0.00    -0.305 OA
ATOM      4  C   UNL d   1     -39.205  14.864  16.964  0.00  0.00     0.025 A 
ATOM      5  C   UNL d   1     -39.420  13.696  17.581  0.00  0.00     0.123 A 
ATOM      6  C   UNL d   1     -38.395  14.464  15.850  0.00  0.00     0.023 A 
ATOM      7  C   UNL d   1     -39.168  15.643  16.711  0.00  0.00     0.002 A 
ATOM      8  C   UNL d   1     -38.358  15.253  15.597  0.00  0.00     0.002 A 
ATOM      9  C   UNL d   1     -38.747  15.842  16.031  0.00  0.00     0.000 A 
ATOM     10  C   UNL d   1     -38.010  13.880  15.422  0.00  0.00     0.002 C 
ATOM     11  C   UNL d   1     -37.940  15.448  14.920  0.00  0.00     0.000 C 
ENDROOT
BRANCH   2  12
ATOM     12  C   UNL d   1     -40.026  14.881  18.189  0.00  0.00     0.065 C 
BRANCH  12  13
ATOM     13  C   UNL d   1     -40.489  14.447  18.711  0.00  0.00     0.279 C 
ATOM     14  N   UNL d   1     -40.582  14.700  19.486  0.00  0.00    -0.204 NA
ATOM     15  O   UNL d   1     -40.861  13.758  18.455  0.00  0.00    -0.265 OA
BRANCH  14  16
ATOM     16  C   UNL d   1     -40.216  15.386  19.752  0.00  0.00     0.127 C 
BRANCH  16  17
ATOM     17  C   UNL d   1     -40.237  15.593  20.546  0.00  0.00     0.119 A 
ATOM     18  O   UNL d   1     -39.594  15.704  21.035  0.00  0.00    -0.304 OA
ATOM     19  C   UNL d   1     -39.872  15.907  21.789  0.00  0.00     0.123 A 
ATOM     20  C   UNL d   1     -40.698  15.922  21.763  0.00  0.00     0.029 A 
ATOM     21  C   UNL d   1     -40.927  15.728  20.994  0.00  0.00     0.028 A 
ENDBRANCH  16  17
ENDBRANCH  14  16
ENDBRANCH  12  13
ENDBRANCH   2  12
TORSDOF 4
ENDMDL
