MODEL 1
REMARK VINA RESULT:      33.4      0.000      0.000
REMARK  4 active torsions:
REMARK  status: ('A' for Active; 'I' for Inactive)
REMARK    1  A    between atoms: C_8  and  C_1 
REMARK    2  A    between atoms: C_6  and  C_16 
REMARK    3  A    between atoms: O_13  and  C_8 
REMARK    4  A    between atoms: C_16  and  O_13 
ROOT
ATOM      1  C   UNL d   1      15.033  12.615  -0.623  0.00  0.00     0.305 C 
ATOM      2  O   UNL d   1      15.715  12.144  -0.493  0.00  0.00    -0.259 OA
ENDROOT
BRANCH   1   3
ATOM      3  C   UNL d   1      14.433  12.388  -1.214  0.00  0.00     0.127 A 
ATOM      4  C   UNL d   1      13.739  11.985  -0.966  0.00  0.00     0.305 A 
ATOM      5  O   UNL d   1      13.207  11.792  -1.542  0.00  0.00    -0.273 OA
ATOM      6  O   UNL d   1      13.607  11.795  -0.177  0.00  0.00    -0.259 OA
ATOM      7  C   UNL d   1      13.328  11.974  -2.322  0.00  0.00     0.103 A 
ATOM      8  C   UNL d   1      14.021  12.375  -2.549  0.00  0.00     0.023 A 
ATOM      9  C   UNL d   1      12.794  11.781  -2.901  0.00  0.00     0.025 A 
ATOM     10  C   UNL d   1      14.583  12.584  -1.974  0.00  0.00     0.013 A 
ATOM     11  C   UNL d   1      14.171  12.573  -3.334  0.00  0.00     0.002 A 
ATOM     12  C   UNL d   1      13.605  12.360  -3.895  0.00  0.00     0.000 A 
ATOM     13  C   UNL d   1      12.915  11.964  -3.686  0.00  0.00     0.002 A 
ENDBRANCH   1   3
BRANCH   1  14
ATOM     14  O   UNL d   1      14.929  13.294  -0.192  0.00  0.00    -0.269 OA
BRANCH  14  15
ATOM     15  C   UNL d   1      15.526  13.819  -0.099  0.00  0.00     0.152 C 
BRANCH  15  16
ATOM     16  C   UNL d   1      15.424  14.605  -0.353  0.00  0.00     0.136 A 
ATOM     17  N   UNL d   1      14.915  14.923  -0.911  0.00  0.00    -0.236 NA
ATOM     18  C   UNL d   1      15.057  15.732  -0.933  0.00  0.00     0.088 A 
ATOM     19  C   UNL d   1      14.722  16.342  -1.379  0.00  0.00     0.020 A 
ATOM     20  C   UNL d   1      15.653  15.892  -0.384  0.00  0.00     0.049 A 
ATOM     21  C   UNL d   1      14.974  17.133  -1.290  0.00  0.00     0.002 A 
ATOM     22  C   UNL d   1      15.564  17.271  -0.743  0.00  0.00     0.001 A 
ATOM     23  C   UNL d   1      15.912  16.659  -0.284  0.00  0.00     0.008 A 
ATOM     24  S   UNL d   1      15.870  15.200  -0.036  0.00  0.00    -0.064 SA
ENDBRANCH  15  16
ENDBRANCH  14  15
ENDBRANCH   1  14
TORSDOF 4
ENDMDL
