MODEL 1
REMARK VINA RESULT:      -5.3      0.000      0.000
REMARK  3 active torsions:
REMARK  status: ('A' for Active; 'I' for Inactive)
REMARK    1  A    between atoms: S_5  and  C_1 
REMARK    2  A    between atoms: C_11  and  S_5 
REMARK    3  A    between atoms: C_9  and  C_11 
ROOT
ATOM      1  C   UNL d   1     -41.197-122.436 -51.039  0.00  0.00     0.068 A 
ATOM      2  C   UNL d   1     -41.156-123.231 -50.826  0.00  0.00     0.068 A 
ATOM      3  C   UNL d   1     -41.204-122.222 -51.832  0.00  0.00     0.013 A 
ATOM      4  C   UNL d   1     -41.123-123.811 -51.411  0.00  0.00     0.012 A 
ATOM      5  C   UNL d   1     -41.170-122.800 -52.409  0.00  0.00     0.007 A 
ATOM      6 CL   UNL d   1     -41.231-121.850 -50.452  0.00  0.00    -0.082 Cl
ATOM      7 CL   UNL d   1     -41.149-123.454 -50.029  0.00  0.00    -0.082 Cl
ATOM      8  C   UNL d   1     -41.130-123.597 -52.205  0.00  0.00     0.001 A 
ENDROOT
BRANCH   5   9
ATOM      9  C   UNL d   1     -41.177-122.585 -53.208  0.00  0.00     0.038 C 
BRANCH   9  10
ATOM     10  S   UNL d   1     -41.629-122.945 -53.806  0.00  0.00    -0.048 SA
BRANCH  10  11
ATOM     11  C   UNL d   1     -41.797-122.524 -54.509  0.00  0.00     0.194 A 
ATOM     12  N   UNL d   1     -41.244-122.268 -55.065  0.00  0.00    -0.218 NA
ATOM     13  C   UNL d   1     -41.651-121.876 -55.672  0.00  0.00     0.122 A 
ATOM     14  C   UNL d   1     -42.460-121.891 -55.486  0.00  0.00     0.122 A 
ATOM     15  N   UNL d   1     -42.548-122.291 -54.769  0.00  0.00    -0.218 NA
ENDBRANCH  10  11
ENDBRANCH   9  10
ENDBRANCH   5   9
TORSDOF 3
ENDMDL
MODEL 2
REMARK VINA RESULT:      -4.5      1.558      2.057
REMARK  3 active torsions:
REMARK  status: ('A' for Active; 'I' for Inactive)
REMARK    1  A    between atoms: S_5  and  C_1 
REMARK    2  A    between atoms: C_11  and  S_5 
REMARK    3  A    between atoms: C_9  and  C_11 
ROOT
ATOM      1  C   UNL d   1     -42.373-122.925 -49.393  0.00  0.00     0.068 A 
ATOM      2  C   UNL d   1     -41.753-123.286 -48.988  0.00  0.00     0.068 A 
ATOM      3  C   UNL d   1     -42.368-122.899 -50.215  0.00  0.00     0.013 A 
ATOM      4  C   UNL d   1     -41.127-123.622 -49.409  0.00  0.00     0.012 A 
ATOM      5  C   UNL d   1     -41.747-123.232 -50.628  0.00  0.00     0.007 A 
ATOM      6 CL   UNL d   1     -43.003-122.587 -48.973  0.00  0.00    -0.082 Cl
ATOM      7 CL   UNL d   1     -41.751-123.316 -48.161  0.00  0.00    -0.082 Cl
ATOM      8  C   UNL d   1     -41.123-123.595 -50.230  0.00  0.00     0.001 A 
ENDROOT
BRANCH   5   9
ATOM      9  C   UNL d   1     -41.741-123.206 -51.455  0.00  0.00     0.038 C 
BRANCH   9  10
ATOM     10  S   UNL d   1     -41.128-122.906 -51.930  0.00  0.00    -0.048 SA
BRANCH  10  11
ATOM     11  C   UNL d   1     -41.192-122.943 -52.762  0.00  0.00     0.194 A 
ATOM     12  N   UNL d   1     -41.242-123.630 -53.215  0.00  0.00    -0.218 NA
ATOM     13  C   UNL d   1     -41.298-123.411 -54.013  0.00  0.00     0.122 A 
ATOM     14  C   UNL d   1     -41.282-122.582 -54.050  0.00  0.00     0.122 A 
ATOM     15  N   UNL d   1     -41.216-122.295 -53.277  0.00  0.00    -0.218 NA
ENDBRANCH  10  11
ENDBRANCH   9  10
ENDBRANCH   5   9
TORSDOF 3
ENDMDL
MODEL 3
REMARK VINA RESULT:      -4.3      2.599      3.881
REMARK  3 active torsions:
REMARK  status: ('A' for Active; 'I' for Inactive)
REMARK    1  A    between atoms: S_5  and  C_1 
REMARK    2  A    between atoms: C_11  and  S_5 
REMARK    3  A    between atoms: C_9  and  C_11 
ROOT
ATOM      1  C   UNL d   1     -41.886-122.145 -54.173  0.00  0.00     0.068 A 
ATOM      2  C   UNL d   1     -41.521-122.779 -54.553  0.00  0.00     0.068 A 
ATOM      3  C   UNL d   1     -41.870-122.092 -53.353  0.00  0.00     0.013 A 
ATOM      4  C   UNL d   1     -41.140-123.359 -54.108  0.00  0.00     0.012 A 
ATOM      5  C   UNL d   1     -41.491-122.669 -52.916  0.00  0.00     0.007 A 
ATOM      6 CL   UNL d   1     -42.271-121.559 -54.618  0.00  0.00    -0.082 Cl
ATOM      7 CL   UNL d   1     -41.533-122.839 -55.378  0.00  0.00    -0.082 Cl
ATOM      8  C   UNL d   1     -41.124-123.306 -53.288  0.00  0.00     0.001 A 
ENDROOT
BRANCH   5   9
ATOM      9  C   UNL d   1     -41.475-122.616 -52.091  0.00  0.00     0.038 C 
BRANCH   9  10
ATOM     10  S   UNL d   1     -41.390-123.253 -51.562  0.00  0.00    -0.048 SA
BRANCH  10  11
ATOM     11  C   UNL d   1     -41.580-123.150 -50.755  0.00  0.00     0.194 A 
ATOM     12  N   UNL d   1     -41.125-123.398 -50.114  0.00  0.00    -0.218 NA
ATOM     13  C   UNL d   1     -41.520-123.183 -49.417  0.00  0.00     0.122 A 
ATOM     14  C   UNL d   1     -42.224-122.799 -49.633  0.00  0.00     0.122 A 
ATOM     15  N   UNL d   1     -42.258-122.780 -50.459  0.00  0.00    -0.218 NA
ENDBRANCH  10  11
ENDBRANCH   9  10
ENDBRANCH   5   9
TORSDOF 3
ENDMDL
MODEL 4
REMARK VINA RESULT:      -4.0      3.218      4.713
REMARK  3 active torsions:
REMARK  status: ('A' for Active; 'I' for Inactive)
REMARK    1  A    between atoms: S_5  and  C_1 
REMARK    2  A    between atoms: C_11  and  S_5 
REMARK    3  A    between atoms: C_9  and  C_11 
ROOT
ATOM      1  C   UNL d   1     -41.262-123.192 -52.145  0.00  0.00     0.068 A 
ATOM      2  C   UNL d   1     -41.172-122.399 -52.350  0.00  0.00     0.068 A 
ATOM      3  C   UNL d   1     -41.310-123.411 -51.354  0.00  0.00     0.013 A 
ATOM      4  C   UNL d   1     -41.131-121.826 -51.758  0.00  0.00     0.012 A 
ATOM      5  C   UNL d   1     -41.268-122.840 -50.771  0.00  0.00     0.007 A 
ATOM      6 CL   UNL d   1     -41.304-123.772 -52.738  0.00  0.00    -0.082 Cl
ATOM      7 CL   UNL d   1     -41.123-122.172 -53.143  0.00  0.00    -0.082 Cl
ATOM      8  C   UNL d   1     -41.179-122.044 -50.967  0.00  0.00     0.001 A 
ENDROOT
BRANCH   5   9
ATOM      9  C   UNL d   1     -41.316-123.060 -49.976  0.00  0.00     0.038 C 
BRANCH   9  10
ATOM     10  S   UNL d   1     -42.017-123.209 -49.552  0.00  0.00    -0.048 SA
BRANCH  10  11
ATOM     11  C   UNL d   1     -41.988-123.297 -48.722  0.00  0.00     0.194 A 
ATOM     12  N   UNL d   1     -42.455-122.894 -48.173  0.00  0.00    -0.218 NA
ATOM     13  C   UNL d   1     -42.242-123.151 -47.414  0.00  0.00     0.122 A 
ATOM     14  C   UNL d   1     -41.639-123.716 -47.496  0.00  0.00     0.122 A 
ATOM     15  N   UNL d   1     -41.484-123.804 -48.303  0.00  0.00    -0.218 NA
ENDBRANCH  10  11
ENDBRANCH   9  10
ENDBRANCH   5   9
TORSDOF 3
ENDMDL
