MODEL 1
REMARK VINA RESULT:      14.4      0.000      0.000
REMARK  2 active torsions:
REMARK  status: ('A' for Active; 'I' for Inactive)
REMARK    1  A    between atoms: C_8  and  C_6 
REMARK    2  A    between atoms: C_9  and  C_8 
ROOT
ATOM      1  N   UNL d   1     -50.774  24.462  33.307  0.00  0.00    -0.207 NA
ATOM      2  N   UNL d   1     -52.294  25.158  33.308  0.00  0.00    -0.240 NA
ATOM      3  C   UNL d   1     -51.532  24.142  33.307  0.00  0.00     0.297 A 
ATOM      4  C   UNL d   1     -50.545  25.253  33.307  0.00  0.00     0.086 A 
ATOM      5  C   UNL d   1     -51.848  25.849  33.308  0.00  0.00     0.083 A 
ATOM      6  C   UNL d   1     -52.031  24.382  33.308  0.00  0.00     0.144 A 
ATOM      7  C   UNL d   1     -51.024  25.929  33.308  0.00  0.00     0.035 A 
ATOM      8  O   UNL d   1     -51.532  23.366  33.307  0.00  0.00    -0.264 OA
ATOM      9  C   UNL d   1     -50.683  26.676  33.308  0.00  0.00     0.003 A 
ATOM     10  C   UNL d   1     -52.325  26.517  33.309  0.00  0.00     0.019 A 
ATOM     11  C   UNL d   1     -49.718  25.333  33.306  0.00  0.00     0.019 A 
ATOM     12  C   UNL d   1     -49.377  26.088  33.306  0.00  0.00     0.002 A 
ATOM     13  C   UNL d   1     -51.985  27.264  33.309  0.00  0.00     0.002 A 
ATOM     14  C   UNL d   1     -51.162  27.344  33.308  0.00  0.00     0.000 A 
ATOM     15  C   UNL d   1     -49.864  26.755  33.307  0.00  0.00     0.000 A 
ENDROOT
BRANCH   6  16
ATOM     16  C   UNL d   1     -52.372  23.631  33.307  0.00  0.00     0.088 C 
BRANCH  16  17
ATOM     17  C   UNL d   1     -53.081  23.482  33.724  0.00  0.00     0.299 C 
ATOM     18  O   UNL d   1     -53.800  23.586  33.341  0.00  0.00    -0.264 OA
ATOM     19  N   UNL d   1     -53.063  23.233  34.514  0.00  0.00    -0.102 N 
ENDBRANCH  16  17
ENDBRANCH   6  16
TORSDOF 2
ENDMDL
