MODEL 1
REMARK VINA RESULT:       1.8      0.000      0.000
REMARK  6 active torsions:
REMARK  status: ('A' for Active; 'I' for Inactive)
REMARK    1  A    between atoms: C_9  and  C_3 
REMARK    2  A    between atoms: C_4  and  C_18 
REMARK       I    between atoms: N_7  and  C_4 
REMARK    3  A    between atoms: S_11  and  C_5 
REMARK       I    between atoms: C_6  and  N_8 
REMARK    4  A    between atoms: C_12  and  N_7 
REMARK    5  A    between atoms: N_8  and  C_13 
REMARK    6  A    between atoms: C_18  and  S_11 
ROOT
ATOM      1  C   UNL d   1      56.309   0.072  32.787  0.00  0.00     0.099 C 
ENDROOT
BRANCH   1   2
ATOM      2  C   UNL d   1      55.669   0.082  33.303  0.00  0.00     0.286 C 
ATOM      3  N   UNL d   1      55.626   0.652  33.898  0.00  0.00    -0.207 NA
ATOM      4  O   UNL d   1      55.068  -0.478  33.226  0.00  0.00    -0.265 OA
BRANCH   3   5
ATOM      5  C   UNL d   1      54.982   0.662  34.417  0.00  0.00     0.086 A 
ATOM      6  C   UNL d   1      54.219   0.667  34.115  0.00  0.00     0.038 A 
ATOM      7  C   UNL d   1      53.576   0.677  34.633  0.00  0.00     0.086 A 
ATOM      8  C   UNL d   1      53.708   0.682  35.449  0.00  0.00     0.019 A 
ATOM      9  C   UNL d   1      54.481   0.677  35.738  0.00  0.00     0.003 A 
ATOM     10  C   UNL d   1      55.115   0.667  35.227  0.00  0.00     0.019 A 
BRANCH   7  11
ATOM     11  N   UNL d   1      52.806   0.681  34.337  0.00  0.00    -0.208 NA
ATOM     12  C   UNL d   1      52.164   0.675  34.850  0.00  0.00     0.279 C 
ATOM     13  O   UNL d   1      52.296   0.664  35.674  0.00  0.00    -0.265 OA
ATOM     14  C   UNL d   1      51.396   0.680  34.562  0.00  0.00     0.068 C 
ENDBRANCH   7  11
ENDBRANCH   3   5
ENDBRANCH   1   2
BRANCH   1  15
ATOM     15  S   UNL d   1      56.177   0.035  31.978  0.00  0.00    -0.061 SA
BRANCH  15  16
ATOM     16  C   UNL d   1      56.794  -0.148  31.462  0.00  0.00     0.133 A 
ATOM     17  N   UNL d   1      56.944  -0.924  31.250  0.00  0.00    -0.141 NA
ATOM     18  N   UNL d   1      57.561  -1.107  30.734  0.00  0.00    -0.148 NA
ATOM     19  C   UNL d   1      58.037  -0.502  30.424  0.00  0.00     0.104 A 
ATOM     20  C   UNL d   1      57.888   0.283  30.637  0.00  0.00     0.023 A 
ATOM     21  C   UNL d   1      57.271   0.462  31.152  0.00  0.00     0.029 A 
BRANCH  19  22
ATOM     22  C   UNL d   1      58.654  -0.685  29.908  0.00  0.00     0.039 A 
ATOM     23  C   UNL d   1      58.489  -0.879  29.135  0.00  0.00     0.101 A 
ATOM     24  N   UNL d   1      59.099  -1.061  28.620  0.00  0.00    -0.242 NA
ATOM     25  C   UNL d   1      59.886  -1.046  28.889  0.00  0.00     0.099 A 
ATOM     26  C   UNL d   1      60.047  -0.850  29.667  0.00  0.00     0.021 A 
ATOM     27  C   UNL d   1      59.435  -0.666  30.190  0.00  0.00     0.005 A 
ENDBRANCH  19  22
ENDBRANCH  15  16
ENDBRANCH   1  15
TORSDOF 6
ENDMDL
MODEL 2
REMARK VINA RESULT:       2.2      2.197      6.872
REMARK  6 active torsions:
REMARK  status: ('A' for Active; 'I' for Inactive)
REMARK    1  A    between atoms: C_9  and  C_3 
REMARK    2  A    between atoms: C_4  and  C_18 
REMARK       I    between atoms: N_7  and  C_4 
REMARK    3  A    between atoms: S_11  and  C_5 
REMARK       I    between atoms: C_6  and  N_8 
REMARK    4  A    between atoms: C_12  and  N_7 
REMARK    5  A    between atoms: N_8  and  C_13 
REMARK    6  A    between atoms: C_18  and  S_11 
ROOT
ATOM      1  C   UNL d   1      57.740  -0.135  31.054  0.00  0.00     0.099 C 
ENDROOT
BRANCH   1   2
ATOM      2  C   UNL d   1      58.117  -0.429  30.385  0.00  0.00     0.286 C 
ATOM      3  N   UNL d   1      58.785  -0.908  30.464  0.00  0.00    -0.207 NA
ATOM      4  O   UNL d   1      57.830  -0.246  29.634  0.00  0.00    -0.265 OA
BRANCH   3   5
ATOM      5  C   UNL d   1      59.164  -1.205  29.792  0.00  0.00     0.086 A 
ATOM      6  C   UNL d   1      59.057  -1.990  29.579  0.00  0.00     0.038 A 
ATOM      7  C   UNL d   1      59.436  -2.286  28.908  0.00  0.00     0.086 A 
ATOM      8  C   UNL d   1      59.919  -1.788  28.458  0.00  0.00     0.019 A 
ATOM      9  C   UNL d   1      60.017  -1.001  28.684  0.00  0.00     0.003 A 
ATOM     10  C   UNL d   1      59.644  -0.709  29.346  0.00  0.00     0.019 A 
BRANCH   7  11
ATOM     11  N   UNL d   1      59.333  -3.075  28.688  0.00  0.00    -0.208 NA
ATOM     12  C   UNL d   1      59.907  -3.634  28.867  0.00  0.00     0.279 C 
ATOM     13  O   UNL d   1      60.597  -3.399  29.274  0.00  0.00    -0.265 OA
ATOM     14  C   UNL d   1      59.811  -4.420  28.651  0.00  0.00     0.068 C 
ENDBRANCH   7  11
ENDBRANCH   3   5
ENDBRANCH   1   2
BRANCH   1  15
ATOM     15  S   UNL d   1      56.960  -0.342  31.203  0.00  0.00    -0.061 SA
BRANCH  15  16
ATOM     16  C   UNL d   1      56.614  -0.169  31.931  0.00  0.00     0.133 A 
ATOM     17  N   UNL d   1      56.821   0.509  32.341  0.00  0.00    -0.141 NA
ATOM     18  N   UNL d   1      56.475   0.682  33.070  0.00  0.00    -0.148 NA
ATOM     19  C   UNL d   1      55.913   0.167  33.395  0.00  0.00     0.104 A 
ATOM     20  C   UNL d   1      55.702  -0.519  32.984  0.00  0.00     0.023 A 
ATOM     21  C   UNL d   1      56.049  -0.688  32.257  0.00  0.00     0.029 A 
BRANCH  19  22
ATOM     22  C   UNL d   1      55.567   0.340  34.124  0.00  0.00     0.039 A 
ATOM     23  C   UNL d   1      56.040   0.482  34.771  0.00  0.00     0.101 A 
ATOM     24  N   UNL d   1      55.701   0.653  35.496  0.00  0.00    -0.242 NA
ATOM     25  C   UNL d   1      54.873   0.682  35.569  0.00  0.00     0.099 A 
ATOM     26  C   UNL d   1      54.402   0.539  34.916  0.00  0.00     0.021 A 
ATOM     27  C   UNL d   1      54.739   0.365  34.182  0.00  0.00     0.005 A 
ENDBRANCH  19  22
ENDBRANCH  15  16
ENDBRANCH   1  15
TORSDOF 6
ENDMDL
MODEL 3
REMARK VINA RESULT:       3.8      5.310      8.642
REMARK  6 active torsions:
REMARK  status: ('A' for Active; 'I' for Inactive)
REMARK    1  A    between atoms: C_9  and  C_3 
REMARK    2  A    between atoms: C_4  and  C_18 
REMARK       I    between atoms: N_7  and  C_4 
REMARK    3  A    between atoms: S_11  and  C_5 
REMARK       I    between atoms: C_6  and  N_8 
REMARK    4  A    between atoms: C_12  and  N_7 
REMARK    5  A    between atoms: N_8  and  C_13 
REMARK    6  A    between atoms: C_18  and  S_11 
ROOT
ATOM      1  C   UNL d   1      59.774  -4.570  28.485  0.00  0.00     0.099 C 
ENDROOT
BRANCH   1   2
ATOM      2  C   UNL d   1      60.111  -5.320  28.480  0.00  0.00     0.286 C 
ATOM      3  N   UNL d   1      59.630  -5.990  28.472  0.00  0.00    -0.207 NA
ATOM      4  O   UNL d   1      60.932  -5.405  28.484  0.00  0.00    -0.265 OA
BRANCH   3   5
ATOM      5  C   UNL d   1      59.969  -6.745  28.467  0.00  0.00     0.086 A 
ATOM      6  C   UNL d   1      59.484  -7.407  28.465  0.00  0.00     0.038 A 
ATOM      7  C   UNL d   1      59.822  -8.160  28.460  0.00  0.00     0.086 A 
ATOM      8  C   UNL d   1      60.645  -8.239  28.458  0.00  0.00     0.019 A 
ATOM      9  C   UNL d   1      61.120  -7.564  28.461  0.00  0.00     0.003 A 
ATOM     10  C   UNL d   1      60.786  -6.821  28.466  0.00  0.00     0.019 A 
BRANCH   7  11
ATOM     11  N   UNL d   1      59.341  -8.830  28.457  0.00  0.00    -0.208 NA
ATOM     12  C   UNL d   1      59.043  -9.130  29.161  0.00  0.00     0.279 C 
ATOM     13  O   UNL d   1      59.231  -8.752  29.882  0.00  0.00    -0.265 OA
ATOM     14  C   UNL d   1      58.564  -9.796  29.166  0.00  0.00     0.068 C 
ENDBRANCH   7  11
ENDBRANCH   3   5
ENDBRANCH   1   2
BRANCH   1  15
ATOM     15  S   UNL d   1      60.246  -3.915  28.633  0.00  0.00    -0.061 SA
BRANCH  15  16
ATOM     16  C   UNL d   1      59.908  -3.204  28.879  0.00  0.00     0.133 A 
ATOM     17  N   UNL d   1      60.226  -2.786  29.507  0.00  0.00    -0.141 NA
ATOM     18  N   UNL d   1      59.888  -2.075  29.753  0.00  0.00    -0.148 NA
ATOM     19  C   UNL d   1      59.219  -1.777  29.364  0.00  0.00     0.104 A 
ATOM     20  C   UNL d   1      58.895  -2.197  28.729  0.00  0.00     0.023 A 
ATOM     21  C   UNL d   1      59.235  -2.906  28.486  0.00  0.00     0.029 A 
BRANCH  19  22
ATOM     22  C   UNL d   1      58.881  -1.066  29.610  0.00  0.00     0.039 A 
ATOM     23  C   UNL d   1      58.182  -1.075  30.027  0.00  0.00     0.101 A 
ATOM     24  N   UNL d   1      57.843  -0.372  30.273  0.00  0.00    -0.242 NA
ATOM     25  C   UNL d   1      58.214   0.351  30.095  0.00  0.00     0.099 A 
ATOM     26  C   UNL d   1      58.916   0.355  29.675  0.00  0.00     0.021 A 
ATOM     27  C   UNL d   1      59.263  -0.352  29.425  0.00  0.00     0.005 A 
ENDBRANCH  19  22
ENDBRANCH  15  16
ENDBRANCH   1  15
TORSDOF 6
ENDMDL
MODEL 4
REMARK VINA RESULT:       4.3      5.779      8.197
REMARK  6 active torsions:
REMARK  status: ('A' for Active; 'I' for Inactive)
REMARK    1  A    between atoms: C_9  and  C_3 
REMARK    2  A    between atoms: C_4  and  C_18 
REMARK       I    between atoms: N_7  and  C_4 
REMARK    3  A    between atoms: S_11  and  C_5 
REMARK       I    between atoms: C_6  and  N_8 
REMARK    4  A    between atoms: C_12  and  N_7 
REMARK    5  A    between atoms: N_8  and  C_13 
REMARK    6  A    between atoms: C_18  and  S_11 
ROOT
ATOM      1  C   UNL d   1      57.980  -4.923  28.728  0.00  0.00     0.099 C 
ENDROOT
BRANCH   1   2
ATOM      2  C   UNL d   1      57.925  -5.743  28.713  0.00  0.00     0.286 C 
ATOM      3  N   UNL d   1      57.212  -6.106  28.511  0.00  0.00    -0.207 NA
ATOM      4  O   UNL d   1      58.582  -6.205  28.900  0.00  0.00    -0.265 OA
BRANCH   3   5
ATOM      5  C   UNL d   1      57.157  -6.931  28.495  0.00  0.00     0.086 A 
ATOM      6  C   UNL d   1      57.842  -7.383  28.487  0.00  0.00     0.038 A 
ATOM      7  C   UNL d   1      57.787  -8.207  28.471  0.00  0.00     0.086 A 
ATOM      8  C   UNL d   1      57.043  -8.567  28.465  0.00  0.00     0.019 A 
ATOM      9  C   UNL d   1      56.363  -8.100  28.474  0.00  0.00     0.003 A 
ATOM     10  C   UNL d   1      56.417  -7.287  28.489  0.00  0.00     0.019 A 
BRANCH   7  11
ATOM     11  N   UNL d   1      58.472  -8.668  28.462  0.00  0.00    -0.208 NA
ATOM     12  C   UNL d   1      58.620  -9.201  29.068  0.00  0.00     0.279 C 
ATOM     13  O   UNL d   1      58.074  -9.275  29.696  0.00  0.00    -0.265 OA
ATOM     14  C   UNL d   1      59.299  -9.662  29.066  0.00  0.00     0.068 C 
ENDBRANCH   7  11
ENDBRANCH   3   5
ENDBRANCH   1   2
BRANCH   1  15
ATOM     15  S   UNL d   1      58.680  -4.559  28.501  0.00  0.00    -0.061 SA
BRANCH  15  16
ATOM     16  C   UNL d   1      58.799  -3.756  28.644  0.00  0.00     0.133 A 
ATOM     17  N   UNL d   1      58.165  -3.237  28.660  0.00  0.00    -0.141 NA
ATOM     18  N   UNL d   1      58.284  -2.433  28.803  0.00  0.00    -0.148 NA
ATOM     19  C   UNL d   1      59.049  -2.143  28.933  0.00  0.00     0.104 A 
ATOM     20  C   UNL d   1      59.691  -2.664  28.917  0.00  0.00     0.023 A 
ATOM     21  C   UNL d   1      59.570  -3.465  28.774  0.00  0.00     0.029 A 
BRANCH  19  22
ATOM     22  C   UNL d   1      59.168  -1.339  29.076  0.00  0.00     0.039 A 
ATOM     23  C   UNL d   1      59.918  -1.064  29.233  0.00  0.00     0.101 A 
ATOM     24  N   UNL d   1      60.040  -0.267  29.375  0.00  0.00    -0.242 NA
ATOM     25  C   UNL d   1      59.396   0.259  29.359  0.00  0.00     0.099 A 
ATOM     26  C   UNL d   1      58.644  -0.022  29.200  0.00  0.00     0.021 A 
ATOM     27  C   UNL d   1      58.516  -0.825  29.056  0.00  0.00     0.005 A 
ENDBRANCH  19  22
ENDBRANCH  15  16
ENDBRANCH   1  15
TORSDOF 6
ENDMDL
