MODEL 1
REMARK VINA RESULT:      12.1      0.000      0.000
REMARK  2 active torsions:
REMARK  status: ('A' for Active; 'I' for Inactive)
REMARK    1  A    between atoms: C_9  and  N_1 
REMARK    2  A    between atoms: C_11  and  C_9 
ROOT
ATOM      1  N   UNL d   1      13.718  11.997  -3.063  0.00  0.00    -0.287 N 
ATOM      2  N   UNL d   1      14.987  12.456  -2.958  0.00  0.00    -0.224 NA
ATOM      3  C   UNL d   1      13.913  12.040  -2.245  0.00  0.00     0.083 A 
ATOM      4  C   UNL d   1      14.382  12.255  -3.500  0.00  0.00     0.183 A 
ATOM      5  C   UNL d   1      14.694  12.322  -2.183  0.00  0.00     0.099 A 
ATOM      6  C   UNL d   1      13.484  11.860  -1.564  0.00  0.00     0.019 A 
ATOM      7  C   UNL d   1      15.037  12.421  -1.440  0.00  0.00     0.021 A 
ATOM      8  C   UNL d   1      13.829  11.960  -0.822  0.00  0.00     0.002 A 
ATOM      9  C   UNL d   1      14.609  12.241  -0.760  0.00  0.00     0.002 A 
ATOM     10  C   UNL d   1      13.399  11.779  -0.137  0.00  0.00     0.000 C 
ATOM     11  C   UNL d   1      14.950  12.339  -0.017  0.00  0.00     0.000 C 
ENDROOT
BRANCH   1  12
ATOM     12  C   UNL d   1      13.074  11.780  -3.527  0.00  0.00     0.082 C 
BRANCH  12  13
ATOM     13  C   UNL d   1      12.886  12.215  -4.201  0.00  0.00     0.018 C 
ATOM     14  C   UNL d   1      12.796  13.035  -4.151  0.00  0.00     0.002 C 
ATOM     15  C   UNL d   1      12.788  11.833  -4.926  0.00  0.00     0.002 C 
ENDBRANCH  12  13
ENDBRANCH   1  12
TORSDOF 2
ENDMDL
MODEL 2
REMARK VINA RESULT:      13.9      0.856      3.250
REMARK  2 active torsions:
REMARK  status: ('A' for Active; 'I' for Inactive)
REMARK    1  A    between atoms: C_9  and  N_1 
REMARK    2  A    between atoms: C_11  and  C_9 
ROOT
ATOM      1  N   UNL d   1      14.136  12.397  -1.879  0.00  0.00    -0.287 N 
ATOM      2  N   UNL d   1      14.317  13.697  -2.213  0.00  0.00    -0.224 NA
ATOM      3  C   UNL d   1      13.807  12.518  -2.644  0.00  0.00     0.083 A 
ATOM      4  C   UNL d   1      14.450  13.126  -1.616  0.00  0.00     0.183 A 
ATOM      5  C   UNL d   1      13.920  13.317  -2.848  0.00  0.00     0.099 A 
ATOM      6  C   UNL d   1      13.427  12.008  -3.170  0.00  0.00     0.019 A 
ATOM      7  C   UNL d   1      13.651  13.598  -3.575  0.00  0.00     0.021 A 
ATOM      8  C   UNL d   1      13.159  12.291  -3.896  0.00  0.00     0.002 A 
ATOM      9  C   UNL d   1      13.272  13.090  -4.100  0.00  0.00     0.002 A 
ATOM     10  C   UNL d   1      12.778  11.780  -4.425  0.00  0.00     0.000 C 
ATOM     11  C   UNL d   1      13.002  13.368  -4.826  0.00  0.00     0.000 C 
ENDROOT
BRANCH   1  12
ATOM     12  C   UNL d   1      14.227  11.779  -1.343  0.00  0.00     0.082 C 
BRANCH  12  13
ATOM     13  C   UNL d   1      14.157  11.922  -0.534  0.00  0.00     0.018 C 
ATOM     14  C   UNL d   1      13.421  11.857  -0.165  0.00  0.00     0.002 C 
ATOM     15  C   UNL d   1      14.823  12.130  -0.093  0.00  0.00     0.002 C 
ENDBRANCH  12  13
ENDBRANCH   1  12
TORSDOF 2
ENDMDL
