MODEL 1
REMARK VINA RESULT:      -7.4      0.000      0.000
REMARK  5 active torsions:
REMARK  status: ('A' for Active; 'I' for Inactive)
REMARK    1  A    between atoms: C_2  and  S_1 
REMARK    2  A    between atoms: N_5  and  S_1 
REMARK    3  A    between atoms: C_12  and  N_5 
REMARK    4  A    between atoms: O_16  and  C_8 
REMARK    5  A    between atoms: C_13  and  C_12 
ROOT
ATOM      1  S   UNL d   1      51.276  34.135  52.926  0.00  0.00     0.286 S 
ATOM      2  O   UNL d   1      51.616  34.443  52.240  0.00  0.00    -0.198 OA
ATOM      3  O   UNL d   1      50.936  33.828  53.612  0.00  0.00    -0.198 OA
ENDROOT
BRANCH   1   4
ATOM      4  C   UNL d   1      51.960  33.696  53.068  0.00  0.00     0.117 A 
ATOM      5  C   UNL d   1      51.981  32.893  52.878  0.00  0.00     0.027 A 
ATOM      6  C   UNL d   1      52.664  32.454  53.020  0.00  0.00     0.081 A 
ATOM      7 CL   UNL d   1      52.683  31.648  52.829  0.00  0.00    -0.080 Cl
ATOM      8  C   UNL d   1      53.327  32.818  53.352  0.00  0.00     0.105 A 
ATOM      9  C   UNL d   1      53.305  33.620  53.541  0.00  0.00     0.037 A 
ATOM     10  C   UNL d   1      52.622  34.059  53.399  0.00  0.00     0.072 A 
ATOM     11 CL   UNL d   1      52.597  34.854  53.585  0.00  0.00    -0.082 Cl
BRANCH   8  12
ATOM     12  O   UNL d   1      54.011  32.378  53.494  0.00  0.00    -0.327 OA
ATOM     13  C   UNL d   1      54.705  32.759  53.723  0.00  0.00     0.181 C 
ENDBRANCH   8  12
ENDBRANCH   1   4
BRANCH   1  14
ATOM     14  N   UNL d   1      50.593  34.575  52.784  0.00  0.00    -0.155 NA
BRANCH  14  15
ATOM     15  C   UNL d   1      49.949  34.226  52.402  0.00  0.00     0.131 C 
BRANCH  15  16
ATOM     16  C   UNL d   1      49.281  34.676  52.224  0.00  0.00     0.101 A 
ATOM     17  N   UNL d   1      48.970  35.191  52.788  0.00  0.00    -0.242 NA
ATOM     18  C   UNL d   1      48.301  35.641  52.611  0.00  0.00     0.099 A 
ATOM     19  C   UNL d   1      47.944  35.576  51.869  0.00  0.00     0.021 A 
ATOM     20  C   UNL d   1      48.256  35.058  51.302  0.00  0.00     0.003 A 
ATOM     21  C   UNL d   1      48.925  34.608  51.479  0.00  0.00     0.021 A 
ENDBRANCH  15  16
ENDBRANCH  14  15
ENDBRANCH   1  14
TORSDOF 5
ENDMDL
MODEL 2
REMARK VINA RESULT:      -7.0      3.205      4.650
REMARK  5 active torsions:
REMARK  status: ('A' for Active; 'I' for Inactive)
REMARK    1  A    between atoms: C_2  and  S_1 
REMARK    2  A    between atoms: N_5  and  S_1 
REMARK    3  A    between atoms: C_12  and  N_5 
REMARK    4  A    between atoms: O_16  and  C_8 
REMARK    5  A    between atoms: C_13  and  C_12 
ROOT
ATOM      1  S   UNL d   1      53.584  32.702  54.084  0.00  0.00     0.286 S 
ATOM      2  O   UNL d   1      53.148  32.571  54.772  0.00  0.00    -0.198 OA
ATOM      3  O   UNL d   1      54.020  32.833  53.396  0.00  0.00    -0.198 OA
ENDROOT
BRANCH   1   4
ATOM      4  C   UNL d   1      53.426  33.510  54.137  0.00  0.00     0.117 A 
ATOM      5  C   UNL d   1      52.829  33.844  53.675  0.00  0.00     0.027 A 
ATOM      6  C   UNL d   1      52.670  34.652  53.728  0.00  0.00     0.081 A 
ATOM      7 CL   UNL d   1      52.071  34.986  53.263  0.00  0.00    -0.080 Cl
ATOM      8  C   UNL d   1      53.108  35.125  54.244  0.00  0.00     0.105 A 
ATOM      9  C   UNL d   1      53.704  34.791  54.706  0.00  0.00     0.037 A 
ATOM     10  C   UNL d   1      53.862  33.983  54.652  0.00  0.00     0.072 A 
ATOM     11 CL   UNL d   1      54.452  33.648  55.108  0.00  0.00    -0.082 Cl
BRANCH   8  12
ATOM     12  O   UNL d   1      52.949  35.934  54.297  0.00  0.00    -0.327 OA
ATOM     13  C   UNL d   1      53.351  36.397  54.848  0.00  0.00     0.181 C 
ENDBRANCH   8  12
ENDBRANCH   1   4
BRANCH   1  14
ATOM     14  N   UNL d   1      53.743  31.894  54.031  0.00  0.00    -0.155 NA
BRANCH  14  15
ATOM     15  C   UNL d   1      53.457  31.459  53.391  0.00  0.00     0.131 C 
BRANCH  15  16
ATOM     16  C   UNL d   1      53.293  30.655  53.479  0.00  0.00     0.101 A 
ATOM     17  N   UNL d   1      53.707  30.209  54.037  0.00  0.00    -0.242 NA
ATOM     18  C   UNL d   1      53.543  29.405  54.125  0.00  0.00     0.099 A 
ATOM     19  C   UNL d   1      52.965  29.047  53.656  0.00  0.00     0.021 A 
ATOM     20  C   UNL d   1      52.549  29.495  53.095  0.00  0.00     0.003 A 
ATOM     21  C   UNL d   1      52.713  30.298  53.007  0.00  0.00     0.021 A 
ENDBRANCH  15  16
ENDBRANCH  14  15
ENDBRANCH   1  14
TORSDOF 5
ENDMDL
MODEL 3
REMARK VINA RESULT:      -6.8      1.756      4.594
REMARK  5 active torsions:
REMARK  status: ('A' for Active; 'I' for Inactive)
REMARK    1  A    between atoms: C_2  and  S_1 
REMARK    2  A    between atoms: N_5  and  S_1 
REMARK    3  A    between atoms: C_12  and  N_5 
REMARK    4  A    between atoms: O_16  and  C_8 
REMARK    5  A    between atoms: C_13  and  C_12 
ROOT
ATOM      1  S   UNL d   1      51.781  34.113  53.094  0.00  0.00     0.286 S 
ATOM      2  O   UNL d   1      52.084  34.835  52.834  0.00  0.00    -0.198 OA
ATOM      3  O   UNL d   1      51.479  33.391  53.354  0.00  0.00    -0.198 OA
ENDROOT
BRANCH   1   4
ATOM      4  C   UNL d   1      51.047  34.304  52.770  0.00  0.00     0.117 A 
ATOM      5  C   UNL d   1      50.460  34.636  53.247  0.00  0.00     0.027 A 
ATOM      6  C   UNL d   1      49.726  34.827  52.923  0.00  0.00     0.081 A 
ATOM      7 CL   UNL d   1      49.138  35.160  53.403  0.00  0.00    -0.080 Cl
ATOM      8  C   UNL d   1      49.579  34.686  52.123  0.00  0.00     0.105 A 
ATOM      9  C   UNL d   1      50.165  34.355  51.648  0.00  0.00     0.037 A 
ATOM     10  C   UNL d   1      50.899  34.164  51.971  0.00  0.00     0.072 A 
ATOM     11 CL   UNL d   1      51.483  33.835  51.504  0.00  0.00    -0.082 Cl
BRANCH   8  12
ATOM     12  O   UNL d   1      48.843  34.877  51.799  0.00  0.00    -0.327 OA
ATOM     13  C   UNL d   1      48.680  34.695  51.012  0.00  0.00     0.181 C 
ENDBRANCH   8  12
ENDBRANCH   1   4
BRANCH   1  14
ATOM     14  N   UNL d   1      52.516  33.922  53.417  0.00  0.00    -0.155 NA
BRANCH  14  15
ATOM     15  C   UNL d   1      52.614  33.907  54.237  0.00  0.00     0.131 C 
BRANCH  15  16
ATOM     16  C   UNL d   1      53.360  33.763  54.560  0.00  0.00     0.101 A 
ATOM     17  N   UNL d   1      53.809  34.389  54.856  0.00  0.00    -0.242 NA
ATOM     18  C   UNL d   1      54.554  34.245  55.179  0.00  0.00     0.099 A 
ATOM     19  C   UNL d   1      54.850  33.474  55.207  0.00  0.00     0.021 A 
ATOM     20  C   UNL d   1      54.400  32.844  54.910  0.00  0.00     0.003 A 
ATOM     21  C   UNL d   1      53.654  32.989  54.587  0.00  0.00     0.021 A 
ENDBRANCH  15  16
ENDBRANCH  14  15
ENDBRANCH   1  14
TORSDOF 5
ENDMDL
MODEL 4
REMARK VINA RESULT:      -5.5      3.071      3.792
REMARK  5 active torsions:
REMARK  status: ('A' for Active; 'I' for Inactive)
REMARK    1  A    between atoms: C_2  and  S_1 
REMARK    2  A    between atoms: N_5  and  S_1 
REMARK    3  A    between atoms: C_12  and  N_5 
REMARK    4  A    between atoms: O_16  and  C_8 
REMARK    5  A    between atoms: C_13  and  C_12 
ROOT
ATOM      1  S   UNL d   1      53.329  32.117  53.582  0.00  0.00     0.286 S 
ATOM      2  O   UNL d   1      52.506  32.162  53.598  0.00  0.00    -0.198 OA
ATOM      3  O   UNL d   1      54.153  32.072  53.566  0.00  0.00    -0.198 OA
ENDROOT
BRANCH   1   4
ATOM      4  C   UNL d   1      53.286  31.297  53.667  0.00  0.00     0.117 A 
ATOM      5  C   UNL d   1      53.017  30.832  53.041  0.00  0.00     0.027 A 
ATOM      6  C   UNL d   1      52.974  30.012  53.126  0.00  0.00     0.081 A 
ATOM      7 CL   UNL d   1      52.704  29.546  52.496  0.00  0.00    -0.080 Cl
ATOM      8  C   UNL d   1      53.199  29.660  53.837  0.00  0.00     0.105 A 
ATOM      9  C   UNL d   1      53.467  30.125  54.462  0.00  0.00     0.037 A 
ATOM     10  C   UNL d   1      53.511  30.945  54.377  0.00  0.00     0.072 A 
ATOM     11 CL   UNL d   1      53.775  31.410  54.994  0.00  0.00    -0.082 Cl
BRANCH   8  12
ATOM     12  O   UNL d   1      53.156  28.839  53.922  0.00  0.00    -0.327 OA
ATOM     13  C   UNL d   1      53.430  28.482  54.613  0.00  0.00     0.181 C 
ENDBRANCH   8  12
ENDBRANCH   1   4
BRANCH   1  14
ATOM     14  N   UNL d   1      53.372  32.936  53.497  0.00  0.00    -0.155 NA
BRANCH  14  15
ATOM     15  C   UNL d   1      52.740  33.410  53.736  0.00  0.00     0.131 C 
BRANCH  15  16
ATOM     16  C   UNL d   1      52.864  34.209  53.904  0.00  0.00     0.101 A 
ATOM     17  N   UNL d   1      52.979  34.452  54.684  0.00  0.00    -0.242 NA
ATOM     18  C   UNL d   1      53.102  35.250  54.853  0.00  0.00     0.099 A 
ATOM     19  C   UNL d   1      53.110  35.805  54.241  0.00  0.00     0.021 A 
ATOM     20  C   UNL d   1      52.995  35.561  53.457  0.00  0.00     0.003 A 
ATOM     21  C   UNL d   1      52.871  34.763  53.288  0.00  0.00     0.021 A 
ENDBRANCH  15  16
ENDBRANCH  14  15
ENDBRANCH   1  14
TORSDOF 5
ENDMDL
MODEL 5
REMARK VINA RESULT:      -5.1      1.488      1.906
REMARK  5 active torsions:
REMARK  status: ('A' for Active; 'I' for Inactive)
REMARK    1  A    between atoms: C_2  and  S_1 
REMARK    2  A    between atoms: N_5  and  S_1 
REMARK    3  A    between atoms: C_12  and  N_5 
REMARK    4  A    between atoms: O_16  and  C_8 
REMARK    5  A    between atoms: C_13  and  C_12 
ROOT
ATOM      1  S   UNL d   1      52.142  32.844  53.195  0.00  0.00     0.286 S 
ATOM      2  O   UNL d   1      51.549  32.532  53.675  0.00  0.00    -0.198 OA
ATOM      3  O   UNL d   1      52.736  33.157  52.715  0.00  0.00    -0.198 OA
ENDROOT
BRANCH   1   4
ATOM      4  C   UNL d   1      52.580  32.151  53.284  0.00  0.00     0.117 A 
ATOM      5  C   UNL d   1      52.419  31.498  52.806  0.00  0.00     0.027 A 
ATOM      6  C   UNL d   1      52.857  30.804  52.895  0.00  0.00     0.081 A 
ATOM      7 CL   UNL d   1      52.694  30.149  52.414  0.00  0.00    -0.080 Cl
ATOM      8  C   UNL d   1      53.455  30.764  53.463  0.00  0.00     0.105 A 
ATOM      9  C   UNL d   1      53.615  31.417  53.940  0.00  0.00     0.037 A 
ATOM     10  C   UNL d   1      53.177  32.110  53.851  0.00  0.00     0.072 A 
ATOM     11 CL   UNL d   1      53.333  32.759  54.322  0.00  0.00    -0.082 Cl
BRANCH   8  12
ATOM     12  O   UNL d   1      53.893  30.070  53.552  0.00  0.00    -0.327 OA
ATOM     13  C   UNL d   1      53.734  29.560  54.180  0.00  0.00     0.181 C 
ENDBRANCH   8  12
ENDBRANCH   1   4
BRANCH   1  14
ATOM     14  N   UNL d   1      51.705  33.538  53.106  0.00  0.00    -0.155 NA
BRANCH  14  15
ATOM     15  C   UNL d   1      51.305  33.686  52.398  0.00  0.00     0.131 C 
BRANCH  15  16
ATOM     16  C   UNL d   1      50.616  34.139  52.401  0.00  0.00     0.101 A 
ATOM     17  N   UNL d   1      50.427  34.598  53.060  0.00  0.00    -0.242 NA
ATOM     18  C   UNL d   1      49.737  35.051  53.063  0.00  0.00     0.099 A 
ATOM     19  C   UNL d   1      49.236  35.044  52.406  0.00  0.00     0.021 A 
ATOM     20  C   UNL d   1      49.425  34.583  51.744  0.00  0.00     0.003 A 
ATOM     21  C   UNL d   1      50.115  34.131  51.741  0.00  0.00     0.021 A 
ENDBRANCH  15  16
ENDBRANCH  14  15
ENDBRANCH   1  14
TORSDOF 5
ENDMDL
MODEL 6
REMARK VINA RESULT:      -4.9      9.997     10.528
REMARK  5 active torsions:
REMARK  status: ('A' for Active; 'I' for Inactive)
REMARK    1  A    between atoms: C_2  and  S_1 
REMARK    2  A    between atoms: N_5  and  S_1 
REMARK    3  A    between atoms: C_12  and  N_5 
REMARK    4  A    between atoms: O_16  and  C_8 
REMARK    5  A    between atoms: C_13  and  C_12 
ROOT
ATOM      1  S   UNL d   1      45.065  27.888  58.119  0.00  0.00     0.286 S 
ATOM      2  O   UNL d   1      44.314  27.961  58.452  0.00  0.00    -0.198 OA
ATOM      3  O   UNL d   1      45.816  27.814  57.786  0.00  0.00    -0.198 OA
ENDROOT
BRANCH   1   4
ATOM      4  C   UNL d   1      44.957  27.072  58.056  0.00  0.00     0.117 A 
ATOM      5  C   UNL d   1      44.859  26.726  57.313  0.00  0.00     0.027 A 
ATOM      6  C   UNL d   1      44.751  25.910  57.250  0.00  0.00     0.081 A 
ATOM      7 CL   UNL d   1      44.653  25.564  56.504  0.00  0.00    -0.080 Cl
ATOM      8  C   UNL d   1      44.742  25.442  57.930  0.00  0.00     0.105 A 
ATOM      9  C   UNL d   1      44.840  25.789  58.671  0.00  0.00     0.037 A 
ATOM     10  C   UNL d   1      44.948  26.604  58.734  0.00  0.00     0.072 A 
ATOM     11 CL   UNL d   1      45.045  26.951  59.467  0.00  0.00    -0.082 Cl
BRANCH   8  12
ATOM     12  O   UNL d   1      44.634  24.626  57.867  0.00  0.00    -0.327 OA
ATOM     13  C   UNL d   1      44.653  24.154  58.543  0.00  0.00     0.181 C 
ENDBRANCH   8  12
ENDBRANCH   1   4
BRANCH   1  14
ATOM     14  N   UNL d   1      45.173  28.703  58.182  0.00  0.00    -0.155 NA
BRANCH  14  15
ATOM     15  C   UNL d   1      44.779  29.213  57.665  0.00  0.00     0.131 C 
BRANCH  15  16
ATOM     16  C   UNL d   1      44.825  30.029  57.776  0.00  0.00     0.101 A 
ATOM     17  N   UNL d   1      45.024  30.334  58.517  0.00  0.00    -0.242 NA
ATOM     18  C   UNL d   1      45.071  31.150  58.627  0.00  0.00     0.099 A 
ATOM     19  C   UNL d   1      44.918  31.662  57.998  0.00  0.00     0.021 A 
ATOM     20  C   UNL d   1      44.717  31.356  57.253  0.00  0.00     0.003 A 
ATOM     21  C   UNL d   1      44.671  30.540  57.142  0.00  0.00     0.021 A 
ENDBRANCH  15  16
ENDBRANCH  14  15
ENDBRANCH   1  14
TORSDOF 5
ENDMDL
