MODEL 1
REMARK VINA RESULT:      61.5      0.000      0.000
REMARK  8 active torsions:
REMARK  status: ('A' for Active; 'I' for Inactive)
REMARK    1  A    between atoms: C_2  and  C_1 
REMARK    2  A    between atoms: C_5  and  C_1 
REMARK    3  A    between atoms: O_11  and  C_2 
REMARK    4  A    between atoms: C_13  and  C_3 
REMARK    5  A    between atoms: C_6  and  C_5 
REMARK    6  A    between atoms: C_23  and  O_11 
REMARK    7  A    between atoms: C_12  and  S_14 
REMARK    8  A    between atoms: S_14  and  C_18 
ROOT
ATOM      1  C   UNL d   1     -55.120-101.489 -42.911  0.00  0.00     0.134 C 
ATOM      2  C   UNL d   1     -55.203-102.171 -43.368  0.00  0.00     0.106 C 
ATOM      3  N   UNL d   1     -55.284-102.856 -43.821  0.00  0.00    -0.191 NA
ENDROOT
BRANCH   1   4
ATOM      4  C   UNL d   1     -55.423-100.773 -43.191  0.00  0.00     0.310 C 
ATOM      5  O   UNL d   1     -55.833-100.270 -42.682  0.00  0.00    -0.258 OA
BRANCH   4   6
ATOM      6  O   UNL d   1     -55.316-100.557 -43.983  0.00  0.00    -0.273 OA
BRANCH   6   7
ATOM      7  C   UNL d   1     -55.599 -99.837 -44.252  0.00  0.00     0.103 C 
ATOM      8  C   UNL d   1     -55.980 -99.320 -43.734  0.00  0.00     0.027 C 
ATOM      9  C   UNL d   1     -55.502 -99.627 -45.045  0.00  0.00     0.027 C 
ENDBRANCH   6   7
ENDBRANCH   4   6
ENDBRANCH   1   4
BRANCH   1  10
ATOM     10  C   UNL d   1     -54.741-101.516 -42.184  0.00  0.00     0.040 C 
BRANCH  10  11
ATOM     11  C   UNL d   1     -55.040-101.994 -41.591  0.00  0.00     0.101 A 
ATOM     12  O   UNL d   1     -54.855-101.779 -40.820  0.00  0.00    -0.307 OA
ATOM     13  C   UNL d   1     -55.204-102.324 -40.312  0.00  0.00     0.100 A 
ATOM     14  C   UNL d   1     -55.606-102.879 -40.770  0.00  0.00     0.027 A 
ATOM     15  C   UNL d   1     -55.510-102.684 -41.552  0.00  0.00     0.027 A 
BRANCH  13  16
ATOM     16  C   UNL d   1     -55.162-102.321 -39.494  0.00  0.00     0.023 A 
ATOM     17  C   UNL d   1     -55.692-101.746 -39.211  0.00  0.00     0.003 A 
ATOM     18  C   UNL d   1     -55.767-101.621 -38.394  0.00  0.00     0.007 A 
ATOM     19  C   UNL d   1     -55.318-102.063 -37.866  0.00  0.00     0.034 A 
ATOM     20  C   UNL d   1     -54.792-102.633 -38.146  0.00  0.00     0.007 A 
ATOM     21  C   UNL d   1     -54.711-102.765 -38.958  0.00  0.00     0.003 A 
BRANCH  19  22
ATOM     22  S   UNL d   1     -55.394-101.936 -37.057  0.00  0.00    -0.028 SA
BRANCH  22  23
ATOM     23  C   UNL d   1     -55.375-101.169 -36.760  0.00  0.00     0.309 C 
ATOM     24  F   UNL d   1     -56.014-100.662 -36.885  0.00  0.00    -0.165 F 
ATOM     25  F   UNL d   1     -54.718-100.907 -36.338  0.00  0.00    -0.165 F 
ENDBRANCH  22  23
ENDBRANCH  19  22
ENDBRANCH  13  16
ENDBRANCH  10  11
ENDBRANCH   1  10
TORSDOF 8
ENDMDL
