MODEL 1
REMARK VINA RESULT:      56.2      0.000      0.000
REMARK  5 active torsions:
REMARK  status: ('A' for Active; 'I' for Inactive)
REMARK    1  A    between atoms: S_2  and  C_10 
REMARK    2  A    between atoms: N_7  and  S_2 
REMARK    3  A    between atoms: C_9  and  N_7 
REMARK    4  A    between atoms: O_23  and  C_16 
REMARK    5  A    between atoms: O_24  and  C_19 
ROOT
ATOM      1  S   UNL d   1     -50.623  24.368  33.464  0.00  0.00     0.285 S 
ATOM      2  O   UNL d   1     -50.794  25.160  33.607  0.00  0.00    -0.198 OA
ATOM      3  O   UNL d   1     -50.452  23.575  33.321  0.00  0.00    -0.198 OA
ENDROOT
BRANCH   1   4
ATOM      4  C   UNL d   1     -51.428  24.199  33.437  0.00  0.00     0.107 A 
ATOM      5  C   UNL d   1     -51.977  24.808  33.467  0.00  0.00     0.032 A 
ATOM      6  C   UNL d   1     -52.786  24.639  33.440  0.00  0.00     0.085 A 
ATOM      7  N   UNL d   1     -53.457  25.121  33.459  0.00  0.00    -0.256 N 
ATOM      8  C   UNL d   1     -53.042  23.860  33.383  0.00  0.00     0.085 A 
ATOM      9  C   UNL d   1     -54.113  24.648  33.415  0.00  0.00     0.339 A 
ATOM     10  C   UNL d   1     -53.467  25.946  33.514  0.00  0.00     0.104 C 
ATOM     11  N   UNL d   1     -53.866  23.865  33.367  0.00  0.00    -0.256 N 
ATOM     12  O   UNL d   1     -54.904  24.915  33.417  0.00  0.00    -0.245 OA
ATOM     13  C   UNL d   1     -54.363  23.201  33.314  0.00  0.00     0.104 C 
ATOM     14  C   UNL d   1     -52.491  23.246  33.353  0.00  0.00     0.020 A 
ATOM     15  C   UNL d   1     -51.682  23.416  33.380  0.00  0.00     0.015 A 
ENDBRANCH   1   4
BRANCH   1  16
ATOM     16  N   UNL d   1     -49.818  24.537  33.491  0.00  0.00    -0.156 NA
BRANCH  16  17
ATOM     17  C   UNL d   1     -49.559  25.315  33.454  0.00  0.00     0.118 A 
ATOM     18  C   UNL d   1     -50.103  25.929  33.398  0.00  0.00     0.046 A 
ATOM     19  C   UNL d   1     -49.843  26.708  33.362  0.00  0.00     0.096 A 
ATOM     20  C   UNL d   1     -49.029  26.880  33.381  0.00  0.00     0.026 A 
ATOM     21  C   UNL d   1     -48.484  26.265  33.437  0.00  0.00     0.028 A 
ATOM     22  C   UNL d   1     -48.751  25.481  33.474  0.00  0.00     0.113 A 
BRANCH  19  23
ATOM     23  O   UNL d   1     -50.394  27.317  33.306  0.00  0.00    -0.328 OA
ATOM     24  C   UNL d   1     -51.040  27.338  33.814  0.00  0.00     0.181 C 
ENDBRANCH  19  23
BRANCH  22  25
ATOM     25  O   UNL d   1     -48.206  24.866  33.530  0.00  0.00    -0.327 OA
ATOM     26  C   UNL d   1     -47.495  24.982  33.925  0.00  0.00     0.181 C 
ENDBRANCH  22  25
ENDBRANCH  16  17
ENDBRANCH   1  16
TORSDOF 5
ENDMDL
