MODEL 1
REMARK VINA RESULT:      -2.4      0.000      0.000
REMARK  4 active torsions:
REMARK  status: ('A' for Active; 'I' for Inactive)
REMARK    1  A    between atoms: C_8  and  C_1 
REMARK    2  A    between atoms: N_4  and  C_2 
REMARK       I    between atoms: C_6  and  N_4 
REMARK    3  A    between atoms: C_9  and  C_6 
REMARK    4  A    between atoms: O_16  and  C_8 
ROOT
ATOM      1  C   UNL d   1      59.082  -1.437  29.021  0.00  0.00     0.110 A 
ATOM      2  C   UNL d   1      59.137  -0.868  29.628  0.00  0.00     0.096 A 
ATOM      3  S   UNL d   1      59.658  -1.274  28.509  0.00  0.00    -0.080 SA
ATOM      4  C   UNL d   1      59.739  -0.376  29.473  0.00  0.00     0.024 A 
ATOM      5  C   UNL d   1      60.090  -0.613  28.762  0.00  0.00     0.031 A 
ATOM      6  C   UNL d   1      60.048   0.284  29.875  0.00  0.00     0.002 A 
ATOM      7  C   UNL d   1      60.725  -0.215  28.455  0.00  0.00     0.006 A 
ATOM      8  C   UNL d   1      60.681   0.682  29.572  0.00  0.00     0.000 A 
ATOM      9  C   UNL d   1      61.023   0.427  28.852  0.00  0.00     0.001 A 
ENDROOT
BRANCH   2  10
ATOM     10  N   UNL d   1      58.639  -0.822  30.291  0.00  0.00    -0.207 NA
ATOM     11  C   UNL d   1      58.031  -0.251  30.306  0.00  0.00     0.285 C 
ATOM     12  O   UNL d   1      57.949   0.248  29.658  0.00  0.00    -0.265 OA
BRANCH  11  13
ATOM     13  C   UNL d   1      57.529  -0.184  30.942  0.00  0.00     0.087 A 
ATOM     14  S   UNL d   1      57.101  -0.809  31.266  0.00  0.00    -0.082 SA
ATOM     15  C   UNL d   1      56.665  -0.525  31.891  0.00  0.00     0.036 A 
ATOM     16  C   UNL d   1      56.828   0.295  31.953  0.00  0.00     0.008 A 
ATOM     17  C   UNL d   1      57.354   0.498  31.374  0.00  0.00     0.012 A 
ENDBRANCH  11  13
ENDBRANCH   2  10
BRANCH   1  18
ATOM     18  C   UNL d   1      58.538  -2.077  28.930  0.00  0.00     0.303 C 
ATOM     19  O   UNL d   1      57.844  -1.931  28.515  0.00  0.00    -0.259 OA
BRANCH  18  20
ATOM     20  O   UNL d   1      58.697  -2.815  29.244  0.00  0.00    -0.295 OA
ATOM     21  C   UNL d   1      58.586  -3.490  28.802  0.00  0.00     0.185 C 
ENDBRANCH  18  20
ENDBRANCH   1  18
TORSDOF 4
ENDMDL
MODEL 2
REMARK VINA RESULT:      -0.4      2.051      2.879
REMARK  4 active torsions:
REMARK  status: ('A' for Active; 'I' for Inactive)
REMARK    1  A    between atoms: C_8  and  C_1 
REMARK    2  A    between atoms: N_4  and  C_2 
REMARK       I    between atoms: C_6  and  N_4 
REMARK    3  A    between atoms: C_9  and  C_6 
REMARK    4  A    between atoms: O_16  and  C_8 
ROOT
ATOM      1  C   UNL d   1      59.231   0.682  30.937  0.00  0.00     0.110 A 
ATOM      2  C   UNL d   1      58.399   0.682  30.874  0.00  0.00     0.096 A 
ATOM      3  S   UNL d   1      59.510   0.682  30.201  0.00  0.00    -0.080 SA
ATOM      4  C   UNL d   1      58.195   0.682  30.108  0.00  0.00     0.024 A 
ATOM      5  C   UNL d   1      58.887   0.682  29.656  0.00  0.00     0.031 A 
ATOM      6  C   UNL d   1      57.459   0.682  29.720  0.00  0.00     0.002 A 
ATOM      7  C   UNL d   1      58.859   0.682  28.846  0.00  0.00     0.006 A 
ATOM      8  C   UNL d   1      57.427   0.682  28.914  0.00  0.00     0.000 A 
ATOM      9  C   UNL d   1      58.137   0.682  28.473  0.00  0.00     0.001 A 
ENDROOT
BRANCH   2  10
ATOM     10  N   UNL d   1      57.868   0.682  31.513  0.00  0.00    -0.207 NA
ATOM     11  C   UNL d   1      57.358   0.030  31.618  0.00  0.00     0.285 C 
ATOM     12  O   UNL d   1      57.401  -0.591  31.081  0.00  0.00    -0.265 OA
BRANCH  11  13
ATOM     13  C   UNL d   1      56.828   0.003  32.234  0.00  0.00     0.087 A 
ATOM     14  S   UNL d   1      56.542  -0.690  32.574  0.00  0.00    -0.082 SA
ATOM     15  C   UNL d   1      56.026  -0.492  33.171  0.00  0.00     0.036 A 
ATOM     16  C   UNL d   1      55.994   0.345  33.200  0.00  0.00     0.008 A 
ATOM     17  C   UNL d   1      56.483   0.643  32.628  0.00  0.00     0.012 A 
ENDBRANCH  11  13
ENDBRANCH   2  10
BRANCH   1  18
ATOM     18  C   UNL d   1      59.719   0.682  31.628  0.00  0.00     0.303 C 
ATOM     19  O   UNL d   1      59.345   0.682  32.359  0.00  0.00    -0.259 OA
BRANCH  18  20
ATOM     20  O   UNL d   1      60.534   0.682  31.568  0.00  0.00    -0.295 OA
ATOM     21  C   UNL d   1      61.001   0.605  32.231  0.00  0.00     0.185 C 
ENDBRANCH  18  20
ENDBRANCH   1  18
TORSDOF 4
ENDMDL
