MODEL 1
REMARK VINA RESULT:      70.7      0.000      0.000
REMARK  9 active torsions:
REMARK  status: ('A' for Active; 'I' for Inactive)
REMARK    1  A    between atoms: C_12  and  N_1 
REMARK    2  A    between atoms: S_7  and  C_2 
REMARK    3  A    between atoms: C_15  and  S_7 
REMARK    4  A    between atoms: C_9  and  C_15 
REMARK    5  A    between atoms: O_14  and  C_9 
REMARK       I    between atoms: C_10  and  N_16 
REMARK    6  A    between atoms: C_19  and  C_12 
REMARK    7  A    between atoms: C_18  and  O_14 
REMARK    8  A    between atoms: N_16  and  C_19 
REMARK    9  A    between atoms: C_20  and  C_18 
ROOT
ATOM      1  N   UNL d   1      58.752  49.655  51.242  0.00  0.00    -0.251 N 
ATOM      2  C   UNL d   1      59.255  49.633  50.588  0.00  0.00     0.182 A 
ATOM      3  C   UNL d   1      57.927  49.675  51.136  0.00  0.00     0.268 A 
ATOM      4  N   UNL d   1      58.940  49.631  49.820  0.00  0.00    -0.222 NA
ATOM      5  C   UNL d   1      57.615  49.672  50.366  0.00  0.00     0.074 A 
ATOM      6  C   UNL d   1      58.118  49.650  49.713  0.00  0.00     0.088 A 
ATOM      7  O   UNL d   1      57.419  49.696  51.797  0.00  0.00    -0.267 OA
ATOM      8  C   UNL d   1      56.789  49.691  50.260  0.00  0.00     0.006 A 
ATOM      9  C   UNL d   1      57.802  49.647  48.943  0.00  0.00     0.019 A 
ATOM     10  C   UNL d   1      56.476  49.689  49.489  0.00  0.00     0.000 A 
ATOM     11  C   UNL d   1      56.979  49.667  48.836  0.00  0.00     0.002 A 
ENDROOT
BRANCH   2  12
ATOM     12  S   UNL d   1      60.090  49.614  50.692  0.00  0.00    -0.044 SA
BRANCH  12  13
ATOM     13  C   UNL d   1      60.598  49.481  50.036  0.00  0.00     0.107 C 
BRANCH  13  14
ATOM     14  C   UNL d   1      61.207  48.927  50.093  0.00  0.00     0.307 C 
ATOM     15  O   UNL d   1      61.723  48.944  50.735  0.00  0.00    -0.258 OA
BRANCH  14  16
ATOM     16  O   UNL d   1      61.296  48.353  49.498  0.00  0.00    -0.271 OA
BRANCH  16  17
ATOM     17  C   UNL d   1      61.697  47.652  49.668  0.00  0.00     0.126 C 
BRANCH  17  18
ATOM     18  C   UNL d   1      61.340  47.085  50.143  0.00  0.00     0.025 A 
ATOM     19  C   UNL d   1      60.854  47.315  50.769  0.00  0.00     0.002 A 
ATOM     20  C   UNL d   1      60.498  46.750  51.243  0.00  0.00     0.000 A 
ATOM     21  C   UNL d   1      60.623  45.948  51.098  0.00  0.00     0.000 A 
ATOM     22  C   UNL d   1      61.113  45.715  50.467  0.00  0.00     0.000 A 
ATOM     23  C   UNL d   1      61.469  46.288  49.993  0.00  0.00     0.002 A 
ENDBRANCH  17  18
ENDBRANCH  16  17
ENDBRANCH  14  16
ENDBRANCH  13  14
ENDBRANCH  12  13
ENDBRANCH   2  12
BRANCH   1  24
ATOM     24  C   UNL d   1      59.071  49.658  52.017  0.00  0.00     0.106 C 
BRANCH  24  25
ATOM     25  C   UNL d   1      58.579  49.691  52.677  0.00  0.00     0.121 C 
BRANCH  25  26
ATOM     26  N   UNL d   1      58.890  49.688  53.449  0.00  0.00    -0.205 NA
ATOM     27  C   UNL d   1      58.383  49.676  54.107  0.00  0.00     0.280 C 
ATOM     28  O   UNL d   1      57.565  49.667  53.997  0.00  0.00    -0.265 OA
ATOM     29  C   UNL d   1      58.697  49.673  54.868  0.00  0.00     0.068 C 
ENDBRANCH  25  26
ENDBRANCH  24  25
ENDBRANCH   1  24
TORSDOF 9
ENDMDL
