MODEL 1
REMARK VINA RESULT:      -7.6      0.000      0.000
REMARK  3 active torsions:
REMARK  status: ('A' for Active; 'I' for Inactive)
REMARK    1  A    between atoms: C_2  and  N_1 
REMARK    2  A    between atoms: C_3  and  N_1 
REMARK    3  A    between atoms: C_7  and  C_3 
ROOT
ATOM      1  N   UNL d   1     -48.742  12.009  22.815  0.00  0.00    -0.184 N 
ATOM      2  O   UNL d   1     -48.500  11.249  22.591  0.00  0.00    -0.080 OA
ENDROOT
BRANCH   1   3
ATOM      3  C   UNL d   1     -49.451  12.314  22.522  0.00  0.00     0.090 A 
ATOM      4  C   UNL d   1     -50.165  12.213  22.935  0.00  0.00     0.018 A 
ATOM      5  C   UNL d   1     -50.175  11.805  23.647  0.00  0.00     0.002 C 
ATOM      6  C   UNL d   1     -50.874  12.518  22.642  0.00  0.00     0.002 A 
ATOM      7  C   UNL d   1     -50.889  12.941  21.912  0.00  0.00     0.000 A 
ATOM      8  C   UNL d   1     -50.152  13.033  21.508  0.00  0.00     0.002 A 
ATOM      9  C   UNL d   1     -49.452  12.722  21.813  0.00  0.00     0.020 A 
ENDBRANCH   1   3
BRANCH   1  10
ATOM     10  C   UNL d   1     -48.279  12.450  23.325  0.00  0.00     0.108 C 
BRANCH  10  11
ATOM     11  C   UNL d   1     -47.456  12.355  23.329  0.00  0.00     0.023 A 
ATOM     12  C   UNL d   1     -46.958  12.918  22.972  0.00  0.00     0.022 A 
ATOM     13  C   UNL d   1     -46.145  12.832  22.972  0.00  0.00     0.099 A 
ATOM     14  N   UNL d   1     -45.807  12.171  23.335  0.00  0.00    -0.242 NA
ATOM     15  C   UNL d   1     -46.310  11.602  23.697  0.00  0.00     0.099 A 
ATOM     16  C   UNL d   1     -47.124  11.698  23.691  0.00  0.00     0.022 A 
ENDBRANCH  10  11
ENDBRANCH   1  10
TORSDOF 3
ENDMDL
MODEL 2
REMARK VINA RESULT:      -7.4      1.275      3.645
REMARK  3 active torsions:
REMARK  status: ('A' for Active; 'I' for Inactive)
REMARK    1  A    between atoms: C_2  and  N_1 
REMARK    2  A    between atoms: C_3  and  N_1 
REMARK    3  A    between atoms: C_7  and  C_3 
ROOT
ATOM      1  N   UNL d   1     -48.362  13.283  23.019  0.00  0.00    -0.184 N 
ATOM      2  O   UNL d   1     -48.800  13.804  23.492  0.00  0.00    -0.080 OA
ENDROOT
BRANCH   1   3
ATOM      3  C   UNL d   1     -47.551  13.400  22.927  0.00  0.00     0.090 A 
ATOM      4  C   UNL d   1     -47.245  14.149  22.735  0.00  0.00     0.018 A 
ATOM      5  C   UNL d   1     -47.751  14.788  22.633  0.00  0.00     0.002 C 
ATOM      6  C   UNL d   1     -46.433  14.267  22.643  0.00  0.00     0.002 A 
ATOM      7  C   UNL d   1     -45.893  13.626  22.742  0.00  0.00     0.000 A 
ATOM      8  C   UNL d   1     -46.224  12.873  22.936  0.00  0.00     0.002 A 
ATOM      9  C   UNL d   1     -47.038  12.771  23.025  0.00  0.00     0.020 A 
ENDBRANCH   1   3
BRANCH   1  10
ATOM     10  C   UNL d   1     -48.737  12.658  22.647  0.00  0.00     0.108 C 
BRANCH  10  11
ATOM     11  C   UNL d   1     -49.513  12.454  22.854  0.00  0.00     0.023 A 
ATOM     12  C   UNL d   1     -49.665  11.935  23.487  0.00  0.00     0.022 A 
ATOM     13  C   UNL d   1     -50.428  11.729  23.698  0.00  0.00     0.099 A 
ATOM     14  N   UNL d   1     -51.064  12.040  23.273  0.00  0.00    -0.242 NA
ATOM     15  C   UNL d   1     -50.911  12.564  22.632  0.00  0.00     0.099 A 
ATOM     16  C   UNL d   1     -50.142  12.764  22.430  0.00  0.00     0.022 A 
ENDBRANCH  10  11
ENDBRANCH   1  10
TORSDOF 3
ENDMDL
MODEL 3
REMARK VINA RESULT:      -7.1      1.786      3.695
REMARK  3 active torsions:
REMARK  status: ('A' for Active; 'I' for Inactive)
REMARK    1  A    between atoms: C_2  and  N_1 
REMARK    2  A    between atoms: C_3  and  N_1 
REMARK    3  A    between atoms: C_7  and  C_3 
ROOT
ATOM      1  N   UNL d   1     -48.334  13.374  22.906  0.00  0.00    -0.184 N 
ATOM      2  O   UNL d   1     -48.148  13.762  22.197  0.00  0.00    -0.080 OA
ENDROOT
BRANCH   1   3
ATOM      3  C   UNL d   1     -47.860  12.751  23.166  0.00  0.00     0.090 A 
ATOM      4  C   UNL d   1     -47.032  12.824  23.190  0.00  0.00     0.018 A 
ATOM      5  C   UNL d   1     -46.672  13.523  22.954  0.00  0.00     0.002 C 
ATOM      6  C   UNL d   1     -46.558  12.200  23.450  0.00  0.00     0.002 A 
ATOM      7  C   UNL d   1     -46.904  11.472  23.698  0.00  0.00     0.000 A 
ATOM      8  C   UNL d   1     -47.747  11.419  23.666  0.00  0.00     0.002 A 
ATOM      9  C   UNL d   1     -48.209  12.050  23.403  0.00  0.00     0.020 A 
ENDBRANCH   1   3
BRANCH   1  10
ATOM     10  C   UNL d   1     -48.985  13.612  23.341  0.00  0.00     0.108 C 
BRANCH  10  11
ATOM     11  C   UNL d   1     -49.499  14.190  23.043  0.00  0.00     0.023 A 
ATOM     12  C   UNL d   1     -50.092  13.992  22.494  0.00  0.00     0.022 A 
ATOM     13  C   UNL d   1     -50.604  14.555  22.195  0.00  0.00     0.099 A 
ATOM     14  N   UNL d   1     -50.532  15.340  22.442  0.00  0.00    -0.242 NA
ATOM     15  C   UNL d   1     -49.933  15.540  22.998  0.00  0.00     0.099 A 
ATOM     16  C   UNL d   1     -49.425  14.967  23.291  0.00  0.00     0.022 A 
ENDBRANCH  10  11
ENDBRANCH   1  10
TORSDOF 3
ENDMDL
