MODEL 1
REMARK VINA RESULT:      54.2      0.000      0.000
REMARK  3 active torsions:
REMARK  status: ('A' for Active; 'I' for Inactive)
REMARK    1  A    between atoms: C_7  and  N_1 
REMARK    2  A    between atoms: C_8  and  C_2 
REMARK    3  A    between atoms: N_4  and  C_9 
ROOT
ATOM      1  N   UNL d   1      60.085  49.329  50.227  0.00  0.00    -0.211 N 
ATOM      2  C   UNL d   1      60.643  49.499  50.813  0.00  0.00     0.105 A 
ATOM      3  N   UNL d   1      60.475  49.334  49.493  0.00  0.00    -0.060 NA
ATOM      4  N   UNL d   1      61.272  49.507  49.627  0.00  0.00    -0.127 NA
ATOM      5  C   UNL d   1      61.370  49.607  50.443  0.00  0.00     0.143 A 
ENDROOT
BRANCH   1   6
ATOM      6  C   UNL d   1      59.284  49.181  50.347  0.00  0.00     0.085 A 
ATOM      7  C   UNL d   1      58.720  49.563  49.882  0.00  0.00     0.021 A 
ATOM      8  C   UNL d   1      57.917  49.418  49.999  0.00  0.00     0.025 A 
ATOM      9  C   UNL d   1      57.678  48.886  50.586  0.00  0.00     0.127 A 
ATOM     10  C   UNL d   1      58.238  48.503  51.052  0.00  0.00     0.025 A 
ATOM     11  C   UNL d   1      59.041  48.650  50.934  0.00  0.00     0.021 A 
BRANCH   9  12
ATOM     12  N   UNL d   1      56.872  48.741  50.702  0.00  0.00    -0.114 N 
ATOM     13  O   UNL d   1      56.335  49.367  50.664  0.00  0.00    -0.532 OA
ATOM     14  O   UNL d   1      56.608  47.983  50.854  0.00  0.00    -0.532 OA
ENDBRANCH   9  12
ENDBRANCH   1   6
BRANCH   2  15
ATOM     15  C   UNL d   1      60.496  49.550  51.623  0.00  0.00     0.019 A 
ATOM     16  C   UNL d   1      61.125  49.562  52.156  0.00  0.00     0.002 A 
ATOM     17  C   UNL d   1      60.981  49.613  52.963  0.00  0.00     0.011 A 
ATOM     18  C   UNL d   1      60.200  49.653  53.247  0.00  0.00     0.058 A 
ATOM     19  C   UNL d   1      59.566  49.641  52.708  0.00  0.00     0.011 A 
ATOM     20 CL   UNL d   1      60.057  49.704  54.053  0.00  0.00    -0.082 Cl
ATOM     21  C   UNL d   1      59.713  49.590  51.902  0.00  0.00     0.002 A 
ENDBRANCH   2  15
TORSDOF 3
ENDMDL
MODEL 2
REMARK VINA RESULT:      55.8      2.159      3.484
REMARK  3 active torsions:
REMARK  status: ('A' for Active; 'I' for Inactive)
REMARK    1  A    between atoms: C_7  and  N_1 
REMARK    2  A    between atoms: C_8  and  C_2 
REMARK    3  A    between atoms: N_4  and  C_9 
ROOT
ATOM      1  N   UNL d   1      57.377  49.181  50.398  0.00  0.00    -0.211 N 
ATOM      2  C   UNL d   1      56.713  49.209  50.891  0.00  0.00     0.105 A 
ATOM      3  N   UNL d   1      57.112  49.052  49.621  0.00  0.00    -0.060 NA
ATOM      4  N   UNL d   1      56.287  49.001  49.636  0.00  0.00    -0.127 NA
ATOM      5  C   UNL d   1      56.046  49.099  50.422  0.00  0.00     0.143 A 
ENDROOT
BRANCH   1   6
ATOM      6  C   UNL d   1      58.161  49.265  50.634  0.00  0.00     0.085 A 
ATOM      7  C   UNL d   1      58.388  49.051  51.397  0.00  0.00     0.021 A 
ATOM      8  C   UNL d   1      59.172  49.134  51.637  0.00  0.00     0.025 A 
ATOM      9  C   UNL d   1      59.733  49.433  51.107  0.00  0.00     0.127 A 
ATOM     10  C   UNL d   1      59.510  49.648  50.345  0.00  0.00     0.025 A 
ATOM     11  C   UNL d   1      58.725  49.564  50.107  0.00  0.00     0.021 A 
BRANCH   9  12
ATOM     12  N   UNL d   1      60.520  49.516  51.349  0.00  0.00    -0.114 N 
ATOM     13  O   UNL d   1      61.128  49.403  50.803  0.00  0.00    -0.532 OA
ATOM     14  O   UNL d   1      60.693  49.707  52.124  0.00  0.00    -0.532 OA
ENDBRANCH   9  12
ENDBRANCH   1   6
BRANCH   2  15
ATOM     15  C   UNL d   1      56.721  49.327  51.708  0.00  0.00     0.019 A 
ATOM     16  C   UNL d   1      57.411  49.186  52.138  0.00  0.00     0.002 A 
ATOM     17  C   UNL d   1      57.421  49.302  52.951  0.00  0.00     0.011 A 
ATOM     18  C   UNL d   1      56.736  49.563  53.345  0.00  0.00     0.058 A 
ATOM     19  C   UNL d   1      56.041  49.705  52.909  0.00  0.00     0.011 A 
ATOM     20 CL   UNL d   1      56.747  49.679  54.157  0.00  0.00    -0.082 Cl
ATOM     21  C   UNL d   1      56.034  49.588  52.097  0.00  0.00     0.002 A 
ENDBRANCH   2  15
TORSDOF 3
ENDMDL
