MODEL 1
REMARK VINA RESULT:      71.5      0.000      0.000
REMARK  4 active torsions:
REMARK  status: ('A' for Active; 'I' for Inactive)
REMARK    1  A    between atoms: C_5  and  C_1 
REMARK    2  A    between atoms: C_2  and  C_5 
REMARK    3  A    between atoms: C_12  and  N_3 
REMARK    4  A    between atoms: C_13  and  N_4 
ROOT
ATOM      1  C   UNL d   1      59.839  48.792  50.865  0.00  0.00     0.133 C 
ATOM      2 CL   UNL d   1      59.266  48.236  51.109  0.00  0.00    -0.076 Cl
ENDROOT
BRANCH   1   3
ATOM      3  C   UNL d   1      60.455  49.014  51.365  0.00  0.00     0.202 A 
ATOM      4  N   UNL d   1      61.055  48.496  51.516  0.00  0.00    -0.191 N 
ATOM      5  N   UNL d   1      61.588  48.859  52.027  0.00  0.00    -0.039 NA
ATOM      6  N   UNL d   1      61.312  49.604  52.191  0.00  0.00    -0.022 NA
ATOM      7  N   UNL d   1      60.608  49.704  51.781  0.00  0.00    -0.107 NA
BRANCH   4   8
ATOM      8  C   UNL d   1      61.126  47.740  51.215  0.00  0.00     0.086 A 
ATOM      9  C   UNL d   1      61.598  47.599  50.554  0.00  0.00     0.019 A 
ATOM     10  C   UNL d   1      61.668  46.835  50.251  0.00  0.00     0.002 A 
ATOM     11  C   UNL d   1      61.264  46.214  50.610  0.00  0.00     0.000 A 
ATOM     12  C   UNL d   1      60.789  46.350  51.274  0.00  0.00     0.002 A 
ATOM     13  C   UNL d   1      61.331  45.433  50.306  0.00  0.00     0.000 C 
ATOM     14  C   UNL d   1      60.722  47.114  51.573  0.00  0.00     0.019 A 
ENDBRANCH   4   8
ENDBRANCH   1   3
BRANCH   1  15
ATOM     15  C   UNL d   1      59.788  49.125  50.106  0.00  0.00     0.202 A 
ATOM     16  N   UNL d   1      59.113  49.425  49.755  0.00  0.00    -0.191 N 
ATOM     17  N   UNL d   1      59.316  49.696  49.009  0.00  0.00    -0.039 NA
ATOM     18  N   UNL d   1      60.117  49.561  48.904  0.00  0.00    -0.022 NA
ATOM     19  N   UNL d   1      60.409  49.214  49.570  0.00  0.00    -0.107 NA
BRANCH  16  20
ATOM     20  C   UNL d   1      58.348  49.465  50.064  0.00  0.00     0.086 A 
ATOM     21  C   UNL d   1      58.226  49.665  50.860  0.00  0.00     0.019 A 
ATOM     22  C   UNL d   1      57.461  49.705  51.169  0.00  0.00     0.002 A 
ATOM     23  C   UNL d   1      56.816  49.545  50.682  0.00  0.00     0.000 A 
ATOM     24  C   UNL d   1      56.929  49.348  49.897  0.00  0.00     0.002 A 
ATOM     25  C   UNL d   1      56.035  49.584  50.987  0.00  0.00     0.000 C 
ATOM     26  C   UNL d   1      57.694  49.308  49.589  0.00  0.00     0.019 A 
ENDBRANCH  16  20
ENDBRANCH   1  15
TORSDOF 4
ENDMDL
