MODEL 1
REMARK VINA RESULT:       0.4      0.000      0.000
REMARK  6 active torsions:
REMARK  status: ('A' for Active; 'I' for Inactive)
REMARK    1  A    between atoms: C_5  and  C_1 
REMARK    2  A    between atoms: N_8  and  C_5 
REMARK    3  A    between atoms: C_9  and  C_5 
REMARK    4  A    between atoms: C_19  and  C_7 
REMARK    5  A    between atoms: C_10  and  N_8 
REMARK    6  A    between atoms: O_20  and  C_16 
ROOT
ATOM      1  C   UNL d   1      58.145   0.026  30.588  0.00  0.00     0.109 C 
ENDROOT
BRANCH   1   2
ATOM      2  C   UNL d   1      57.557   0.042  31.169  0.00  0.00     0.160 A 
ATOM      3  C   UNL d   1      56.803   0.358  31.016  0.00  0.00     0.258 A 
ATOM      4  C   UNL d   1      56.227   0.360  31.628  0.00  0.00     0.238 A 
ATOM      5  O   UNL d   1      56.628   0.662  30.279  0.00  0.00    -0.281 OA
ATOM      6  O   UNL d   1      55.472   0.676  31.474  0.00  0.00    -0.283 OA
ATOM      7  C   UNL d   1      56.402   0.056  32.365  0.00  0.00     0.073 A 
ATOM      8  C   UNL d   1      57.156  -0.260  32.519  0.00  0.00     0.146 A 
ATOM      9  O   UNL d   1      57.725  -0.268  31.933  0.00  0.00    -0.299 OA
BRANCH   8  10
ATOM     10  C   UNL d   1      57.326  -0.568  33.275  0.00  0.00     0.259 C 
ATOM     11  O   UNL d   1      57.391  -0.066  33.947  0.00  0.00    -0.281 OA
ENDBRANCH   8  10
ENDBRANCH   1   2
BRANCH   1  12
ATOM     12  N   UNL d   1      58.630   0.682  30.447  0.00  0.00    -0.225 NA
BRANCH  12  13
ATOM     13  C   UNL d   1      59.411   0.681  30.699  0.00  0.00     0.163 A 
ATOM     14  N   UNL d   1      59.588   0.679  31.505  0.00  0.00    -0.225 NA
ATOM     15  C   UNL d   1      60.365   0.678  31.755  0.00  0.00     0.101 A 
ATOM     16  C   UNL d   1      60.974   0.678  31.201  0.00  0.00     0.021 A 
ATOM     17  C   UNL d   1      60.818   0.680  30.391  0.00  0.00     0.005 A 
ATOM     18  C   UNL d   1      60.036   0.681  30.139  0.00  0.00     0.039 A 
ENDBRANCH  12  13
ENDBRANCH   1  12
BRANCH   1  19
ATOM     19  C   UNL d   1      58.246  -0.669  30.136  0.00  0.00     0.020 A 
ATOM     20  C   UNL d   1      58.536  -1.355  30.490  0.00  0.00     0.004 A 
ATOM     21  C   UNL d   1      58.633  -2.035  30.039  0.00  0.00     0.024 A 
ATOM     22  C   UNL d   1      58.443  -2.033  29.238  0.00  0.00     0.094 A 
ATOM     23  C   UNL d   1      58.152  -1.350  28.878  0.00  0.00     0.024 A 
ATOM     24  C   UNL d   1      58.056  -0.667  29.334  0.00  0.00     0.004 A 
BRANCH  22  25
ATOM     25  O   UNL d   1      58.543  -2.728  28.781  0.00  0.00    -0.328 OA
ATOM     26  C   UNL d   1      59.147  -3.294  28.971  0.00  0.00     0.181 C 
ENDBRANCH  22  25
ENDBRANCH   1  19
TORSDOF 6
ENDMDL
MODEL 2
REMARK VINA RESULT:       2.2      1.197      3.547
REMARK  6 active torsions:
REMARK  status: ('A' for Active; 'I' for Inactive)
REMARK    1  A    between atoms: C_5  and  C_1 
REMARK    2  A    between atoms: N_8  and  C_5 
REMARK    3  A    between atoms: C_9  and  C_5 
REMARK    4  A    between atoms: C_19  and  C_7 
REMARK    5  A    between atoms: C_10  and  N_8 
REMARK    6  A    between atoms: O_20  and  C_16 
ROOT
ATOM      1  C   UNL d   1      58.644  -0.899  29.576  0.00  0.00     0.109 C 
ENDROOT
BRANCH   1   2
ATOM      2  C   UNL d   1      58.876  -1.681  29.447  0.00  0.00     0.160 A 
ATOM      3  C   UNL d   1      58.404  -2.207  29.008  0.00  0.00     0.258 A 
ATOM      4  C   UNL d   1      58.667  -2.998  28.894  0.00  0.00     0.238 A 
ATOM      5  O   UNL d   1      57.695  -1.956  28.693  0.00  0.00    -0.281 OA
ATOM      6  O   UNL d   1      58.195  -3.524  28.455  0.00  0.00    -0.283 OA
ATOM      7  C   UNL d   1      59.377  -3.249  29.209  0.00  0.00     0.073 A 
ATOM      8  C   UNL d   1      59.850  -2.723  29.648  0.00  0.00     0.146 A 
ATOM      9  O   UNL d   1      59.606  -1.953  29.766  0.00  0.00    -0.299 OA
BRANCH   8  10
ATOM     10  C   UNL d   1      60.574  -2.989  29.967  0.00  0.00     0.259 C 
ATOM     11  O   UNL d   1      60.976  -3.652  29.641  0.00  0.00    -0.281 OA
ENDBRANCH   8  10
ENDBRANCH   1   2
BRANCH   1  12
ATOM     12  N   UNL d   1      58.877  -0.290  29.066  0.00  0.00    -0.225 NA
BRANCH  12  13
ATOM     13  C   UNL d   1      59.629   0.034  29.124  0.00  0.00     0.163 A 
ATOM     14  N   UNL d   1      59.888   0.360  29.837  0.00  0.00    -0.225 NA
ATOM     15  C   UNL d   1      60.636   0.682  29.893  0.00  0.00     0.101 A 
ATOM     16  C   UNL d   1      61.133   0.682  29.238  0.00  0.00     0.021 A 
ATOM     17  C   UNL d   1      60.893   0.361  28.517  0.00  0.00     0.005 A 
ATOM     18  C   UNL d   1      60.141   0.037  28.459  0.00  0.00     0.039 A 
ENDBRANCH  12  13
ENDBRANCH   1  12
BRANCH   1  19
ATOM     19  C   UNL d   1      58.164  -0.724  30.237  0.00  0.00     0.020 A 
ATOM     20  C   UNL d   1      57.878  -1.333  30.714  0.00  0.00     0.004 A 
ATOM     21  C   UNL d   1      57.406  -1.153  31.362  0.00  0.00     0.024 A 
ATOM     22  C   UNL d   1      57.220  -0.369  31.536  0.00  0.00     0.094 A 
ATOM     23  C   UNL d   1      57.503   0.243  31.062  0.00  0.00     0.024 A 
ATOM     24  C   UNL d   1      57.978   0.060  30.410  0.00  0.00     0.004 A 
BRANCH  22  25
ATOM     25  O   UNL d   1      56.738  -0.190  32.198  0.00  0.00    -0.328 OA
ATOM     26  C   UNL d   1      56.957   0.421  32.746  0.00  0.00     0.181 C 
ENDBRANCH  22  25
ENDBRANCH   1  19
TORSDOF 6
ENDMDL
MODEL 3
REMARK VINA RESULT:       2.9      1.644      2.272
REMARK  6 active torsions:
REMARK  status: ('A' for Active; 'I' for Inactive)
REMARK    1  A    between atoms: C_5  and  C_1 
REMARK    2  A    between atoms: N_8  and  C_5 
REMARK    3  A    between atoms: C_9  and  C_5 
REMARK    4  A    between atoms: C_19  and  C_7 
REMARK    5  A    between atoms: C_10  and  N_8 
REMARK    6  A    between atoms: O_20  and  C_16 
ROOT
ATOM      1  C   UNL d   1      57.051  -0.026  32.101  0.00  0.00     0.109 C 
ENDROOT
BRANCH   1   2
ATOM      2  C   UNL d   1      56.466  -0.448  32.505  0.00  0.00     0.160 A 
ATOM      3  C   UNL d   1      55.735  -0.101  32.697  0.00  0.00     0.258 A 
ATOM      4  C   UNL d   1      55.160  -0.556  33.108  0.00  0.00     0.238 A 
ATOM      5  O   UNL d   1      55.581   0.672  32.488  0.00  0.00    -0.281 OA
ATOM      6  O   UNL d   1      54.428  -0.208  33.301  0.00  0.00    -0.283 OA
ATOM      7  C   UNL d   1      55.314  -1.330  33.318  0.00  0.00     0.073 A 
ATOM      8  C   UNL d   1      56.046  -1.677  33.125  0.00  0.00     0.146 A 
ATOM      9  O   UNL d   1      56.613  -1.246  32.726  0.00  0.00    -0.299 OA
BRANCH   8  10
ATOM     10  C   UNL d   1      56.195  -2.469  33.343  0.00  0.00     0.259 C 
ATOM     11  O   UNL d   1      55.734  -2.853  33.933  0.00  0.00    -0.281 OA
ENDBRANCH   8  10
ENDBRANCH   1   2
BRANCH   1  12
ATOM     12  N   UNL d   1      57.358   0.682  32.402  0.00  0.00    -0.225 NA
BRANCH  12  13
ATOM     13  C   UNL d   1      58.037   0.675  32.864  0.00  0.00     0.163 A 
ATOM     14  N   UNL d   1      57.980   0.661  33.687  0.00  0.00    -0.225 NA
ATOM     15  C   UNL d   1      58.656   0.655  34.145  0.00  0.00     0.101 A 
ATOM     16  C   UNL d   1      59.396   0.661  33.785  0.00  0.00     0.021 A 
ATOM     17  C   UNL d   1      59.474   0.675  32.964  0.00  0.00     0.005 A 
ATOM     18  C   UNL d   1      58.794   0.681  32.502  0.00  0.00     0.039 A 
ENDBRANCH  12  13
ENDBRANCH   1  12
BRANCH   1  19
ATOM     19  C   UNL d   1      57.335  -0.324  31.374  0.00  0.00     0.020 A 
ATOM     20  C   UNL d   1      57.196   0.089  30.674  0.00  0.00     0.004 A 
ATOM     21  C   UNL d   1      57.479  -0.211  29.963  0.00  0.00     0.024 A 
ATOM     22  C   UNL d   1      57.897  -0.920  29.948  0.00  0.00     0.094 A 
ATOM     23  C   UNL d   1      58.038  -1.338  30.645  0.00  0.00     0.024 A 
ATOM     24  C   UNL d   1      57.753  -1.034  31.359  0.00  0.00     0.004 A 
BRANCH  22  25
ATOM     25  O   UNL d   1      58.184  -1.223  29.221  0.00  0.00    -0.328 OA
ATOM     26  C   UNL d   1      58.783  -0.813  28.781  0.00  0.00     0.181 C 
ENDBRANCH  22  25
ENDBRANCH   1  19
TORSDOF 6
ENDMDL
