MODEL 1
REMARK VINA RESULT:       3.5      0.000      0.000
REMARK  2 active torsions:
REMARK  status: ('A' for Active; 'I' for Inactive)
REMARK    1  A    between atoms: C_4  and  C_3 
REMARK    2  A    between atoms: S_11  and  C_6 
ROOT
ATOM      1  N   UNL d   1      23.651  12.991  -2.589  0.00  0.00    -0.146 NA
ATOM      2  N   UNL d   1      23.872  12.689  -3.326  0.00  0.00    -0.142 NA
ATOM      3  C   UNL d   1      23.989  12.686  -1.904  0.00  0.00     0.126 A 
ATOM      4  C   UNL d   1      24.431  12.084  -3.374  0.00  0.00     0.128 A 
ATOM      5  C   UNL d   1      24.547  12.081  -1.951  0.00  0.00     0.025 A 
ATOM      6  C   UNL d   1      24.768  11.780  -2.685  0.00  0.00     0.029 A 
ENDROOT
BRANCH   3   7
ATOM      7  C   UNL d   1      23.774  12.980  -1.170  0.00  0.00     0.119 A 
ATOM      8  O   UNL d   1      23.100  12.770  -0.745  0.00  0.00    -0.304 OA
ATOM      9  C   UNL d   1      23.092  13.192  -0.034  0.00  0.00     0.123 A 
ATOM     10  C   UNL d   1      23.771  13.671  -0.018  0.00  0.00     0.029 A 
ATOM     11  C   UNL d   1      24.189  13.537  -0.720  0.00  0.00     0.028 A 
ENDBRANCH   3   7
BRANCH   4  12
ATOM     12  S   UNL d   1      24.653  11.782  -4.111  0.00  0.00    -0.092 SA
ATOM     13  C   UNL d   1      24.767  12.293  -4.749  0.00  0.00     0.076 C 
ENDBRANCH   4  12
TORSDOF 2
ENDMDL
MODEL 2
REMARK VINA RESULT:       5.3      9.794     10.318
REMARK  2 active torsions:
REMARK  status: ('A' for Active; 'I' for Inactive)
REMARK    1  A    between atoms: C_4  and  C_3 
REMARK    2  A    between atoms: S_11  and  C_6 
ROOT
ATOM      1  N   UNL d   1      14.272  12.528  -2.729  0.00  0.00    -0.146 NA
ATOM      2  N   UNL d   1      13.926  12.540  -3.481  0.00  0.00    -0.142 NA
ATOM      3  C   UNL d   1      13.889  12.148  -2.108  0.00  0.00     0.126 A 
ATOM      4  C   UNL d   1      13.199  12.171  -3.606  0.00  0.00     0.128 A 
ATOM      5  C   UNL d   1      13.162  11.779  -2.234  0.00  0.00     0.025 A 
ATOM      6  C   UNL d   1      12.818  11.791  -2.981  0.00  0.00     0.029 A 
ENDROOT
BRANCH   3   7
ATOM      7  C   UNL d   1      14.226  12.132  -1.362  0.00  0.00     0.119 A 
ATOM      8  O   UNL d   1      14.959  12.445  -1.158  0.00  0.00    -0.304 OA
ATOM      9  C   UNL d   1      15.090  12.313  -0.351  0.00  0.00     0.123 A 
ATOM     10  C   UNL d   1      14.426  11.912  -0.052  0.00  0.00     0.029 A 
ATOM     11  C   UNL d   1      13.896  11.803  -0.678  0.00  0.00     0.028 A 
ENDBRANCH   3   7
BRANCH   4  12
ATOM     12  S   UNL d   1      12.853  12.183  -4.357  0.00  0.00    -0.092 SA
ATOM     13  C   UNL d   1      13.232  11.818  -4.992  0.00  0.00     0.076 C 
ENDBRANCH   4  12
TORSDOF 2
ENDMDL
MODEL 3
REMARK VINA RESULT:       5.4      9.832     10.586
REMARK  2 active torsions:
REMARK  status: ('A' for Active; 'I' for Inactive)
REMARK    1  A    between atoms: C_4  and  C_3 
REMARK    2  A    between atoms: S_11  and  C_6 
ROOT
ATOM      1  N   UNL d   1      14.496  12.657  -2.373  0.00  0.00    -0.146 NA
ATOM      2  N   UNL d   1      14.777  12.739  -1.599  0.00  0.00    -0.142 NA
ATOM      3  C   UNL d   1      13.845  12.178  -2.523  0.00  0.00     0.126 A 
ATOM      4  C   UNL d   1      14.405  12.340  -0.981  0.00  0.00     0.128 A 
ATOM      5  C   UNL d   1      13.473  11.779  -1.904  0.00  0.00     0.025 A 
ATOM      6  C   UNL d   1      13.752  11.860  -1.134  0.00  0.00     0.029 A 
ENDROOT
BRANCH   3   7
ATOM      7  C   UNL d   1      13.561  12.092  -3.286  0.00  0.00     0.119 A 
ATOM      8  O   UNL d   1      13.961  12.298  -3.975  0.00  0.00    -0.304 OA
ATOM      9  C   UNL d   1      13.481  12.122  -4.626  0.00  0.00     0.123 A 
ATOM     10  C   UNL d   1      12.771  11.802  -4.334  0.00  0.00     0.029 A 
ATOM     11  C   UNL d   1      12.824  11.785  -3.508  0.00  0.00     0.028 A 
ENDBRANCH   3   7
BRANCH   4  12
ATOM     12  S   UNL d   1      14.686  12.422  -0.207  0.00  0.00    -0.092 SA
ATOM     13  C   UNL d   1      15.207  13.033  -0.019  0.00  0.00     0.076 C 
ENDBRANCH   4  12
TORSDOF 2
ENDMDL
