MODEL 1
REMARK VINA RESULT:      31.4      0.000      0.000
REMARK  4 active torsions:
REMARK  status: ('A' for Active; 'I' for Inactive)
REMARK    1  A    between atoms: C_7  and  N_2 
REMARK    2  A    between atoms: C_15  and  C_7 
REMARK    3  A    between atoms: C_8  and  O_14 
REMARK    4  A    between atoms: O_14  and  C_15 
ROOT
ATOM      1  C   UNL d   1     -58.645 -98.783 -45.322  0.00  0.00     0.296 A 
ATOM      2  N   UNL d   1     -58.063 -98.770 -44.742  0.00  0.00    -0.266 N 
ATOM      3  S   UNL d   1     -59.389 -98.789 -44.936  0.00  0.00    -0.025 SA
ATOM      4  C   UNL d   1     -58.436 -98.767 -44.001  0.00  0.00     0.074 A 
ATOM      5  C   UNL d   1     -59.248 -98.779 -44.120  0.00  0.00     0.050 A 
ATOM      6  O   UNL d   1     -58.527 -98.790 -46.135  0.00  0.00    -0.259 OA
ATOM      7  C   UNL d   1     -58.126 -98.755 -43.235  0.00  0.00     0.018 A 
ATOM      8  C   UNL d   1     -59.769 -98.779 -43.474  0.00  0.00     0.008 A 
ATOM      9  C   UNL d   1     -58.642 -98.756 -42.588  0.00  0.00     0.002 A 
ATOM     10  C   UNL d   1     -59.455 -98.767 -42.707  0.00  0.00     0.001 A 
ENDROOT
BRANCH   2  11
ATOM     11  C   UNL d   1     -57.249 -98.760 -44.873  0.00  0.00     0.110 C 
BRANCH  11  12
ATOM     12  C   UNL d   1     -56.847 -99.458 -45.044  0.00  0.00     0.142 C 
BRANCH  12  13
ATOM     13  O   UNL d   1     -56.027 -99.514 -44.944  0.00  0.00    -0.304 OA
BRANCH  13  14
ATOM     14  C   UNL d   1     -55.699-100.155 -44.543  0.00  0.00     0.100 A 
ATOM     15  C   UNL d   1     -55.392-100.051 -43.783  0.00  0.00     0.025 A 
ATOM     16  C   UNL d   1     -55.066-100.689 -43.385  0.00  0.00     0.002 A 
ATOM     17  C   UNL d   1     -55.047-101.432 -43.745  0.00  0.00     0.000 A 
ATOM     18  C   UNL d   1     -55.356-101.531 -44.506  0.00  0.00     0.002 A 
ATOM     19  C   UNL d   1     -54.716-102.075 -43.339  0.00  0.00     0.000 C 
ATOM     20  C   UNL d   1     -55.681-100.886 -44.899  0.00  0.00     0.025 A 
ENDBRANCH  13  14
ENDBRANCH  12  13
ENDBRANCH  11  12
ENDBRANCH   2  11
TORSDOF 4
ENDMDL
