MODEL 1
REMARK VINA RESULT:      -4.3      0.000      0.000
REMARK  4 active torsions:
REMARK  status: ('A' for Active; 'I' for Inactive)
REMARK    1  A    between atoms: C_12  and  C_2 
REMARK       I    between atoms: C_3  and  N_8 
REMARK    2  A    between atoms: C_5  and  C_3 
REMARK    3  A    between atoms: C_9  and  C_4 
REMARK    4  A    between atoms: N_8  and  C_13 
ROOT
ATOM      1  C   UNL d   1      57.768  -0.055  31.077  0.00  0.00     0.018 A 
ATOM      2  C   UNL d   1      58.932   0.363  29.987  0.00  0.00     0.085 A 
ATOM      3  C   UNL d   1      58.555   0.003  31.313  0.00  0.00     0.003 A 
ATOM      4  C   UNL d   1      57.554   0.097  30.287  0.00  0.00     0.003 A 
ATOM      5  C   UNL d   1      58.146   0.308  29.741  0.00  0.00     0.019 A 
ATOM      6  C   UNL d   1      59.134   0.210  30.774  0.00  0.00     0.019 A 
ENDROOT
BRANCH   1   7
ATOM      7  C   UNL d   1      57.179  -0.266  31.627  0.00  0.00     0.088 A 
ATOM      8  N   UNL d   1      56.892   0.202  32.235  0.00  0.00    -0.239 NA
ATOM      9  C   UNL d   1      56.319  -0.222  32.641  0.00  0.00     0.111 A 
ATOM     10  S   UNL d   1      56.249  -0.963  32.281  0.00  0.00    -0.066 SA
ATOM     11  C   UNL d   1      56.780  -0.986  31.657  0.00  0.00     0.056 A 
BRANCH   9  12
ATOM     12  C   UNL d   1      55.885   0.042  33.296  0.00  0.00     0.024 A 
ATOM     13  C   UNL d   1      55.157   0.414  33.185  0.00  0.00     0.002 A 
ATOM     14  C   UNL d   1      54.724   0.678  33.849  0.00  0.00     0.000 A 
ATOM     15  C   UNL d   1      55.024   0.566  34.609  0.00  0.00     0.000 A 
ATOM     16  C   UNL d   1      55.761   0.189  34.719  0.00  0.00     0.000 A 
ATOM     17  C   UNL d   1      56.187  -0.071  34.065  0.00  0.00     0.002 A 
ENDBRANCH   9  12
ENDBRANCH   1   7
BRANCH   2  18
ATOM     18  N   UNL d   1      59.520   0.574  29.440  0.00  0.00    -0.208 NA
ATOM     19  C   UNL d   1      59.905  -0.009  29.002  0.00  0.00     0.280 C 
ATOM     20  O   UNL d   1      60.494   0.200  28.456  0.00  0.00    -0.265 OA
BRANCH  19  21
ATOM     21  C   UNL d   1      59.707  -0.814  29.106  0.00  0.00     0.069 A 
ATOM     22  C   UNL d   1      60.294  -1.347  29.306  0.00  0.00     0.062 A 
ATOM     23 CL   UNL d   1      61.074  -1.098  29.406  0.00  0.00    -0.082 Cl
ATOM     24  C   UNL d   1      60.100  -2.140  29.408  0.00  0.00     0.012 A 
ATOM     25  C   UNL d   1      59.327  -2.393  29.310  0.00  0.00     0.001 A 
ATOM     26  C   UNL d   1      58.744  -1.852  29.109  0.00  0.00     0.000 A 
ATOM     27  C   UNL d   1      58.932  -1.056  29.005  0.00  0.00     0.006 A 
ENDBRANCH  19  21
ENDBRANCH   2  18
TORSDOF 4
ENDMDL
