MODEL 1
REMARK VINA RESULT:      -3.6      0.000      0.000
REMARK  3 active torsions:
REMARK  status: ('A' for Active; 'I' for Inactive)
REMARK    1  A    between atoms: C_2  and  S_1 
REMARK    2  A    between atoms: N_3  and  S_1 
REMARK    3  A    between atoms: C_9  and  N_3 
ROOT
ATOM      1  S   UNL d   1     -41.591-122.437 -51.460  0.00  0.00     0.285 S 
ATOM      2  O   UNL d   1     -41.411-121.729 -51.089  0.00  0.00    -0.198 OA
ATOM      3  O   UNL d   1     -41.774-123.152 -51.831  0.00  0.00    -0.198 OA
ENDROOT
BRANCH   1   4
ATOM      4  C   UNL d   1     -42.060-122.655 -50.815  0.00  0.00     0.105 A 
ATOM      5  C   UNL d   1     -42.754-122.245 -50.650  0.00  0.00     0.013 A 
ATOM      6  C   UNL d   1     -43.219-122.459 -50.013  0.00  0.00     0.001 A 
ATOM      7  C   UNL d   1     -43.918-122.047 -49.846  0.00  0.00     0.000 C 
ATOM      8  C   UNL d   1     -42.996-123.089 -49.528  0.00  0.00     0.000 A 
ATOM      9  C   UNL d   1     -42.299-123.502 -49.691  0.00  0.00     0.001 A 
ATOM     10  C   UNL d   1     -43.461-123.311 -48.882  0.00  0.00     0.000 C 
ATOM     11  C   UNL d   1     -41.828-123.286 -50.336  0.00  0.00     0.012 A 
ATOM     12  C   UNL d   1     -41.136-123.698 -50.497  0.00  0.00     0.001 C 
ENDBRANCH   1   4
BRANCH   1  13
ATOM     13  N   UNL d   1     -41.123-122.221 -52.107  0.00  0.00    -0.159 NA
BRANCH  13  14
ATOM     14  C   UNL d   1     -41.411-122.312 -52.868  0.00  0.00     0.089 A 
ATOM     15  C   UNL d   1     -41.235-122.992 -53.301  0.00  0.00     0.015 A 
ATOM     16  C   UNL d   1     -41.522-123.086 -54.063  0.00  0.00     0.100 A 
ATOM     17  C   UNL d   1     -41.584-123.535 -54.749  0.00  0.00     0.029 C 
ATOM     18  C   UNL d   1     -41.147-123.817 -54.111  0.00  0.00     0.029 C 
ATOM     19  N   UNL d   1     -41.989-122.501 -54.399  0.00  0.00    -0.295 NA
ATOM     20  C   UNL d   1     -42.169-121.820 -53.974  0.00  0.00     0.100 A 
ATOM     21  C   UNL d   1     -41.881-121.726 -53.211  0.00  0.00     0.015 A 
ATOM     22  C   UNL d   1     -42.543-121.087 -53.920  0.00  0.00     0.029 C 
ATOM     23  C   UNL d   1     -42.608-121.537 -54.615  0.00  0.00     0.029 C 
ENDBRANCH  13  14
ENDBRANCH   1  13
TORSDOF 3
ENDMDL
MODEL 2
REMARK VINA RESULT:      -2.7      0.910      3.847
REMARK  3 active torsions:
REMARK  status: ('A' for Active; 'I' for Inactive)
REMARK    1  A    between atoms: C_2  and  S_1 
REMARK    2  A    between atoms: N_3  and  S_1 
REMARK    3  A    between atoms: C_9  and  N_3 
ROOT
ATOM      1  S   UNL d   1     -41.359-122.338 -52.199  0.00  0.00     0.285 S 
ATOM      2  O   UNL d   1     -41.490-121.535 -52.295  0.00  0.00    -0.198 OA
ATOM      3  O   UNL d   1     -41.229-123.148 -52.107  0.00  0.00    -0.198 OA
ENDROOT
BRANCH   1   4
ATOM      4  C   UNL d   1     -41.589-122.468 -52.983  0.00  0.00     0.105 A 
ATOM      5  C   UNL d   1     -41.933-121.860 -53.419  0.00  0.00     0.013 A 
ATOM      6  C   UNL d   1     -42.161-121.986 -54.194  0.00  0.00     0.001 A 
ATOM      7  C   UNL d   1     -42.508-121.376 -54.634  0.00  0.00     0.000 C 
ATOM      8  C   UNL d   1     -42.047-122.724 -54.546  0.00  0.00     0.000 A 
ATOM      9  C   UNL d   1     -41.701-123.335 -54.110  0.00  0.00     0.001 A 
ATOM     10  C   UNL d   1     -42.275-122.859 -55.330  0.00  0.00     0.000 C 
ATOM     11  C   UNL d   1     -41.471-123.208 -53.326  0.00  0.00     0.012 A 
ATOM     12  C   UNL d   1     -41.127-123.817 -52.894  0.00  0.00     0.001 C 
ENDBRANCH   1   4
BRANCH   1  13
ATOM     13  N   UNL d   1     -41.130-122.211 -51.415  0.00  0.00    -0.159 NA
BRANCH  13  14
ATOM     14  C   UNL d   1     -41.601-122.483 -50.803  0.00  0.00     0.089 A 
ATOM     15  C   UNL d   1     -41.306-123.039 -50.267  0.00  0.00     0.015 A 
ATOM     16  C   UNL d   1     -41.775-123.313 -49.653  0.00  0.00     0.100 A 
ATOM     17  C   UNL d   1     -41.872-123.792 -48.992  0.00  0.00     0.029 C 
ATOM     18  C   UNL d   1     -41.156-123.793 -49.399  0.00  0.00     0.029 C 
ATOM     19  N   UNL d   1     -42.542-123.035 -49.569  0.00  0.00    -0.295 NA
ATOM     20  C   UNL d   1     -42.843-122.481 -50.098  0.00  0.00     0.100 A 
ATOM     21  C   UNL d   1     -42.373-122.206 -50.713  0.00  0.00     0.015 A 
ATOM     22  C   UNL d   1     -43.459-121.999 -50.356  0.00  0.00     0.029 C 
ATOM     23  C   UNL d   1     -43.561-122.481 -49.689  0.00  0.00     0.029 C 
ENDBRANCH  13  14
ENDBRANCH   1  13
TORSDOF 3
ENDMDL
MODEL 3
REMARK VINA RESULT:      -2.6      1.496      4.306
REMARK  3 active torsions:
REMARK  status: ('A' for Active; 'I' for Inactive)
REMARK    1  A    between atoms: C_2  and  S_1 
REMARK    2  A    between atoms: N_3  and  S_1 
REMARK    3  A    between atoms: C_9  and  N_3 
ROOT
ATOM      1  S   UNL d   1     -41.926-121.916 -50.913  0.00  0.00     0.285 S 
ATOM      2  O   UNL d   1     -42.720-121.986 -51.100  0.00  0.00    -0.198 OA
ATOM      3  O   UNL d   1     -41.124-121.846 -50.729  0.00  0.00    -0.198 OA
ENDROOT
BRANCH   1   4
ATOM      4  C   UNL d   1     -41.727-122.110 -51.692  0.00  0.00     0.105 A 
ATOM      5  C   UNL d   1     -41.919-122.850 -51.996  0.00  0.00     0.013 A 
ATOM      6  C   UNL d   1     -41.723-123.045 -52.766  0.00  0.00     0.001 A 
ATOM      7  C   UNL d   1     -41.915-123.790 -53.073  0.00  0.00     0.000 C 
ATOM      8  C   UNL d   1     -41.331-122.498 -53.245  0.00  0.00     0.000 A 
ATOM      9  C   UNL d   1     -41.138-121.754 -52.942  0.00  0.00     0.001 A 
ATOM     10  C   UNL d   1     -41.131-122.687 -54.025  0.00  0.00     0.000 C 
ATOM     11  C   UNL d   1     -41.336-121.557 -52.164  0.00  0.00     0.012 A 
ATOM     12  C   UNL d   1     -41.143-120.817 -51.864  0.00  0.00     0.001 C 
ENDBRANCH   1   4
BRANCH   1  13
ATOM     13  N   UNL d   1     -42.122-121.722 -50.133  0.00  0.00    -0.159 NA
BRANCH  13  14
ATOM     14  C   UNL d   1     -42.293-122.316 -49.596  0.00  0.00     0.089 A 
ATOM     15  C   UNL d   1     -43.038-122.674 -49.596  0.00  0.00     0.015 A 
ATOM     16  C   UNL d   1     -43.213-123.269 -49.060  0.00  0.00     0.100 A 
ATOM     17  C   UNL d   1     -43.745-123.816 -48.754  0.00  0.00     0.029 C 
ATOM     18  C   UNL d   1     -43.969-123.330 -49.379  0.00  0.00     0.029 C 
ATOM     19  N   UNL d   1     -42.646-123.511 -48.519  0.00  0.00    -0.295 NA
ATOM     20  C   UNL d   1     -41.902-123.159 -48.512  0.00  0.00     0.100 A 
ATOM     21  C   UNL d   1     -41.727-122.563 -49.049  0.00  0.00     0.015 A 
ATOM     22  C   UNL d   1     -41.144-123.094 -48.196  0.00  0.00     0.029 C 
ATOM     23  C   UNL d   1     -41.677-123.648 -47.884  0.00  0.00     0.029 C 
ENDBRANCH  13  14
ENDBRANCH   1  13
TORSDOF 3
ENDMDL
MODEL 4
REMARK VINA RESULT:      -1.3      1.412      2.270
REMARK  3 active torsions:
REMARK  status: ('A' for Active; 'I' for Inactive)
REMARK    1  A    between atoms: C_2  and  S_1 
REMARK    2  A    between atoms: N_3  and  S_1 
REMARK    3  A    between atoms: C_9  and  N_3 
ROOT
ATOM      1  S   UNL d   1     -42.200-123.459 -50.162  0.00  0.00     0.285 S 
ATOM      2  O   UNL d   1     -42.928-123.103 -50.286  0.00  0.00    -0.198 OA
ATOM      3  O   UNL d   1     -41.467-123.818 -50.034  0.00  0.00    -0.198 OA
ENDROOT
BRANCH   1   4
ATOM      4  C   UNL d   1     -42.303-123.384 -49.345  0.00  0.00     0.105 A 
ATOM      5  C   UNL d   1     -41.676-123.146 -48.870  0.00  0.00     0.013 A 
ATOM      6  C   UNL d   1     -41.775-123.071 -48.061  0.00  0.00     0.001 A 
ATOM      7  C   UNL d   1     -41.144-122.831 -47.581  0.00  0.00     0.000 C 
ATOM      8  C   UNL d   1     -42.507-123.233 -47.716  0.00  0.00     0.000 A 
ATOM      9  C   UNL d   1     -43.139-123.473 -48.192  0.00  0.00     0.001 A 
ATOM     10  C   UNL d   1     -42.615-123.160 -46.899  0.00  0.00     0.000 C 
ATOM     11  C   UNL d   1     -43.039-123.548 -49.009  0.00  0.00     0.012 A 
ATOM     12  C   UNL d   1     -43.668-123.786 -49.481  0.00  0.00     0.001 C 
ENDBRANCH   1   4
BRANCH   1  13
ATOM     13  N   UNL d   1     -42.095-123.535 -50.979  0.00  0.00    -0.159 NA
BRANCH  13  14
ATOM     14  C   UNL d   1     -41.822-122.899 -51.416  0.00  0.00     0.089 A 
ATOM     15  C   UNL d   1     -41.711-122.972 -52.232  0.00  0.00     0.015 A 
ATOM     16  C   UNL d   1     -41.438-122.337 -52.673  0.00  0.00     0.100 A 
ATOM     17  C   UNL d   1     -41.218-122.017 -53.397  0.00  0.00     0.029 C 
ATOM     18  C   UNL d   1     -41.472-122.798 -53.353  0.00  0.00     0.029 C 
ATOM     19  N   UNL d   1     -41.274-121.624 -52.303  0.00  0.00    -0.295 NA
ATOM     20  C   UNL d   1     -41.381-121.543 -51.491  0.00  0.00     0.100 A 
ATOM     21  C   UNL d   1     -41.655-122.179 -51.050  0.00  0.00     0.015 A 
ATOM     22  C   UNL d   1     -41.349-121.084 -50.807  0.00  0.00     0.029 C 
ATOM     23  C   UNL d   1     -41.126-120.757 -51.536  0.00  0.00     0.029 C 
ENDBRANCH  13  14
ENDBRANCH   1  13
TORSDOF 3
ENDMDL
