MODEL 1
REMARK VINA RESULT:      -8.4      0.000      0.000
REMARK  4 active torsions:
REMARK  status: ('A' for Active; 'I' for Inactive)
REMARK    1  A    between atoms: C_15  and  C_2 
REMARK    2  A    between atoms: C_3  and  N_6 
REMARK    3  A    between atoms: C_5  and  C_16 
REMARK       I    between atoms: N_6  and  C_5 
REMARK    4  A    between atoms: C_16  and  C_15 
ROOT
ATOM      1  C   UNL d   1      52.875  31.530  53.264  0.00  0.00     0.279 C 
ATOM      2  N   UNL d   1      53.582  31.414  53.665  0.00  0.00    -0.208 NA
ATOM      3  O   UNL d   1      52.449  30.888  52.982  0.00  0.00    -0.265 OA
ENDROOT
BRANCH   1   4
ATOM      4  C   UNL d   1      52.585  32.292  53.142  0.00  0.00     0.065 C 
BRANCH   4   5
ATOM      5  C   UNL d   1      51.886  32.407  52.728  0.00  0.00     0.030 C 
BRANCH   5   6
ATOM      6  C   UNL d   1      51.534  33.152  52.706  0.00  0.00     0.100 A 
ATOM      7  O   UNL d   1      50.914  33.424  53.179  0.00  0.00    -0.307 OA
ATOM      8  C   UNL d   1      50.740  34.194  52.970  0.00  0.00     0.100 A 
ATOM      9  C   UNL d   1      51.255  34.410  52.360  0.00  0.00     0.027 A 
ATOM     10  C   UNL d   1      50.163  34.667  53.302  0.00  0.00     0.027 C 
ATOM     11  C   UNL d   1      51.745  33.768  52.197  0.00  0.00     0.027 A 
ENDBRANCH   5   6
ENDBRANCH   4   5
ENDBRANCH   1   4
BRANCH   2  12
ATOM     12  C   UNL d   1      54.008  32.066  53.948  0.00  0.00     0.085 A 
ATOM     13  C   UNL d   1      54.569  32.431  53.464  0.00  0.00     0.019 A 
ATOM     14  C   UNL d   1      54.990  33.075  53.740  0.00  0.00     0.002 A 
ATOM     15  C   UNL d   1      55.547  33.438  53.259  0.00  0.00     0.000 C 
ATOM     16  C   UNL d   1      54.854  33.363  54.511  0.00  0.00     0.000 A 
ATOM     17  C   UNL d   1      54.289  32.989  54.988  0.00  0.00     0.002 A 
ATOM     18  C   UNL d   1      53.871  32.347  54.709  0.00  0.00     0.019 A 
ATOM     19  C   UNL d   1      54.155  33.275  55.753  0.00  0.00     0.000 C 
ENDBRANCH   2  12
TORSDOF 4
ENDMDL
MODEL 2
REMARK VINA RESULT:      -8.0      1.389      2.924
REMARK  4 active torsions:
REMARK  status: ('A' for Active; 'I' for Inactive)
REMARK    1  A    between atoms: C_15  and  C_2 
REMARK    2  A    between atoms: C_3  and  N_6 
REMARK    3  A    between atoms: C_5  and  C_16 
REMARK       I    between atoms: N_6  and  C_5 
REMARK    4  A    between atoms: C_16  and  C_15 
ROOT
ATOM      1  C   UNL d   1      52.458  32.635  53.165  0.00  0.00     0.279 C 
ATOM      2  N   UNL d   1      52.820  33.337  53.392  0.00  0.00    -0.208 NA
ATOM      3  O   UNL d   1      51.730  32.650  52.787  0.00  0.00    -0.265 OA
ENDROOT
BRANCH   1   4
ATOM      4  C   UNL d   1      52.821  31.910  53.315  0.00  0.00     0.065 C 
BRANCH   4   5
ATOM      5  C   UNL d   1      52.447  31.211  53.108  0.00  0.00     0.030 C 
BRANCH   5   6
ATOM      6  C   UNL d   1      52.771  30.485  53.328  0.00  0.00     0.100 A 
ATOM      7  O   UNL d   1      52.814  30.171  54.091  0.00  0.00    -0.307 OA
ATOM      8  C   UNL d   1      53.178  29.441  54.056  0.00  0.00     0.100 A 
ATOM      9  C   UNL d   1      53.367  29.293  53.264  0.00  0.00     0.027 A 
ATOM     10  C   UNL d   1      53.329  28.944  54.686  0.00  0.00     0.027 C 
ATOM     11  C   UNL d   1      53.116  29.937  52.815  0.00  0.00     0.027 A 
ENDBRANCH   5   6
ENDBRANCH   4   5
ENDBRANCH   1   4
BRANCH   2  12
ATOM     12  C   UNL d   1      53.556  33.316  53.774  0.00  0.00     0.085 A 
ATOM     13  C   UNL d   1      54.248  33.260  53.327  0.00  0.00     0.019 A 
ATOM     14  C   UNL d   1      54.975  33.239  53.702  0.00  0.00     0.002 A 
ATOM     15  C   UNL d   1      55.663  33.184  53.259  0.00  0.00     0.000 C 
ATOM     16  C   UNL d   1      55.017  33.275  54.534  0.00  0.00     0.000 A 
ATOM     17  C   UNL d   1      54.315  33.331  54.972  0.00  0.00     0.002 A 
ATOM     18  C   UNL d   1      53.592  33.352  54.595  0.00  0.00     0.019 A 
ATOM     19  C   UNL d   1      54.358  33.367  55.797  0.00  0.00     0.000 C 
ENDBRANCH   2  12
TORSDOF 4
ENDMDL
MODEL 3
REMARK VINA RESULT:      -7.9      1.137      3.660
REMARK  4 active torsions:
REMARK  status: ('A' for Active; 'I' for Inactive)
REMARK    1  A    between atoms: C_15  and  C_2 
REMARK    2  A    between atoms: C_3  and  N_6 
REMARK    3  A    between atoms: C_5  and  C_16 
REMARK       I    between atoms: N_6  and  C_5 
REMARK    4  A    between atoms: C_16  and  C_15 
ROOT
ATOM      1  C   UNL d   1      52.873  31.749  53.111  0.00  0.00     0.279 C 
ATOM      2  N   UNL d   1      52.241  31.983  52.641  0.00  0.00    -0.208 NA
ATOM      3  O   UNL d   1      53.180  30.992  53.044  0.00  0.00    -0.265 OA
ENDROOT
BRANCH   1   4
ATOM      4  C   UNL d   1      53.205  32.273  53.655  0.00  0.00     0.065 C 
BRANCH   4   5
ATOM      5  C   UNL d   1      53.851  32.045  54.105  0.00  0.00     0.030 C 
BRANCH   5   6
ATOM      6  C   UNL d   1      54.234  32.593  54.589  0.00  0.00     0.100 A 
ATOM      7  O   UNL d   1      54.834  33.117  54.369  0.00  0.00    -0.307 OA
ATOM      8  C   UNL d   1      55.051  33.558  55.021  0.00  0.00     0.100 A 
ATOM      9  C   UNL d   1      54.584  33.310  55.658  0.00  0.00     0.027 A 
ATOM     10  C   UNL d   1      55.625  34.139  55.044  0.00  0.00     0.027 C 
ATOM     11  C   UNL d   1      54.080  32.716  55.391  0.00  0.00     0.027 A 
ENDBRANCH   5   6
ENDBRANCH   4   5
ENDBRANCH   1   4
BRANCH   2  12
ATOM     12  C   UNL d   1      51.935  32.750  52.713  0.00  0.00     0.085 A 
ATOM     13  C   UNL d   1      51.244  32.877  53.146  0.00  0.00     0.019 A 
ATOM     14  C   UNL d   1      50.941  33.633  53.219  0.00  0.00     0.002 A 
ATOM     15  C   UNL d   1      50.254  33.759  53.650  0.00  0.00     0.000 C 
ATOM     16  C   UNL d   1      51.328  34.275  52.855  0.00  0.00     0.000 A 
ATOM     17  C   UNL d   1      52.021  34.136  52.422  0.00  0.00     0.002 A 
ATOM     18  C   UNL d   1      52.321  33.381  52.352  0.00  0.00     0.019 A 
ATOM     19  C   UNL d   1      52.405  34.774  52.061  0.00  0.00     0.000 C 
ENDBRANCH   2  12
TORSDOF 4
ENDMDL
MODEL 4
REMARK VINA RESULT:      -7.8      1.515      2.068
REMARK  4 active torsions:
REMARK  status: ('A' for Active; 'I' for Inactive)
REMARK    1  A    between atoms: C_15  and  C_2 
REMARK    2  A    between atoms: C_3  and  N_6 
REMARK    3  A    between atoms: C_5  and  C_16 
REMARK       I    between atoms: N_6  and  C_5 
REMARK    4  A    between atoms: C_16  and  C_15 
ROOT
ATOM      1  C   UNL d   1      53.266  34.694  54.775  0.00  0.00     0.279 C 
ATOM      2  N   UNL d   1      53.857  34.209  55.074  0.00  0.00    -0.208 NA
ATOM      3  O   UNL d   1      53.053  35.379  55.173  0.00  0.00    -0.265 OA
ENDROOT
BRANCH   1   4
ATOM      4  C   UNL d   1      52.881  34.499  54.072  0.00  0.00     0.065 C 
BRANCH   4   5
ATOM      5  C   UNL d   1      52.333  35.014  53.745  0.00  0.00     0.030 C 
BRANCH   5   6
ATOM      6  C   UNL d   1      51.789  34.742  53.188  0.00  0.00     0.100 A 
ATOM      7  O   UNL d   1      50.982  34.607  53.305  0.00  0.00    -0.307 OA
ATOM      8  C   UNL d   1      50.656  34.340  52.606  0.00  0.00     0.100 A 
ATOM      9  C   UNL d   1      51.261  34.305  52.043  0.00  0.00     0.027 A 
ATOM     10  C   UNL d   1      49.873  34.142  52.481  0.00  0.00     0.027 C 
ATOM     11  C   UNL d   1      51.960  34.553  52.402  0.00  0.00     0.027 A 
ENDBRANCH   5   6
ENDBRANCH   4   5
ENDBRANCH   1   4
BRANCH   2  12
ATOM     12  C   UNL d   1      54.069  33.518  54.667  0.00  0.00     0.085 A 
ATOM     13  C   UNL d   1      54.680  33.540  54.112  0.00  0.00     0.019 A 
ATOM     14  C   UNL d   1      54.890  32.860  53.709  0.00  0.00     0.002 A 
ATOM     15  C   UNL d   1      55.497  32.882  53.158  0.00  0.00     0.000 C 
ATOM     16  C   UNL d   1      54.488  32.145  53.858  0.00  0.00     0.000 A 
ATOM     17  C   UNL d   1      53.877  32.135  54.418  0.00  0.00     0.002 A 
ATOM     18  C   UNL d   1      53.669  32.815  54.818  0.00  0.00     0.019 A 
ATOM     19  C   UNL d   1      53.478  31.424  54.565  0.00  0.00     0.000 C 
ENDBRANCH   2  12
TORSDOF 4
ENDMDL
MODEL 5
REMARK VINA RESULT:      -7.7      1.587      3.581
REMARK  4 active torsions:
REMARK  status: ('A' for Active; 'I' for Inactive)
REMARK    1  A    between atoms: C_15  and  C_2 
REMARK    2  A    between atoms: C_3  and  N_6 
REMARK    3  A    between atoms: C_5  and  C_16 
REMARK       I    between atoms: N_6  and  C_5 
REMARK    4  A    between atoms: C_16  and  C_15 
ROOT
ATOM      1  C   UNL d   1      53.579  33.195  54.566  0.00  0.00     0.279 C 
ATOM      2  N   UNL d   1      53.152  33.890  54.467  0.00  0.00    -0.208 NA
ATOM      3  O   UNL d   1      54.120  33.125  55.179  0.00  0.00    -0.265 OA
ENDROOT
BRANCH   1   4
ATOM      4  C   UNL d   1      53.468  32.560  54.051  0.00  0.00     0.065 C 
BRANCH   4   5
ATOM      5  C   UNL d   1      53.954  31.902  54.097  0.00  0.00     0.030 C 
BRANCH   5   6
ATOM      6  C   UNL d   1      53.697  31.174  53.805  0.00  0.00     0.100 A 
ATOM      7  O   UNL d   1      53.404  30.538  54.243  0.00  0.00    -0.307 OA
ATOM      8  C   UNL d   1      53.215  29.931  53.732  0.00  0.00     0.100 A 
ATOM      9  C   UNL d   1      53.390  30.185  52.964  0.00  0.00     0.027 A 
ATOM     10  C   UNL d   1      52.908  29.202  53.937  0.00  0.00     0.027 C 
ATOM     11  C   UNL d   1      53.688  30.952  53.010  0.00  0.00     0.027 A 
ENDBRANCH   5   6
ENDBRANCH   4   5
ENDBRANCH   1   4
BRANCH   2  12
ATOM     12  C   UNL d   1      52.607  33.954  53.846  0.00  0.00     0.085 A 
ATOM     13  C   UNL d   1      52.841  34.289  53.128  0.00  0.00     0.019 A 
ATOM     14  C   UNL d   1      52.305  34.353  52.514  0.00  0.00     0.002 A 
ATOM     15  C   UNL d   1      52.537  34.685  51.801  0.00  0.00     0.000 C 
ATOM     16  C   UNL d   1      51.522  34.082  52.612  0.00  0.00     0.000 A 
ATOM     17  C   UNL d   1      51.299  33.748  53.337  0.00  0.00     0.002 A 
ATOM     18  C   UNL d   1      51.837  33.686  53.948  0.00  0.00     0.019 A 
ATOM     19  C   UNL d   1      50.522  33.480  53.434  0.00  0.00     0.000 C 
ENDBRANCH   2  12
TORSDOF 4
ENDMDL
MODEL 6
REMARK VINA RESULT:      -6.6      1.467      2.623
REMARK  4 active torsions:
REMARK  status: ('A' for Active; 'I' for Inactive)
REMARK    1  A    between atoms: C_15  and  C_2 
REMARK    2  A    between atoms: C_3  and  N_6 
REMARK    3  A    between atoms: C_5  and  C_16 
REMARK       I    between atoms: N_6  and  C_5 
REMARK    4  A    between atoms: C_16  and  C_15 
ROOT
ATOM      1  C   UNL d   1      53.999  32.579  53.768  0.00  0.00     0.279 C 
ATOM      2  N   UNL d   1      54.340  31.832  53.792  0.00  0.00    -0.208 NA
ATOM      3  O   UNL d   1      54.464  33.249  53.852  0.00  0.00    -0.265 OA
ENDROOT
BRANCH   1   4
ATOM      4  C   UNL d   1      53.186  32.663  53.659  0.00  0.00     0.065 C 
BRANCH   4   5
ATOM      5  C   UNL d   1      52.831  33.397  53.749  0.00  0.00     0.030 C 
BRANCH   5   6
ATOM      6  C   UNL d   1      52.114  33.560  53.376  0.00  0.00     0.100 A 
ATOM      7  O   UNL d   1      52.007  33.883  52.623  0.00  0.00    -0.307 OA
ATOM      8  C   UNL d   1      51.206  33.949  52.477  0.00  0.00     0.100 A 
ATOM      9  C   UNL d   1      50.804  33.666  53.142  0.00  0.00     0.027 A 
ATOM     10  C   UNL d   1      50.861  34.242  51.796  0.00  0.00     0.027 C 
ATOM     11  C   UNL d   1      51.364  33.425  53.697  0.00  0.00     0.027 A 
ENDBRANCH   5   6
ENDBRANCH   4   5
ENDBRANCH   1   4
BRANCH   2  12
ATOM     12  C   UNL d   1      53.864  31.158  53.707  0.00  0.00     0.085 A 
ATOM     13  C   UNL d   1      53.644  30.725  54.374  0.00  0.00     0.019 A 
ATOM     14  C   UNL d   1      53.175  30.060  54.292  0.00  0.00     0.002 A 
ATOM     15  C   UNL d   1      52.956  29.629  54.955  0.00  0.00     0.000 C 
ATOM     16  C   UNL d   1      52.919  29.819  53.536  0.00  0.00     0.000 A 
ATOM     17  C   UNL d   1      53.147  30.262  52.873  0.00  0.00     0.002 A 
ATOM     18  C   UNL d   1      53.615  30.925  52.959  0.00  0.00     0.019 A 
ATOM     19  C   UNL d   1      52.893  30.023  52.123  0.00  0.00     0.000 C 
ENDBRANCH   2  12
TORSDOF 4
ENDMDL
MODEL 7
REMARK VINA RESULT:      -6.2      1.633      3.440
REMARK  4 active torsions:
REMARK  status: ('A' for Active; 'I' for Inactive)
REMARK    1  A    between atoms: C_15  and  C_2 
REMARK    2  A    between atoms: C_3  and  N_6 
REMARK    3  A    between atoms: C_5  and  C_16 
REMARK       I    between atoms: N_6  and  C_5 
REMARK    4  A    between atoms: C_16  and  C_15 
ROOT
ATOM      1  C   UNL d   1      52.504  32.433  52.725  0.00  0.00     0.279 C 
ATOM      2  N   UNL d   1      52.376  31.667  52.457  0.00  0.00    -0.208 NA
ATOM      3  O   UNL d   1      52.197  33.071  52.312  0.00  0.00    -0.265 OA
ENDROOT
BRANCH   1   4
ATOM      4  C   UNL d   1      52.941  32.567  53.411  0.00  0.00     0.065 C 
BRANCH   4   5
ATOM      5  C   UNL d   1      53.052  33.332  53.686  0.00  0.00     0.030 C 
BRANCH   5   6
ATOM      6  C   UNL d   1      53.597  33.482  54.287  0.00  0.00     0.100 A 
ATOM      7  O   UNL d   1      54.418  33.530  54.213  0.00  0.00    -0.307 OA
ATOM      8  C   UNL d   1      54.740  33.687  54.947  0.00  0.00     0.100 A 
ATOM      9  C   UNL d   1      54.117  33.739  55.489  0.00  0.00     0.027 A 
ATOM     10  C   UNL d   1      55.534  33.777  55.119  0.00  0.00     0.027 C 
ATOM     11  C   UNL d   1      53.412  33.612  55.082  0.00  0.00     0.027 A 
ENDBRANCH   5   6
ENDBRANCH   4   5
ENDBRANCH   1   4
BRANCH   2  12
ATOM     12  C   UNL d   1      52.689  31.025  52.878  0.00  0.00     0.085 A 
ATOM     13  C   UNL d   1      52.200  30.587  53.379  0.00  0.00     0.019 A 
ATOM     14  C   UNL d   1      52.506  29.953  53.796  0.00  0.00     0.002 A 
ATOM     15  C   UNL d   1      52.021  29.517  54.294  0.00  0.00     0.000 C 
ATOM     16  C   UNL d   1      53.311  29.749  53.715  0.00  0.00     0.000 A 
ATOM     17  C   UNL d   1      53.792  30.196  53.209  0.00  0.00     0.002 A 
ATOM     18  C   UNL d   1      53.483  30.828  52.795  0.00  0.00     0.019 A 
ATOM     19  C   UNL d   1      54.590  29.993  53.130  0.00  0.00     0.000 C 
ENDBRANCH   2  12
TORSDOF 4
ENDMDL
