MODEL 1
REMARK VINA RESULT:      -3.8      0.000      0.000
REMARK  4 active torsions:
REMARK  status: ('A' for Active; 'I' for Inactive)
REMARK    1  A    between atoms: C_8  and  N_1 
REMARK    2  A    between atoms: C_6  and  C_3 
REMARK       I    between atoms: N_9  and  C_6 
REMARK    3  A    between atoms: C_13  and  N_9 
REMARK    4  A    between atoms: C_14  and  C_13 
ROOT
ATOM      1  N   UNL d   1     -42.034-122.661 -50.553  0.00  0.00    -0.276 N 
ATOM      2  C   UNL d   1     -42.127-121.942 -50.953  0.00  0.00     0.181 A 
ATOM      3  C   UNL d   1     -41.571-121.905 -51.554  0.00  0.00     0.126 A 
ATOM      4  C   UNL d   1     -41.409-123.069 -50.918  0.00  0.00     0.152 A 
ATOM      5  S   UNL d   1     -41.123-122.601 -51.537  0.00  0.00    -0.051 SA
ATOM      6  S   UNL d   1     -41.123-123.817 -50.698  0.00  0.00    -0.052 SA
ATOM      7  N   UNL d   1     -42.686-121.362 -50.774  0.00  0.00    -0.128 N 
ENDROOT
BRANCH   3   8
ATOM      8  C   UNL d   1     -41.468-121.283 -52.091  0.00  0.00     0.288 C 
ATOM      9  N   UNL d   1     -41.604-121.407 -52.895  0.00  0.00    -0.204 NA
ATOM     10  O   UNL d   1     -41.229-120.540 -51.827  0.00  0.00    -0.265 OA
BRANCH   9  11
ATOM     11  C   UNL d   1     -41.844-122.154 -53.166  0.00  0.00     0.127 C 
BRANCH  11  12
ATOM     12  C   UNL d   1     -41.984-122.285 -53.967  0.00  0.00     0.119 A 
ATOM     13  O   UNL d   1     -42.487-121.842 -54.444  0.00  0.00    -0.304 OA
ATOM     14  C   UNL d   1     -42.467-122.158 -55.212  0.00  0.00     0.123 A 
ATOM     15  C   UNL d   1     -41.941-122.803 -55.197  0.00  0.00     0.029 A 
ATOM     16  C   UNL d   1     -41.644-122.880 -54.431  0.00  0.00     0.028 A 
ENDBRANCH  11  12
ENDBRANCH   9  11
ENDBRANCH   3   8
BRANCH   1  17
ATOM     17  C   UNL d   1     -42.477-122.930 -49.908  0.00  0.00     0.067 A 
ATOM     18  C   UNL d   1     -42.180-122.857 -49.148  0.00  0.00     0.018 A 
ATOM     19  C   UNL d   1     -42.623-123.126 -48.503  0.00  0.00     0.002 A 
ATOM     20  C   UNL d   1     -43.362-123.467 -48.630  0.00  0.00     0.000 A 
ATOM     21  C   UNL d   1     -43.661-123.540 -49.408  0.00  0.00     0.002 A 
ATOM     22  C   UNL d   1     -43.215-123.270 -50.039  0.00  0.00     0.018 A 
ENDBRANCH   1  17
TORSDOF 4
ENDMDL
MODEL 2
REMARK VINA RESULT:      -3.6      1.129      4.234
REMARK  4 active torsions:
REMARK  status: ('A' for Active; 'I' for Inactive)
REMARK    1  A    between atoms: C_8  and  N_1 
REMARK    2  A    between atoms: C_6  and  C_3 
REMARK       I    between atoms: N_9  and  C_6 
REMARK    3  A    between atoms: C_13  and  N_9 
REMARK    4  A    between atoms: C_14  and  C_13 
ROOT
ATOM      1  N   UNL d   1     -41.627-122.374 -53.204  0.00  0.00    -0.276 N 
ATOM      2  C   UNL d   1     -41.705-121.795 -52.618  0.00  0.00     0.181 A 
ATOM      3  C   UNL d   1     -41.431-122.103 -51.909  0.00  0.00     0.126 A 
ATOM      4  C   UNL d   1     -41.299-123.047 -52.845  0.00  0.00     0.152 A 
ATOM      5  S   UNL d   1     -41.177-122.880 -52.045  0.00  0.00    -0.051 SA
ATOM      6  S   UNL d   1     -41.123-123.764 -53.226  0.00  0.00    -0.052 SA
ATOM      7  N   UNL d   1     -42.010-121.036 -52.731  0.00  0.00    -0.128 N 
ENDROOT
BRANCH   3   8
ATOM      8  C   UNL d   1     -41.407-121.712 -51.180  0.00  0.00     0.288 C 
ATOM      9  N   UNL d   1     -41.669-122.097 -50.499  0.00  0.00    -0.204 NA
ATOM     10  O   UNL d   1     -41.122-120.940 -51.129  0.00  0.00    -0.265 OA
BRANCH   9  11
ATOM     11  C   UNL d   1     -41.956-122.875 -50.545  0.00  0.00     0.127 C 
BRANCH  11  12
ATOM     12  C   UNL d   1     -42.351-123.214 -49.907  0.00  0.00     0.119 A 
ATOM     13  O   UNL d   1     -43.167-123.287 -49.833  0.00  0.00    -0.304 OA
ATOM     14  C   UNL d   1     -43.333-123.660 -49.109  0.00  0.00     0.123 A 
ATOM     15  C   UNL d   1     -42.603-123.813 -48.741  0.00  0.00     0.029 A 
ATOM     16  C   UNL d   1     -42.000-123.539 -49.232  0.00  0.00     0.028 A 
ENDBRANCH  11  12
ENDBRANCH   9  11
ENDBRANCH   3   8
BRANCH   1  17
ATOM     17  C   UNL d   1     -41.836-122.303 -54.002  0.00  0.00     0.067 A 
ATOM     18  C   UNL d   1     -41.259-122.342 -54.581  0.00  0.00     0.018 A 
ATOM     19  C   UNL d   1     -41.466-122.272 -55.379  0.00  0.00     0.002 A 
ATOM     20  C   UNL d   1     -42.257-122.162 -55.585  0.00  0.00     0.000 A 
ATOM     21  C   UNL d   1     -42.843-122.123 -54.990  0.00  0.00     0.002 A 
ATOM     22  C   UNL d   1     -42.626-122.194 -54.204  0.00  0.00     0.018 A 
ENDBRANCH   1  17
TORSDOF 4
ENDMDL
