MODEL 1
REMARK VINA RESULT:      -5.7      0.000      0.000
REMARK  5 active torsions:
REMARK  status: ('A' for Active; 'I' for Inactive)
REMARK    1  A    between atoms: S_2  and  C_1 
REMARK    2  A    between atoms: C_7  and  S_2 
REMARK    3  A    between atoms: N_8  and  C_5 
REMARK    4  A    between atoms: C_14  and  N_8 
REMARK    5  A    between atoms: O_23  and  C_15 
ROOT
ATOM      1  C   UNL d   1      57.757  -0.336  30.706  0.00  0.00     0.187 A 
ATOM      2  N   UNL d   1      57.745  -0.826  30.052  0.00  0.00    -0.208 NA
ATOM      3  C   UNL d   1      58.441   0.110  30.697  0.00  0.00     0.118 A 
ATOM      4  C   UNL d   1      58.433  -0.689  29.621  0.00  0.00     0.196 A 
ATOM      5  S   UNL d   1      58.868  -0.113  30.011  0.00  0.00    -0.035 SA
ATOM      6 CL   UNL d   1      58.662   0.682  31.273  0.00  0.00    -0.073 Cl
ENDROOT
BRANCH   1   7
ATOM      7  S   UNL d   1      57.189  -0.258  31.321  0.00  0.00     0.228 S 
ATOM      8  O   UNL d   1      57.030   0.509  31.039  0.00  0.00    -0.216 OA
ATOM      9  O   UNL d   1      57.364  -1.026  31.582  0.00  0.00    -0.216 OA
BRANCH   7  10
ATOM     10  C   UNL d   1      56.637  -0.183  31.916  0.00  0.00     0.089 A 
ATOM     11  C   UNL d   1      56.309  -0.851  32.293  0.00  0.00     0.011 A 
ATOM     12  C   UNL d   1      55.754  -0.765  32.893  0.00  0.00     0.001 A 
ATOM     13  C   UNL d   1      55.504  -0.011  33.141  0.00  0.00     0.000 A 
ATOM     14  C   UNL d   1      55.835   0.663  32.761  0.00  0.00     0.001 A 
ATOM     15  C   UNL d   1      54.950   0.079  33.739  0.00  0.00     0.000 C 
ATOM     16  C   UNL d   1      56.384   0.585  32.167  0.00  0.00     0.011 A 
ENDBRANCH   7  10
ENDBRANCH   1   7
BRANCH   4  17
ATOM     17  N   UNL d   1      58.733  -1.008  28.920  0.00  0.00    -0.221 NA
BRANCH  17  18
ATOM     18  C   UNL d   1      59.085  -1.753  28.925  0.00  0.00     0.084 A 
ATOM     19  C   UNL d   1      59.893  -1.822  29.090  0.00  0.00     0.021 A 
ATOM     20  C   UNL d   1      60.254  -2.553  29.098  0.00  0.00     0.026 A 
ATOM     21  C   UNL d   1      59.809  -3.225  28.940  0.00  0.00     0.094 A 
ATOM     22  C   UNL d   1      58.990  -3.158  28.771  0.00  0.00     0.026 A 
ATOM     23  C   UNL d   1      58.639  -2.427  28.765  0.00  0.00     0.021 A 
BRANCH  21  24
ATOM     24  O   UNL d   1      60.171  -3.962  28.947  0.00  0.00    -0.328 OA
ATOM     25  C   UNL d   1      60.964  -4.027  28.702  0.00  0.00     0.181 C 
ENDBRANCH  21  24
ENDBRANCH  17  18
ENDBRANCH   4  17
TORSDOF 5
ENDMDL
