MODEL 1
REMARK VINA RESULT:      -6.1      0.000      0.000
REMARK  5 active torsions:
REMARK  status: ('A' for Active; 'I' for Inactive)
REMARK    1  A    between atoms: N_2  and  C_1 
REMARK    2  A    between atoms: C_13  and  N_6 
REMARK    3  A    between atoms: C_12  and  C_7 
REMARK    4  A    between atoms: O_22  and  C_19 
REMARK    5  A    between atoms: C_25  and  O_22 
ROOT
ATOM      1  N   UNL d   1     -40.407  15.071  17.757  0.00  0.00    -0.288 N 
ATOM      2  C   UNL d   1     -40.449  15.462  18.486  0.00  0.00     0.196 A 
ATOM      3  S   UNL d   1     -41.151  15.904  18.476  0.00  0.00    -0.092 SA
ATOM      4  C   UNL d   1     -41.069  15.272  17.316  0.00  0.00     0.268 A 
ATOM      5  C   UNL d   1     -41.526  15.800  17.790  0.00  0.00     0.093 A 
ATOM      6  O   UNL d   1     -41.239  15.010  16.572  0.00  0.00    -0.266 OA
ENDROOT
BRANCH   1   7
ATOM      7  C   UNL d   1     -39.781  14.591  17.595  0.00  0.00     0.139 A 
ATOM      8  C   UNL d   1     -39.717  13.849  17.873  0.00  0.00     0.296 A 
ATOM      9  N   UNL d   1     -39.019  13.525  17.603  0.00  0.00    -0.209 N 
ATOM     10  O   UNL d   1     -40.285  13.473  18.365  0.00  0.00    -0.264 OA
ATOM     11  N   UNL d   1     -38.652  14.084  17.151  0.00  0.00    -0.238 N 
ATOM     12  C   UNL d   1     -39.142  14.762  17.149  0.00  0.00     0.102 A 
ATOM     13  C   UNL d   1     -37.940  14.002  16.769  0.00  0.00     0.120 C 
ATOM     14  C   UNL d   1     -39.004  15.498  16.756  0.00  0.00     0.022 C 
BRANCH   9  15
ATOM     15  C   UNL d   1     -38.667  12.798  17.705  0.00  0.00     0.085 A 
ATOM     16  C   UNL d   1     -38.676  12.242  17.103  0.00  0.00     0.019 A 
ATOM     17  C   UNL d   1     -38.322  11.515  17.209  0.00  0.00     0.002 A 
ATOM     18  C   UNL d   1     -37.950  11.323  17.917  0.00  0.00     0.000 A 
ATOM     19  C   UNL d   1     -37.947  11.890  18.516  0.00  0.00     0.002 A 
ATOM     20  C   UNL d   1     -38.298  12.613  18.412  0.00  0.00     0.019 A 
ENDBRANCH   9  15
ENDBRANCH   1   7
BRANCH   2  21
ATOM     21  C   UNL d   1     -40.004  15.520  19.172  0.00  0.00    -0.001 A 
ATOM     22  C   UNL d   1     -39.201  15.902  19.223  0.00  0.00    -0.000 A 
ATOM     23  C   UNL d   1     -38.792  15.922  19.999  0.00  0.00     0.024 A 
ATOM     24  C   UNL d   1     -39.194  15.565  20.679  0.00  0.00     0.100 A 
ATOM     25  C   UNL d   1     -39.946  15.215  20.599  0.00  0.00     0.024 A 
ATOM     26  C   UNL d   1     -40.363  15.180  19.870  0.00  0.00    -0.000 A 
BRANCH  24  27
ATOM     27  O   UNL d   1     -38.795  15.597  21.384  0.00  0.00    -0.305 OA
BRANCH  27  28
ATOM     28  C   UNL d   1     -39.006  15.007  22.025  0.00  0.00     0.123 C 
ATOM     29  C   UNL d   1     -38.554  15.022  22.735  0.00  0.00     0.029 C 
ENDBRANCH  27  28
ENDBRANCH  24  27
ENDBRANCH   2  21
TORSDOF 5
ENDMDL
MODEL 2
REMARK VINA RESULT:      -4.9      2.026      3.476
REMARK  5 active torsions:
REMARK  status: ('A' for Active; 'I' for Inactive)
REMARK    1  A    between atoms: N_2  and  C_1 
REMARK    2  A    between atoms: C_13  and  N_6 
REMARK    3  A    between atoms: C_12  and  C_7 
REMARK    4  A    between atoms: O_22  and  C_19 
REMARK    5  A    between atoms: C_25  and  O_22 
ROOT
ATOM      1  N   UNL d   1     -39.136  15.143  20.761  0.00  0.00    -0.288 N 
ATOM      2  C   UNL d   1     -39.831  14.983  21.183  0.00  0.00     0.196 A 
ATOM      3  S   UNL d   1     -39.769  15.391  21.902  0.00  0.00    -0.092 SA
ATOM      4  C   UNL d   1     -38.664  15.637  21.216  0.00  0.00     0.268 A 
ATOM      5  C   UNL d   1     -39.083  15.781  21.934  0.00  0.00     0.093 A 
ATOM      6  O   UNL d   1     -37.940  15.922  21.006  0.00  0.00    -0.266 OA
ENDROOT
BRANCH   1   7
ATOM      7  C   UNL d   1     -39.028  14.823  20.031  0.00  0.00     0.139 A 
ATOM      8  C   UNL d   1     -39.268  15.176  19.360  0.00  0.00     0.296 A 
ATOM      9  N   UNL d   1     -39.071  14.701  18.727  0.00  0.00    -0.209 N 
ATOM     10  O   UNL d   1     -39.659  15.918  19.324  0.00  0.00    -0.264 OA
ATOM     11  N   UNL d   1     -38.704  14.045  19.021  0.00  0.00    -0.238 N 
ATOM     12  C   UNL d   1     -38.679  14.127  19.853  0.00  0.00     0.102 A 
ATOM     13  C   UNL d   1     -38.413  13.422  18.589  0.00  0.00     0.120 C 
ATOM     14  C   UNL d   1     -38.351  13.588  20.415  0.00  0.00     0.022 C 
BRANCH   9  15
ATOM     15  C   UNL d   1     -39.175  14.775  17.922  0.00  0.00     0.085 A 
ATOM     16  C   UNL d   1     -38.608  15.147  17.462  0.00  0.00     0.019 A 
ATOM     17  C   UNL d   1     -38.715  15.219  16.656  0.00  0.00     0.002 A 
ATOM     18  C   UNL d   1     -39.390  14.923  16.289  0.00  0.00     0.000 A 
ATOM     19  C   UNL d   1     -39.953  14.551  16.762  0.00  0.00     0.002 A 
ATOM     20  C   UNL d   1     -39.847  14.478  17.563  0.00  0.00     0.019 A 
ENDBRANCH   9  15
ENDBRANCH   1   7
BRANCH   2  21
ATOM     21  C   UNL d   1     -40.521  14.554  21.078  0.00  0.00    -0.001 A 
ATOM     22  C   UNL d   1     -41.241  14.850  20.645  0.00  0.00    -0.000 A 
ATOM     23  C   UNL d   1     -41.940  14.323  20.578  0.00  0.00     0.024 A 
ATOM     24  C   UNL d   1     -41.891  13.537  20.941  0.00  0.00     0.100 A 
ATOM     25  C   UNL d   1     -41.203  13.290  21.340  0.00  0.00     0.024 A 
ATOM     26  C   UNL d   1     -40.518  13.770  21.421  0.00  0.00    -0.000 A 
BRANCH  24  27
ATOM     27  O   UNL d   1     -42.550  13.070  20.866  0.00  0.00    -0.305 OA
BRANCH  27  28
ATOM     28  C   UNL d   1     -43.055  12.918  21.590  0.00  0.00     0.123 C 
ATOM     29  C   UNL d   1     -43.856  12.691  21.468  0.00  0.00     0.029 C 
ENDBRANCH  27  28
ENDBRANCH  24  27
ENDBRANCH   2  21
TORSDOF 5
ENDMDL
MODEL 3
REMARK VINA RESULT:      -3.3      8.669     10.249
REMARK  5 active torsions:
REMARK  status: ('A' for Active; 'I' for Inactive)
REMARK    1  A    between atoms: N_2  and  C_1 
REMARK    2  A    between atoms: C_13  and  N_6 
REMARK    3  A    between atoms: C_12  and  C_7 
REMARK    4  A    between atoms: O_22  and  C_19 
REMARK    5  A    between atoms: C_25  and  O_22 
ROOT
ATOM      1  N   UNL d   1     -48.360  11.934  22.700  0.00  0.00    -0.288 N 
ATOM      2  C   UNL d   1     -47.534  11.890  22.742  0.00  0.00     0.196 A 
ATOM      3  S   UNL d   1     -47.354  11.149  23.071  0.00  0.00    -0.092 SA
ATOM      4  C   UNL d   1     -48.673  11.236  22.998  0.00  0.00     0.268 A 
ATOM      5  C   UNL d   1     -48.020  10.754  23.226  0.00  0.00     0.093 A 
ATOM      6  O   UNL d   1     -49.457  11.057  23.055  0.00  0.00    -0.266 OA
ENDROOT
BRANCH   1   7
ATOM      7  C   UNL d   1     -48.711  12.594  22.402  0.00  0.00     0.139 A 
ATOM      8  C   UNL d   1     -48.997  13.180  22.858  0.00  0.00     0.296 A 
ATOM      9  N   UNL d   1     -49.312  13.759  22.377  0.00  0.00    -0.209 N 
ATOM     10  O   UNL d   1     -48.970  13.188  23.698  0.00  0.00    -0.264 OA
ATOM     11  N   UNL d   1     -49.216  13.518  21.613  0.00  0.00    -0.238 N 
ATOM     12  C   UNL d   1     -48.832  12.775  21.634  0.00  0.00     0.102 A 
ATOM     13  C   UNL d   1     -49.448  13.922  20.949  0.00  0.00     0.120 C 
ATOM     14  C   UNL d   1     -48.607  12.291  20.978  0.00  0.00     0.022 C 
BRANCH   9  15
ATOM     15  C   UNL d   1     -49.675  14.472  22.530  0.00  0.00     0.085 A 
ATOM     16  C   UNL d   1     -50.489  14.514  22.619  0.00  0.00     0.019 A 
ATOM     17  C   UNL d   1     -50.848  15.231  22.772  0.00  0.00     0.002 A 
ATOM     18  C   UNL d   1     -50.407  15.922  22.839  0.00  0.00     0.000 A 
ATOM     19  C   UNL d   1     -49.590  15.867  22.748  0.00  0.00     0.002 A 
ATOM     20  C   UNL d   1     -49.231  15.156  22.596  0.00  0.00     0.019 A 
ENDBRANCH   9  15
ENDBRANCH   1   7
BRANCH   2  21
ATOM     21  C   UNL d   1     -46.889  12.359  22.554  0.00  0.00    -0.001 A 
ATOM     22  C   UNL d   1     -46.718  12.681  21.741  0.00  0.00    -0.000 A 
ATOM     23  C   UNL d   1     -46.003  13.177  21.625  0.00  0.00     0.024 A 
ATOM     24  C   UNL d   1     -45.499  13.328  22.315  0.00  0.00     0.100 A 
ATOM     25  C   UNL d   1     -45.687  13.012  23.062  0.00  0.00     0.024 A 
ATOM     26  C   UNL d   1     -46.363  12.534  23.205  0.00  0.00    -0.000 A 
BRANCH  24  27
ATOM     27  O   UNL d   1     -44.845  13.789  22.181  0.00  0.00    -0.305 OA
BRANCH  27  28
ATOM     28  C   UNL d   1     -44.135  13.423  21.775  0.00  0.00     0.123 C 
ATOM     29  C   UNL d   1     -43.667  13.918  21.282  0.00  0.00     0.029 C 
ENDBRANCH  27  28
ENDBRANCH  24  27
ENDBRANCH   2  21
TORSDOF 5
ENDMDL
