MODEL 1
REMARK VINA RESULT:      74.9      0.000      0.000
REMARK  9 active torsions:
REMARK  status: ('A' for Active; 'I' for Inactive)
REMARK    1  A    between atoms: N_2  and  S_1 
REMARK    2  A    between atoms: C_9  and  S_1 
REMARK    3  A    between atoms: C_4  and  N_2 
REMARK    4  A    between atoms: O_22  and  C_6 
REMARK    5  A    between atoms: O_23  and  C_7 
REMARK       I    between atoms: C_12  and  N_13 
REMARK    6  A    between atoms: C_20  and  C_12 
REMARK    7  A    between atoms: N_13  and  C_21 
REMARK    8  A    between atoms: O_14  and  C_20 
REMARK    9  A    between atoms: C_15  and  O_14 
ROOT
ATOM      1  C   UNL d   1     -48.800  27.953  35.206  0.00  0.00     0.105 A 
ATOM      2  C   UNL d   1     -48.661  28.408  35.871  0.00  0.00     0.015 A 
ATOM      3  C   UNL d   1     -48.450  28.142  34.494  0.00  0.00     0.015 A 
ATOM      4  C   UNL d   1     -47.809  29.256  35.103  0.00  0.00     0.085 A 
ATOM      5  C   UNL d   1     -48.171  29.062  35.845  0.00  0.00     0.020 A 
ATOM      6  C   UNL d   1     -47.959  28.793  34.456  0.00  0.00     0.020 A 
ENDROOT
BRANCH   1   7
ATOM      7  S   UNL d   1     -49.303  27.287  35.247  0.00  0.00     0.287 S 
ATOM      8  O   UNL d   1     -49.765  27.671  35.832  0.00  0.00    -0.198 OA
ATOM      9  O   UNL d   1     -48.848  26.898  34.665  0.00  0.00    -0.198 OA
BRANCH   7  10
ATOM     10  N   UNL d   1     -49.809  26.621  35.290  0.00  0.00    -0.139 NA
BRANCH  10  11
ATOM     11  C   UNL d   1     -50.276  26.408  34.645  0.00  0.00     0.182 A 
ATOM     12  N   UNL d   1     -50.783  26.953  34.315  0.00  0.00    -0.185 NA
ATOM     13  C   UNL d   1     -51.267  26.741  33.651  0.00  0.00     0.274 A 
ATOM     14  N   UNL d   1     -51.226  25.996  33.343  0.00  0.00    -0.181 NA
ATOM     15  C   UNL d   1     -50.729  25.435  33.654  0.00  0.00     0.185 A 
ATOM     16  C   UNL d   1     -50.229  25.641  34.334  0.00  0.00     0.084 A 
BRANCH  13  17
ATOM     17  O   UNL d   1     -51.784  27.304  33.318  0.00  0.00    -0.297 OA
ATOM     18  C   UNL d   1     -51.679  28.126  33.439  0.00  0.00     0.185 C 
ENDBRANCH  13  17
BRANCH  15  19
ATOM     19  O   UNL d   1     -50.704  24.672  33.319  0.00  0.00    -0.312 OA
ATOM     20  C   UNL d   1     -51.244  24.098  33.611  0.00  0.00     0.183 C 
ENDBRANCH  15  19
ENDBRANCH  10  11
ENDBRANCH   7  10
ENDBRANCH   1   7
BRANCH   4  21
ATOM     21  N   UNL d   1     -47.306  29.914  35.042  0.00  0.00    -0.206 NA
ATOM     22  C   UNL d   1     -47.454  30.584  35.493  0.00  0.00     0.304 C 
ATOM     23  O   UNL d   1     -48.101  30.600  36.005  0.00  0.00    -0.263 OA
BRANCH  22  24
ATOM     24  C   UNL d   1     -46.949  31.244  35.432  0.00  0.00     0.185 C 
BRANCH  24  25
ATOM     25  O   UNL d   1     -47.265  32.000  35.446  0.00  0.00    -0.299 OA
BRANCH  25  26
ATOM     26  C   UNL d   1     -47.549  32.371  34.729  0.00  0.00     0.111 A 
ATOM     27  C   UNL d   1     -47.031  32.743  34.210  0.00  0.00     0.081 A 
ATOM     28 CL   UNL d   1     -46.197  32.767  34.380  0.00  0.00    -0.080 Cl
ATOM     29  C   UNL d   1     -47.318  33.094  33.526  0.00  0.00     0.013 A 
ATOM     30  C   UNL d   1     -48.140  33.069  33.360  0.00  0.00     0.001 A 
ATOM     31  C   UNL d   1     -48.656  32.695  33.882  0.00  0.00     0.002 A 
ATOM     32  C   UNL d   1     -48.369  32.344  34.567  0.00  0.00     0.026 A 
ENDBRANCH  25  26
ENDBRANCH  24  25
ENDBRANCH  22  24
ENDBRANCH   4  21
TORSDOF 9
ENDMDL
MODEL 2
REMARK VINA RESULT:      77.6      2.443      6.833
REMARK  9 active torsions:
REMARK  status: ('A' for Active; 'I' for Inactive)
REMARK    1  A    between atoms: N_2  and  S_1 
REMARK    2  A    between atoms: C_9  and  S_1 
REMARK    3  A    between atoms: C_4  and  N_2 
REMARK    4  A    between atoms: O_22  and  C_6 
REMARK    5  A    between atoms: O_23  and  C_7 
REMARK       I    between atoms: C_12  and  N_13 
REMARK    6  A    between atoms: C_20  and  C_12 
REMARK    7  A    between atoms: N_13  and  C_21 
REMARK    8  A    between atoms: O_14  and  C_20 
REMARK    9  A    between atoms: C_15  and  O_14 
ROOT
ATOM      1  C   UNL d   1     -48.990  27.664  34.233  0.00  0.00     0.105 A 
ATOM      2  C   UNL d   1     -49.008  27.212  33.551  0.00  0.00     0.015 A 
ATOM      3  C   UNL d   1     -49.632  27.681  34.736  0.00  0.00     0.015 A 
ATOM      4  C   UNL d   1     -50.331  26.787  33.878  0.00  0.00     0.085 A 
ATOM      5  C   UNL d   1     -49.665  26.767  33.352  0.00  0.00     0.020 A 
ATOM      6  C   UNL d   1     -50.293  27.241  34.548  0.00  0.00     0.020 A 
ENDROOT
BRANCH   1   7
ATOM      7  S   UNL d   1     -48.313  28.114  34.424  0.00  0.00     0.287 S 
ATOM      8  O   UNL d   1     -47.896  27.756  33.790  0.00  0.00    -0.198 OA
ATOM      9  O   UNL d   1     -48.722  28.474  35.056  0.00  0.00    -0.198 OA
BRANCH   7  10
ATOM     10  N   UNL d   1     -47.631  28.564  34.613  0.00  0.00    -0.139 NA
BRANCH  10  11
ATOM     11  C   UNL d   1     -47.704  29.342  34.874  0.00  0.00     0.182 A 
ATOM     12  N   UNL d   1     -47.383  29.560  35.590  0.00  0.00    -0.185 NA
ATOM     13  C   UNL d   1     -47.454  30.359  35.865  0.00  0.00     0.274 A 
ATOM     14  N   UNL d   1     -47.840  30.908  35.418  0.00  0.00    -0.181 NA
ATOM     15  C   UNL d   1     -48.168  30.716  34.700  0.00  0.00     0.185 A 
ATOM     16  C   UNL d   1     -48.102  29.900  34.408  0.00  0.00     0.084 A 
BRANCH  13  17
ATOM     17  O   UNL d   1     -47.124  30.576  36.600  0.00  0.00    -0.297 OA
ATOM     18  C   UNL d   1     -46.988  30.014  37.206  0.00  0.00     0.185 C 
ENDBRANCH  13  17
BRANCH  15  19
ATOM     19  O   UNL d   1     -48.563  31.300  34.255  0.00  0.00    -0.312 OA
ATOM     20  C   UNL d   1     -48.108  31.748  33.707  0.00  0.00     0.183 C 
ENDBRANCH  15  19
ENDBRANCH  10  11
ENDBRANCH   7  10
ENDBRANCH   1   7
BRANCH   4  21
ATOM     21  N   UNL d   1     -51.014  26.347  33.705  0.00  0.00    -0.206 NA
ATOM     22  C   UNL d   1     -51.111  25.600  34.033  0.00  0.00     0.304 C 
ATOM     23  O   UNL d   1     -50.530  25.292  34.532  0.00  0.00    -0.263 OA
BRANCH  22  24
ATOM     24  C   UNL d   1     -51.796  25.159  33.861  0.00  0.00     0.185 C 
BRANCH  24  25
ATOM     25  O   UNL d   1     -51.859  24.386  34.127  0.00  0.00    -0.299 OA
BRANCH  25  26
ATOM     26  C   UNL d   1     -52.610  23.975  34.106  0.00  0.00     0.111 A 
ATOM     27  C   UNL d   1     -52.968  23.712  34.799  0.00  0.00     0.081 A 
ATOM     28 CL   UNL d   1     -52.595  23.846  35.552  0.00  0.00    -0.080 Cl
ATOM     29  C   UNL d   1     -53.688  23.320  34.764  0.00  0.00     0.013 A 
ATOM     30  C   UNL d   1     -54.054  23.189  34.021  0.00  0.00     0.001 A 
ATOM     31  C   UNL d   1     -53.692  23.454  33.329  0.00  0.00     0.002 A 
ATOM     32  C   UNL d   1     -52.972  23.847  33.364  0.00  0.00     0.026 A 
ENDBRANCH  25  26
ENDBRANCH  24  25
ENDBRANCH  22  24
ENDBRANCH   4  21
TORSDOF 9
ENDMDL
