MODEL 1
REMARK VINA RESULT:      97.5      0.000      0.000
REMARK  5 active torsions:
REMARK  status: ('A' for Active; 'I' for Inactive)
REMARK    1  A    between atoms: C_9  and  C_1 
REMARK    2  A    between atoms: S_2  and  N_8 
REMARK    3  A    between atoms: C_10  and  S_2 
REMARK    4  A    between atoms: C_14  and  C_3 
REMARK    5  A    between atoms: N_8  and  C_9 
ROOT
ATOM      1  C   UNL d   1     -55.884 -99.515 -43.214  0.00  0.00     0.078 A 
ATOM      2  C   UNL d   1     -56.179 -99.522 -43.992  0.00  0.00     0.008 A 
ATOM      3  C   UNL d   1     -56.359 -99.258 -42.595  0.00  0.00     0.281 A 
ATOM      4  C   UNL d   1     -56.948 -99.269 -44.133  0.00  0.00     0.019 A 
ATOM      5  N   UNL d   1     -57.138 -99.003 -42.744  0.00  0.00    -0.208 NA
ATOM      6  C   UNL d   1     -57.423 -99.012 -43.515  0.00  0.00     0.085 A 
ATOM      7  C   UNL d   1     -57.235 -99.277 -44.906  0.00  0.00     0.013 A 
ATOM      8  O   UNL d   1     -56.057 -99.253 -41.809  0.00  0.00    -0.265 OA
ATOM      9  C   UNL d   1     -58.195 -98.758 -43.657  0.00  0.00     0.020 A 
ATOM     10  C   UNL d   1     -58.015 -99.022 -45.056  0.00  0.00     0.058 A 
ATOM     11  C   UNL d   1     -58.490 -98.765 -44.437  0.00  0.00     0.013 A 
ATOM     12 CL   UNL d   1     -58.317 -99.027 -45.841  0.00  0.00    -0.082 Cl
ENDROOT
BRANCH   1  13
ATOM     13  C   UNL d   1     -55.105 -99.770 -43.064  0.00  0.00     0.117 C 
BRANCH  13  14
ATOM     14  N   UNL d   1     -54.878-100.539 -43.276  0.00  0.00    -0.157 NA
BRANCH  14  15
ATOM     15  S   UNL d   1     -54.846-100.982 -42.567  0.00  0.00     0.285 S 
ATOM     16  O   UNL d   1     -54.755-100.281 -42.132  0.00  0.00    -0.198 OA
ATOM     17  O   UNL d   1     -54.937-101.681 -43.012  0.00  0.00    -0.198 OA
BRANCH  15  18
ATOM     18  C   UNL d   1     -54.814-101.422 -41.865  0.00  0.00     0.105 A 
ATOM     19  C   UNL d   1     -54.823-102.249 -41.888  0.00  0.00     0.013 A 
ATOM     20  C   UNL d   1     -54.792-102.692 -41.201  0.00  0.00     0.001 A 
ATOM     21  C   UNL d   1     -54.751-102.302 -40.460  0.00  0.00     0.000 A 
ATOM     22  C   UNL d   1     -54.743-101.475 -40.435  0.00  0.00     0.001 A 
ATOM     23  C   UNL d   1     -54.720-102.738 -39.764  0.00  0.00     0.000 C 
ATOM     24  C   UNL d   1     -54.774-101.035 -41.138  0.00  0.00     0.013 A 
ENDBRANCH  15  18
ENDBRANCH  14  15
ENDBRANCH  13  14
ENDBRANCH   1  13
BRANCH   2  25
ATOM     25  C   UNL d   1     -55.703 -99.779 -44.611  0.00  0.00     0.000 A 
ATOM     26  C   UNL d   1     -55.719-100.563 -44.853  0.00  0.00     0.000 A 
ATOM     27  C   UNL d   1     -55.243-100.820 -45.472  0.00  0.00     0.000 A 
ATOM     28  C   UNL d   1     -54.744-100.298 -45.860  0.00  0.00     0.000 A 
ATOM     29  C   UNL d   1     -54.721 -99.495 -45.621  0.00  0.00     0.000 A 
ATOM     30  C   UNL d   1     -55.198 -99.243 -45.001  0.00  0.00     0.000 A 
ENDBRANCH   2  25
TORSDOF 5
ENDMDL
MODEL 2
REMARK VINA RESULT:      98.3      1.952      4.325
REMARK  5 active torsions:
REMARK  status: ('A' for Active; 'I' for Inactive)
REMARK    1  A    between atoms: C_9  and  C_1 
REMARK    2  A    between atoms: S_2  and  N_8 
REMARK    3  A    between atoms: C_10  and  S_2 
REMARK    4  A    between atoms: C_14  and  C_3 
REMARK    5  A    between atoms: N_8  and  C_9 
ROOT
ATOM      1  C   UNL d   1     -55.037-100.161 -42.350  0.00  0.00     0.078 A 
ATOM      2  C   UNL d   1     -55.137-100.943 -42.081  0.00  0.00     0.008 A 
ATOM      3  C   UNL d   1     -54.834 -99.566 -41.822  0.00  0.00     0.281 A 
ATOM      4  C   UNL d   1     -55.029-101.110 -41.284  0.00  0.00     0.019 A 
ATOM      5  N   UNL d   1     -54.727 -99.741 -41.014  0.00  0.00    -0.208 NA
ATOM      6  C   UNL d   1     -54.826-100.515 -40.756  0.00  0.00     0.085 A 
ATOM      7  C   UNL d   1     -55.129-101.885 -41.022  0.00  0.00     0.013 A 
ATOM      8  O   UNL d   1     -54.735 -98.776 -42.098  0.00  0.00    -0.265 OA
ATOM      9  C   UNL d   1     -54.719-100.684 -39.955  0.00  0.00     0.020 A 
ATOM     10  C   UNL d   1     -55.022-102.062 -40.214  0.00  0.00     0.058 A 
ATOM     11  C   UNL d   1     -54.819-101.467 -39.686  0.00  0.00     0.013 A 
ATOM     12 CL   UNL d   1     -55.121-102.850 -39.938  0.00  0.00    -0.082 Cl
ENDROOT
BRANCH   1  13
ATOM     13  C   UNL d   1     -55.145 -99.985 -43.157  0.00  0.00     0.117 C 
BRANCH  13  14
ATOM     14  N   UNL d   1     -55.248 -99.197 -43.394  0.00  0.00    -0.157 NA
BRANCH  14  15
ATOM     15  S   UNL d   1     -55.999 -99.155 -43.761  0.00  0.00     0.285 S 
ATOM     16  O   UNL d   1     -56.360 -99.378 -43.047  0.00  0.00    -0.198 OA
ATOM     17  O   UNL d   1     -55.628 -98.932 -44.473  0.00  0.00    -0.198 OA
BRANCH  15  18
ATOM     18  C   UNL d   1     -56.743 -99.114 -44.125  0.00  0.00     0.105 A 
ATOM     19  C   UNL d   1     -56.843 -99.370 -44.905  0.00  0.00     0.013 A 
ATOM     20  C   UNL d   1     -57.573 -99.333 -45.273  0.00  0.00     0.001 A 
ATOM     21  C   UNL d   1     -58.232 -99.030 -44.853  0.00  0.00     0.000 A 
ATOM     22  C   UNL d   1     -58.134 -98.773 -44.072  0.00  0.00     0.001 A 
ATOM     23  C   UNL d   1     -58.970 -98.988 -45.213  0.00  0.00     0.000 C 
ATOM     24  C   UNL d   1     -57.389 -98.814 -43.708  0.00  0.00     0.013 A 
ENDBRANCH  15  18
ENDBRANCH  14  15
ENDBRANCH  13  14
ENDBRANCH   1  13
BRANCH   2  25
ATOM     25  C   UNL d   1     -55.340-101.538 -42.609  0.00  0.00     0.000 A 
ATOM     26  C   UNL d   1     -56.106-101.832 -42.634  0.00  0.00     0.000 A 
ATOM     27  C   UNL d   1     -56.309-102.427 -43.163  0.00  0.00     0.000 A 
ATOM     28  C   UNL d   1     -55.750-102.740 -43.676  0.00  0.00     0.000 A 
ATOM     29  C   UNL d   1     -54.966-102.447 -43.658  0.00  0.00     0.000 A 
ATOM     30  C   UNL d   1     -54.767-101.851 -43.127  0.00  0.00     0.000 A 
ENDBRANCH   2  25
TORSDOF 5
ENDMDL
MODEL 3
REMARK VINA RESULT:      98.3      1.627      2.829
REMARK  5 active torsions:
REMARK  status: ('A' for Active; 'I' for Inactive)
REMARK    1  A    between atoms: C_9  and  C_1 
REMARK    2  A    between atoms: S_2  and  N_8 
REMARK    3  A    between atoms: C_10  and  S_2 
REMARK    4  A    between atoms: C_14  and  C_3 
REMARK    5  A    between atoms: N_8  and  C_9 
ROOT
ATOM      1  C   UNL d   1     -55.229-101.307 -43.042  0.00  0.00     0.078 A 
ATOM      2  C   UNL d   1     -55.415-100.561 -43.360  0.00  0.00     0.008 A 
ATOM      3  C   UNL d   1     -54.909-101.892 -43.521  0.00  0.00     0.281 A 
ATOM      4  C   UNL d   1     -55.276-100.418 -44.157  0.00  0.00     0.019 A 
ATOM      5  N   UNL d   1     -54.770-101.742 -44.329  0.00  0.00    -0.208 NA
ATOM      6  C   UNL d   1     -54.956-101.003 -44.637  0.00  0.00     0.085 A 
ATOM      7  C   UNL d   1     -55.462 -99.678 -44.469  0.00  0.00     0.013 A 
ATOM      8  O   UNL d   1     -54.722-102.645 -43.194  0.00  0.00    -0.265 OA
ATOM      9  C   UNL d   1     -54.817-100.859 -45.437  0.00  0.00     0.020 A 
ATOM     10  C   UNL d   1     -55.323 -99.526 -45.277  0.00  0.00     0.058 A 
ATOM     11  C   UNL d   1     -55.003-100.111 -45.756  0.00  0.00     0.013 A 
ATOM     12 CL   UNL d   1     -55.509 -98.774 -45.603  0.00  0.00    -0.082 Cl
ENDROOT
BRANCH   1  13
ATOM     13  C   UNL d   1     -55.368-101.458 -42.234  0.00  0.00     0.117 C 
BRANCH  13  14
ATOM     14  N   UNL d   1     -54.939-102.054 -41.849  0.00  0.00    -0.157 NA
BRANCH  14  15
ATOM     15  S   UNL d   1     -55.342-102.214 -41.134  0.00  0.00     0.285 S 
ATOM     16  O   UNL d   1     -54.819-101.715 -40.726  0.00  0.00    -0.198 OA
ATOM     17  O   UNL d   1     -55.863-102.713 -41.551  0.00  0.00    -0.198 OA
BRANCH  15  18
ATOM     18  C   UNL d   1     -55.743-102.373 -40.425  0.00  0.00     0.105 A 
ATOM     19  C   UNL d   1     -56.497-102.713 -40.437  0.00  0.00     0.013 A 
ATOM     20  C   UNL d   1     -56.900-102.874 -39.743  0.00  0.00     0.001 A 
ATOM     21  C   UNL d   1     -56.543-102.691 -39.007  0.00  0.00     0.000 A 
ATOM     22  C   UNL d   1     -55.789-102.352 -38.993  0.00  0.00     0.001 A 
ATOM     23  C   UNL d   1     -56.940-102.849 -38.304  0.00  0.00     0.000 C 
ATOM     24  C   UNL d   1     -55.388-102.192 -39.702  0.00  0.00     0.013 A 
ENDBRANCH  15  18
ENDBRANCH  14  15
ENDBRANCH  13  14
ENDBRANCH   1  13
BRANCH   2  25
ATOM     25  C   UNL d   1     -55.735 -99.975 -42.881  0.00  0.00     0.000 A 
ATOM     26  C   UNL d   1     -55.257 -99.543 -42.373  0.00  0.00     0.000 A 
ATOM     27  C   UNL d   1     -55.577 -98.957 -41.893  0.00  0.00     0.000 A 
ATOM     28  C   UNL d   1     -56.380 -98.794 -41.912  0.00  0.00     0.000 A 
ATOM     29  C   UNL d   1     -56.877 -99.230 -42.427  0.00  0.00     0.000 A 
ATOM     30  C   UNL d   1     -56.553 -99.814 -42.905  0.00  0.00     0.000 A 
ENDBRANCH   2  25
TORSDOF 5
ENDMDL
MODEL 4
REMARK VINA RESULT:      99.6      1.799      3.036
REMARK  5 active torsions:
REMARK  status: ('A' for Active; 'I' for Inactive)
REMARK    1  A    between atoms: C_9  and  C_1 
REMARK    2  A    between atoms: S_2  and  N_8 
REMARK    3  A    between atoms: C_10  and  S_2 
REMARK    4  A    between atoms: C_14  and  C_3 
REMARK    5  A    between atoms: N_8  and  C_9 
ROOT
ATOM      1  C   UNL d   1     -56.375 -98.817 -44.278  0.00  0.00     0.078 A 
ATOM      2  C   UNL d   1     -57.198 -98.835 -44.407  0.00  0.00     0.008 A 
ATOM      3  C   UNL d   1     -55.859 -98.779 -44.916  0.00  0.00     0.281 A 
ATOM      4  C   UNL d   1     -57.485 -98.814 -45.176  0.00  0.00     0.019 A 
ATOM      5  N   UNL d   1     -56.156 -98.758 -45.694  0.00  0.00    -0.208 NA
ATOM      6  C   UNL d   1     -56.969 -98.776 -45.814  0.00  0.00     0.085 A 
ATOM      7  C   UNL d   1     -58.300 -98.832 -45.299  0.00  0.00     0.013 A 
ATOM      8  O   UNL d   1     -55.028 -98.761 -44.781  0.00  0.00    -0.265 OA
ATOM      9  C   UNL d   1     -57.258 -98.756 -46.586  0.00  0.00     0.020 A 
ATOM     10  C   UNL d   1     -58.598 -98.811 -46.077  0.00  0.00     0.058 A 
ATOM     11  C   UNL d   1     -58.082 -98.773 -46.714  0.00  0.00     0.013 A 
ATOM     12 CL   UNL d   1     -59.428 -98.829 -46.212  0.00  0.00    -0.082 Cl
ENDROOT
BRANCH   1  13
ATOM     13  C   UNL d   1     -56.077 -98.838 -43.500  0.00  0.00     0.117 C 
BRANCH  13  14
ATOM     14  N   UNL d   1     -55.304 -99.105 -43.364  0.00  0.00    -0.157 NA
BRANCH  14  15
ATOM     15  S   UNL d   1     -55.244 -99.856 -43.726  0.00  0.00     0.285 S 
ATOM     16  O   UNL d   1     -55.604-100.204 -43.064  0.00  0.00    -0.198 OA
ATOM     17  O   UNL d   1     -54.884 -99.498 -44.387  0.00  0.00    -0.198 OA
BRANCH  15  18
ATOM     18  C   UNL d   1     -55.184-100.602 -44.086  0.00  0.00     0.105 A 
ATOM     19  C   UNL d   1     -54.778-100.690 -44.801  0.00  0.00     0.013 A 
ATOM     20  C   UNL d   1     -54.714-101.422 -45.163  0.00  0.00     0.001 A 
ATOM     21  C   UNL d   1     -55.065-102.092 -44.804  0.00  0.00     0.000 A 
ATOM     22  C   UNL d   1     -55.471-102.005 -44.089  0.00  0.00     0.001 A 
ATOM     23  C   UNL d   1     -55.006-102.831 -45.160  0.00  0.00     0.000 C 
ATOM     24  C   UNL d   1     -55.531-101.260 -43.729  0.00  0.00     0.013 A 
ENDBRANCH  15  18
ENDBRANCH  14  15
ENDBRANCH  13  14
ENDBRANCH   1  13
BRANCH   2  25
ATOM     25  C   UNL d   1     -57.714 -98.873 -43.769  0.00  0.00     0.000 A 
ATOM     26  C   UNL d   1     -57.430 -98.860 -42.999  0.00  0.00     0.000 A 
ATOM     27  C   UNL d   1     -57.946 -98.898 -42.361  0.00  0.00     0.000 A 
ATOM     28  C   UNL d   1     -58.756 -98.950 -42.481  0.00  0.00     0.000 A 
ATOM     29  C   UNL d   1     -59.056 -98.964 -43.263  0.00  0.00     0.000 A 
ATOM     30  C   UNL d   1     -58.536 -98.926 -43.898  0.00  0.00     0.000 A 
ENDBRANCH   2  25
TORSDOF 5
ENDMDL
