MODEL 1
REMARK VINA RESULT:      34.8      0.000      0.000
REMARK  4 active torsions:
REMARK  status: ('A' for Active; 'I' for Inactive)
REMARK    1  A    between atoms: C_2  and  S_1 
REMARK    2  A    between atoms: N_3  and  S_1 
REMARK    3  A    between atoms: C_6  and  N_3 
REMARK    4  A    between atoms: C_4  and  C_6 
REMARK       I    between atoms: N_5  and  C_4 
ROOT
ATOM      1  S   UNL d   1      14.931  13.801  -0.979  0.00  0.00     0.287 S 
ATOM      2  O   UNL d   1      15.141  13.467  -0.241  0.00  0.00    -0.198 OA
ATOM      3  O   UNL d   1      14.724  14.148  -1.719  0.00  0.00    -0.198 OA
ENDROOT
BRANCH   1   4
ATOM      4  C   UNL d   1      15.264  14.547  -0.733  0.00  0.00     0.126 A 
ATOM      5  C   UNL d   1      14.910  15.258  -0.972  0.00  0.00     0.071 A 
ATOM      6 CL   UNL d   1      14.220  15.259  -1.461  0.00  0.00    -0.082 Cl
ATOM      7  C   UNL d   1      15.237  15.985  -0.730  0.00  0.00     0.012 A 
ATOM      8  C   UNL d   1      15.910  15.983  -0.254  0.00  0.00     0.002 A 
ATOM      9  C   UNL d   1      16.259  15.266  -0.018  0.00  0.00     0.012 A 
ATOM     10  C   UNL d   1      15.938  14.549  -0.256  0.00  0.00     0.071 A 
ATOM     11 CL   UNL d   1      16.284  13.836  -0.022  0.00  0.00    -0.082 Cl
ENDBRANCH   1   4
BRANCH   1  12
ATOM     12  N   UNL d   1      14.603  13.068  -1.223  0.00  0.00    -0.152 NA
BRANCH  12  13
ATOM     13  C   UNL d   1      13.970  13.060  -1.770  0.00  0.00     0.173 C 
BRANCH  13  14
ATOM     14  C   UNL d   1      13.894  12.420  -2.300  0.00  0.00     0.285 C 
ATOM     15  N   UNL d   1      13.574  12.527  -3.054  0.00  0.00    -0.271 N 
ATOM     16  C   UNL d   1      13.340  13.294  -3.239  0.00  0.00     0.083 A 
ATOM     17  C   UNL d   1      13.532  11.856  -3.516  0.00  0.00     0.083 A 
ATOM     18  C   UNL d   1      13.007  13.568  -3.938  0.00  0.00     0.019 A 
ATOM     19  C   UNL d   1      12.825  13.147  -4.620  0.00  0.00     0.002 A 
ATOM     20  C   UNL d   1      12.928  12.364  -4.776  0.00  0.00     0.002 A 
ATOM     21  C   UNL d   1      13.243  11.782  -4.286  0.00  0.00     0.019 A 
ATOM     22  O   UNL d   1      14.097  11.836  -2.095  0.00  0.00    -0.265 OA
ENDBRANCH  13  14
ENDBRANCH  12  13
ENDBRANCH   1  12
TORSDOF 4
ENDMDL
MODEL 2
REMARK VINA RESULT:      34.9      0.974      1.577
REMARK  4 active torsions:
REMARK  status: ('A' for Active; 'I' for Inactive)
REMARK    1  A    between atoms: C_2  and  S_1 
REMARK    2  A    between atoms: N_3  and  S_1 
REMARK    3  A    between atoms: C_6  and  N_3 
REMARK    4  A    between atoms: C_4  and  C_6 
REMARK       I    between atoms: N_5  and  C_4 
ROOT
ATOM      1  S   UNL d   1      14.283  13.331  -1.403  0.00  0.00     0.287 S 
ATOM      2  O   UNL d   1      13.828  14.033  -1.443  0.00  0.00    -0.198 OA
ATOM      3  O   UNL d   1      14.749  12.630  -1.356  0.00  0.00    -0.198 OA
ENDROOT
BRANCH   1   4
ATOM      4  C   UNL d   1      14.876  13.745  -0.952  0.00  0.00     0.126 A 
ATOM      5  C   UNL d   1      15.389  13.322  -0.456  0.00  0.00     0.071 A 
ATOM      6 CL   UNL d   1      15.336  12.480  -0.388  0.00  0.00    -0.082 Cl
ATOM      7  C   UNL d   1      15.968  13.729  -0.015  0.00  0.00     0.012 A 
ATOM      8  C   UNL d   1      16.019  14.548  -0.082  0.00  0.00     0.002 A 
ATOM      9  C   UNL d   1      15.501  14.966  -0.581  0.00  0.00     0.012 A 
ATOM     10  C   UNL d   1      14.930  14.566  -1.015  0.00  0.00     0.071 A 
ATOM     11 CL   UNL d   1      14.414  14.979  -1.511  0.00  0.00    -0.082 Cl
ENDBRANCH   1   4
BRANCH   1  12
ATOM     12  N   UNL d   1      13.700  12.922  -1.847  0.00  0.00    -0.152 NA
BRANCH  12  13
ATOM     13  C   UNL d   1      13.667  13.021  -2.678  0.00  0.00     0.173 C 
BRANCH  13  14
ATOM     14  C   UNL d   1      13.255  12.463  -3.141  0.00  0.00     0.285 C 
ATOM     15  N   UNL d   1      13.293  12.483  -3.967  0.00  0.00    -0.271 N 
ATOM     16  C   UNL d   1      13.758  13.081  -4.290  0.00  0.00     0.083 A 
ATOM     17  C   UNL d   1      12.865  11.906  -4.352  0.00  0.00     0.083 A 
ATOM     18  C   UNL d   1      13.901  13.240  -5.083  0.00  0.00     0.019 A 
ATOM     19  C   UNL d   1      13.618  12.843  -5.744  0.00  0.00     0.002 A 
ATOM     20  C   UNL d   1      13.131  12.203  -5.784  0.00  0.00     0.002 A 
ATOM     21  C   UNL d   1      12.792  11.780  -5.165  0.00  0.00     0.019 A 
ATOM     22  O   UNL d   1      12.904  12.013  -2.827  0.00  0.00    -0.265 OA
ENDBRANCH  13  14
ENDBRANCH  12  13
ENDBRANCH   1  12
TORSDOF 4
ENDMDL
