MODEL 1
REMARK VINA RESULT:      49.9      0.000      0.000
REMARK  6 active torsions:
REMARK  status: ('A' for Active; 'I' for Inactive)
REMARK    1  A    between atoms: C_12  and  N_1 
REMARK    2  A    between atoms: C_9  and  C_23 
REMARK       I    between atoms: N_10  and  C_9 
REMARK    3  A    between atoms: C_13  and  N_10 
REMARK    4  A    between atoms: C_22  and  C_12 
REMARK    5  A    between atoms: O_21  and  C_15 
REMARK    6  A    between atoms: C_23  and  C_22 
ROOT
ATOM      1  C   UNL d   1     -56.192 -99.431 -44.312  0.00  0.00     0.085 C 
ENDROOT
BRANCH   1   2
ATOM      2  N   UNL d   1     -56.979 -99.265 -44.516  0.00  0.00    -0.249 N 
ATOM      3  C   UNL d   1     -57.139 -98.974 -45.271  0.00  0.00     0.208 A 
ATOM      4  N   UNL d   1     -57.924 -98.805 -45.486  0.00  0.00    -0.218 NA
ATOM      5  S   UNL d   1     -56.508 -98.857 -45.800  0.00  0.00    -0.038 SA
ATOM      6  C   UNL d   1     -58.540 -98.923 -44.958  0.00  0.00     0.088 A 
ATOM      7  C   UNL d   1     -58.379 -99.216 -44.199  0.00  0.00     0.074 A 
ATOM      8  C   UNL d   1     -59.315 -98.755 -45.172  0.00  0.00     0.019 A 
ATOM      9  C   UNL d   1     -57.604 -99.385 -43.980  0.00  0.00     0.268 A 
ATOM     10  C   UNL d   1     -58.995 -99.336 -43.665  0.00  0.00     0.006 A 
ATOM     11  O   UNL d   1     -57.443 -99.676 -43.225  0.00  0.00    -0.267 OA
ATOM     12  C   UNL d   1     -59.772 -99.166 -43.884  0.00  0.00     0.000 A 
ATOM     13  C   UNL d   1     -59.932 -98.875 -44.639  0.00  0.00     0.002 A 
ENDBRANCH   1   2
BRANCH   1  14
ATOM     14  C   UNL d   1     -55.776-100.017 -44.727  0.00  0.00     0.024 C 
BRANCH  14  15
ATOM     15  C   UNL d   1     -55.042-100.283 -44.443  0.00  0.00     0.064 C 
BRANCH  15  16
ATOM     16  C   UNL d   1     -55.015-100.856 -43.837  0.00  0.00     0.279 C 
ATOM     17  N   UNL d   1     -54.820-100.639 -43.075  0.00  0.00    -0.208 NA
ATOM     18  O   UNL d   1     -55.189-101.656 -44.014  0.00  0.00    -0.265 OA
BRANCH  17  19
ATOM     19  C   UNL d   1     -54.793-101.216 -42.466  0.00  0.00     0.085 A 
ATOM     20  C   UNL d   1     -54.740-102.021 -42.643  0.00  0.00     0.021 A 
ATOM     21  C   UNL d   1     -54.714-102.579 -42.036  0.00  0.00     0.026 A 
ATOM     22  C   UNL d   1     -54.741-102.329 -41.246  0.00  0.00     0.094 A 
ATOM     23  C   UNL d   1     -54.793-101.525 -41.066  0.00  0.00     0.026 A 
ATOM     24  C   UNL d   1     -54.819-100.966 -41.686  0.00  0.00     0.021 A 
BRANCH  22  25
ATOM     25  O   UNL d   1     -54.715-102.880 -40.632  0.00  0.00    -0.328 OA
ATOM     26  C   UNL d   1     -54.713-102.618 -39.853  0.00  0.00     0.181 C 
ENDBRANCH  22  25
ENDBRANCH  17  19
ENDBRANCH  15  16
ENDBRANCH  14  15
ENDBRANCH   1  14
TORSDOF 6
ENDMDL
