MODEL 1
REMARK VINA RESULT:      11.0      0.000      0.000
REMARK  3 active torsions:
REMARK  status: ('A' for Active; 'I' for Inactive)
REMARK    1  A    between atoms: N_5  and  C_2 
REMARK    2  A    between atoms: C_8  and  C_3 
REMARK       I    between atoms: C_7  and  N_5 
REMARK    3  A    between atoms: C_10  and  C_7 
ROOT
ATOM      1  N   UNL d   1      14.480  12.237  -2.442  0.00  0.00    -0.200 NA
ATOM      2  C   UNL d   1      14.466  11.997  -1.655  0.00  0.00     0.216 A 
ATOM      3  C   UNL d   1      13.704  12.165  -2.740  0.00  0.00     0.172 A 
ATOM      4  N   UNL d   1      13.228  11.880  -2.121  0.00  0.00    -0.187 NA
ATOM      5  S   UNL d   1      13.709  11.780  -1.455  0.00  0.00     0.054 SA
ENDROOT
BRANCH   2   6
ATOM      6  N   UNL d   1      15.127  11.979  -1.139  0.00  0.00    -0.181 NA
ATOM      7  C   UNL d   1      15.218  12.542  -0.548  0.00  0.00     0.281 C 
ATOM      8  O   UNL d   1      15.873  12.510  -0.048  0.00  0.00    -0.265 OA
BRANCH   7   9
ATOM      9  C   UNL d   1      14.654  13.136  -0.456  0.00  0.00     0.058 C 
ATOM     10  C   UNL d   1      14.846  13.921  -0.619  0.00  0.00     0.005 C 
ATOM     11  C   UNL d   1      13.894  12.943  -0.200  0.00  0.00     0.005 C 
ENDBRANCH   7   9
ENDBRANCH   2   6
BRANCH   3  12
ATOM     12  C   UNL d   1      13.427  12.335  -3.498  0.00  0.00     0.036 A 
ATOM     13  C   UNL d   1      13.515  11.779  -4.110  0.00  0.00     0.003 A 
ATOM     14  C   UNL d   1      13.237  11.949  -4.868  0.00  0.00     0.000 A 
ATOM     15  C   UNL d   1      12.869  12.678  -5.022  0.00  0.00     0.000 A 
ATOM     16  C   UNL d   1      12.780  13.234  -4.411  0.00  0.00     0.000 A 
ATOM     17  C   UNL d   1      13.058  13.063  -3.652  0.00  0.00     0.003 A 
ENDBRANCH   3  12
TORSDOF 3
ENDMDL
