MODEL 1
REMARK VINA RESULT:     105.6      0.000      0.000
REMARK  5 active torsions:
REMARK  status: ('A' for Active; 'I' for Inactive)
REMARK    1  A    between atoms: C_14  and  N_3 
REMARK    2  A    between atoms: C_15  and  C_9 
REMARK    3  A    between atoms: O_22  and  C_12 
REMARK    4  A    between atoms: O_23  and  C_13 
REMARK    5  A    between atoms: C_16  and  C_14 
ROOT
ATOM      1  C   UNL d   1     -49.821  27.237  34.612  0.00  0.00     0.056 A 
ATOM      2  C   UNL d   1     -49.375  27.912  34.422  0.00  0.00     0.107 A 
ATOM      3  N   UNL d   1     -49.430  27.378  35.983  0.00  0.00    -0.304 N 
ATOM      4  C   UNL d   1     -48.963  28.314  35.010  0.00  0.00     0.038 A 
ATOM      5  N   UNL d   1     -49.454  28.041  33.612  0.00  0.00    -0.148 NA
ATOM      6  C   UNL d   1     -49.848  26.970  35.392  0.00  0.00     0.083 A 
ATOM      7  N   UNL d   1     -49.942  27.451  33.306  0.00  0.00    -0.148 NA
ATOM      8  C   UNL d   1     -48.990  28.047  35.790  0.00  0.00     0.068 A 
ATOM      9  C   UNL d   1     -50.172  26.953  33.916  0.00  0.00     0.106 A 
ATOM     10  C   UNL d   1     -48.577  28.449  36.379  0.00  0.00     0.044 A 
ATOM     11  C   UNL d   1     -48.523  28.983  34.818  0.00  0.00     0.029 A 
ATOM     12  C   UNL d   1     -48.137  29.117  36.186  0.00  0.00     0.118 A 
ATOM     13  C   UNL d   1     -48.110  29.384  35.406  0.00  0.00     0.116 A 
ENDROOT
BRANCH   3  14
ATOM     14  C   UNL d   1     -49.457  27.111  36.763  0.00  0.00     0.080 C 
BRANCH  14  15
ATOM     15  C   UNL d   1     -50.181  27.037  37.148  0.00  0.00     0.020 A 
ATOM     16  C   UNL d   1     -50.378  27.556  37.769  0.00  0.00     0.031 A 
ATOM     17  C   UNL d   1     -51.101  27.482  38.155  0.00  0.00     0.140 A 
ATOM     18  F   UNL d   1     -51.292  27.998  38.770  0.00  0.00    -0.204 F 
ATOM     19  C   UNL d   1     -51.641  26.889  37.926  0.00  0.00     0.030 A 
ATOM     20  C   UNL d   1     -51.444  26.370  37.305  0.00  0.00     0.002 A 
ATOM     21  C   UNL d   1     -50.717  26.446  36.919  0.00  0.00     0.002 A 
ENDBRANCH  14  15
ENDBRANCH   3  14
BRANCH   9  22
ATOM     22  C   UNL d   1     -50.666  26.310  33.763  0.00  0.00     0.020 A 
ATOM     23  C   UNL d   1     -51.486  26.394  33.835  0.00  0.00     0.004 A 
ATOM     24  C   UNL d   1     -51.979  25.746  33.680  0.00  0.00     0.030 A 
ATOM     25  C   UNL d   1     -51.659  25.031  33.458  0.00  0.00     0.140 A 
ATOM     26  C   UNL d   1     -50.841  24.944  33.385  0.00  0.00     0.030 A 
ATOM     27  F   UNL d   1     -52.161  24.391  33.306  0.00  0.00    -0.204 F 
ATOM     28  C   UNL d   1     -50.342  25.587  33.538  0.00  0.00     0.004 A 
ENDBRANCH   9  22
BRANCH  12  29
ATOM     29  O   UNL d   1     -47.717  29.525  36.789  0.00  0.00    -0.326 OA
ATOM     30  C   UNL d   1     -46.989  29.876  36.617  0.00  0.00     0.181 C 
ENDBRANCH  12  29
BRANCH  13  31
ATOM     31  O   UNL d   1     -47.662  30.062  35.218  0.00  0.00    -0.326 OA
ATOM     32  C   UNL d   1     -48.014  30.687  34.804  0.00  0.00     0.181 C 
ENDBRANCH  13  31
TORSDOF 5
ENDMDL
