MODEL 1
REMARK VINA RESULT:      60.6      0.000      0.000
REMARK  4 active torsions:
REMARK  status: ('A' for Active; 'I' for Inactive)
REMARK    1  A    between atoms: N_2  and  C_1 
REMARK    2  A    between atoms: C_3  and  C_1 
REMARK       I    between atoms: C_6  and  N_2 
REMARK       I    between atoms: N_8  and  C_6 
REMARK    3  A    between atoms: N_11  and  C_7 
REMARK    4  A    between atoms: C_9  and  N_8 
ROOT
ATOM      1  N   UNL d   1      14.202  15.564  -4.611  0.00  0.00    -0.159 NA
ATOM      2  C   UNL d   1      13.848  14.979  -4.150  0.00  0.00     0.370 C 
ATOM      3  N   UNL d   1      13.910  14.194  -4.375  0.00  0.00    -0.172 NA
ATOM      4  O   UNL d   1      13.433  15.182  -3.467  0.00  0.00    -0.243 OA
ENDROOT
BRANCH   1   5
ATOM      5  C   UNL d   1      14.370  16.351  -4.749  0.00  0.00     0.386 A 
ATOM      6  O   UNL d   1      13.706  16.279  -5.235  0.00  0.00    -0.283 OA
ATOM      7  C   UNL d   1      13.560  17.007  -5.594  0.00  0.00     0.121 A 
ATOM      8  C   UNL d   1      12.980  17.256  -6.124  0.00  0.00     0.026 A 
ATOM      9  C   UNL d   1      14.139  17.536  -5.329  0.00  0.00     0.121 A 
ATOM     10  C   UNL d   1      12.978  18.033  -6.389  0.00  0.00     0.002 A 
ATOM     11  C   UNL d   1      13.557  18.568  -6.126  0.00  0.00     0.002 A 
ATOM     12  C   UNL d   1      14.133  18.313  -5.597  0.00  0.00     0.026 A 
ATOM     13  O   UNL d   1      14.633  17.134  -4.813  0.00  0.00    -0.283 OA
BRANCH   5  14
ATOM     14  C   UNL d   1      15.016  16.307  -4.238  0.00  0.00     0.470 C 
ATOM     15  F   UNL d   1      15.852  16.256  -4.419  0.00  0.00    -0.164 F 
ATOM     16  F   UNL d   1      15.023  16.301  -3.371  0.00  0.00    -0.164 F 
ATOM     17  F   UNL d   1      15.601  16.268  -3.767  0.00  0.00    -0.164 F 
ENDBRANCH   5  14
ENDBRANCH   1   5
BRANCH   3  18
ATOM     18  C   UNL d   1      13.636  13.475  -4.060  0.00  0.00     0.172 A 
ATOM     19  C   UNL d   1      13.884  13.235  -3.318  0.00  0.00     0.076 A 
ATOM     20  C   UNL d   1      13.615  12.522  -3.000  0.00  0.00     0.153 A 
ATOM     21  N   UNL d   1      13.087  12.049  -3.442  0.00  0.00    -0.206 NA
ATOM     22  C   UNL d   1      12.841  12.297  -4.189  0.00  0.00     0.202 A 
ATOM     23  N   UNL d   1      13.111  13.008  -4.504  0.00  0.00    -0.205 NA
BRANCH  20  24
ATOM     24  N   UNL d   1      13.862  12.275  -2.253  0.00  0.00    -0.285 N 
ATOM     25  C   UNL d   1      14.661  12.277  -2.064  0.00  0.00     0.108 A 
ATOM     26  C   UNL d   1      14.895  12.027  -1.313  0.00  0.00     0.142 A 
ATOM     27  O   UNL d   1      14.342  11.779  -0.758  0.00  0.00    -0.300 OA
ATOM     28  C   UNL d   1      13.543  11.780  -0.955  0.00  0.00     0.142 A 
ATOM     29  C   UNL d   1      13.295  12.028  -1.702  0.00  0.00     0.108 A 
ENDBRANCH  20  24
ENDBRANCH   3  18
TORSDOF 4
ENDMDL
