MODEL 1
REMARK VINA RESULT:      -4.1      0.000      0.000
REMARK  5 active torsions:
REMARK  status: ('A' for Active; 'I' for Inactive)
REMARK    1  A    between atoms: C_2  and  N_1 
REMARK    2  A    between atoms: N_5  and  C_3 
REMARK       I    between atoms: C_4  and  N_5 
REMARK       I    between atoms: N_9  and  C_4 
REMARK    3  A    between atoms: O_11  and  N_9 
REMARK    4  A    between atoms: C_13  and  O_11 
REMARK    5  A    between atoms: C_14  and  C_13 
ROOT
ATOM      1  C   UNL d   1      58.635  -0.506  29.410  0.00  0.00     0.156 A 
ATOM      2  C   UNL d   1      58.320  -1.141  29.831  0.00  0.00     0.160 A 
ATOM      3  C   UNL d   1      59.152  -0.639  28.788  0.00  0.00     0.026 A 
ATOM      4  C   UNL d   1      58.527  -1.922  29.623  0.00  0.00     0.034 A 
ATOM      5  C   UNL d   1      59.358  -1.414  28.580  0.00  0.00     0.002 A 
ATOM      6  C   UNL d   1      59.040  -2.054  29.005  0.00  0.00     0.003 A 
ENDROOT
BRANCH   2   7
ATOM      7  N   UNL d   1      57.798  -1.007  30.459  0.00  0.00    -0.335 NA
ATOM      8  C   UNL d   1      57.279  -0.873  31.085  0.00  0.00     0.499 C 
ATOM      9  O   UNL d   1      57.066  -1.665  31.066  0.00  0.00    -0.211 OA
ATOM     10  N   UNL d   1      56.762  -0.740  31.707  0.00  0.00    -0.199 NA
BRANCH  10  11
ATOM     11  O   UNL d   1      56.240  -0.605  32.336  0.00  0.00    -0.156 OA
BRANCH  11  12
ATOM     12  C   UNL d   1      56.038   0.055  32.791  0.00  0.00     0.163 C 
BRANCH  12  13
ATOM     13  C   UNL d   1      55.483  -0.399  33.191  0.00  0.00     0.030 C 
ATOM     14  C   UNL d   1      55.396   0.199  33.746  0.00  0.00     0.002 C 
ENDBRANCH  12  13
ENDBRANCH  11  12
ENDBRANCH  10  11
ENDBRANCH   2   7
BRANCH   1  15
ATOM     15  N   UNL d   1      58.428   0.270  29.618  0.00  0.00    -0.111 N 
ATOM     16  O   UNL d   1      58.849   0.681  30.195  0.00  0.00    -0.532 OA
ATOM     17  O   UNL d   1      57.782   0.636  29.235  0.00  0.00    -0.532 OA
ENDBRANCH   1  15
TORSDOF 5
ENDMDL
MODEL 2
REMARK VINA RESULT:      -3.8      1.015      4.576
REMARK  5 active torsions:
REMARK  status: ('A' for Active; 'I' for Inactive)
REMARK    1  A    between atoms: C_2  and  N_1 
REMARK    2  A    between atoms: N_5  and  C_3 
REMARK       I    between atoms: C_4  and  N_5 
REMARK       I    between atoms: N_9  and  C_4 
REMARK    3  A    between atoms: O_11  and  N_9 
REMARK    4  A    between atoms: C_13  and  O_11 
REMARK    5  A    between atoms: C_14  and  C_13 
ROOT
ATOM      1  C   UNL d   1      55.798  -0.795  33.084  0.00  0.00     0.156 A 
ATOM      2  C   UNL d   1      56.026  -0.105  32.694  0.00  0.00     0.160 A 
ATOM      3  C   UNL d   1      55.327  -0.754  33.752  0.00  0.00     0.026 A 
ATOM      4  C   UNL d   1      55.776   0.637  32.981  0.00  0.00     0.034 A 
ATOM      5  C   UNL d   1      55.078  -0.018  34.039  0.00  0.00     0.002 A 
ATOM      6  C   UNL d   1      55.307   0.677  33.645  0.00  0.00     0.003 A 
ENDROOT
BRANCH   2   7
ATOM      7  N   UNL d   1      56.502  -0.146  32.018  0.00  0.00    -0.335 NA
ATOM      8  C   UNL d   1      56.976  -0.187  31.345  0.00  0.00     0.499 C 
ATOM      9  O   UNL d   1      56.681   0.540  31.104  0.00  0.00    -0.211 OA
ATOM     10  N   UNL d   1      57.448  -0.227  30.675  0.00  0.00    -0.199 NA
BRANCH  10  11
ATOM     11  O   UNL d   1      57.924  -0.268  29.999  0.00  0.00    -0.156 OA
BRANCH  11  12
ATOM     12  C   UNL d   1      58.509  -0.789  29.732  0.00  0.00     0.163 C 
BRANCH  12  13
ATOM     13  C   UNL d   1      58.597  -0.332  29.057  0.00  0.00     0.030 C 
ATOM     14  C   UNL d   1      59.096  -0.900  28.738  0.00  0.00     0.002 C 
ENDBRANCH  12  13
ENDBRANCH  11  12
ENDBRANCH  10  11
ENDBRANCH   2   7
BRANCH   1  15
ATOM     15  N   UNL d   1      56.048  -1.532  32.796  0.00  0.00    -0.111 N 
ATOM     16  O   UNL d   1      56.770  -1.855  33.028  0.00  0.00    -0.532 OA
ATOM     17  O   UNL d   1      55.557  -1.949  32.264  0.00  0.00    -0.532 OA
ENDBRANCH   1  15
TORSDOF 5
ENDMDL
MODEL 3
REMARK VINA RESULT:      -3.3      1.312      1.834
REMARK  5 active torsions:
REMARK  status: ('A' for Active; 'I' for Inactive)
REMARK    1  A    between atoms: C_2  and  N_1 
REMARK    2  A    between atoms: N_5  and  C_3 
REMARK       I    between atoms: C_4  and  N_5 
REMARK       I    between atoms: N_9  and  C_4 
REMARK    3  A    between atoms: O_11  and  N_9 
REMARK    4  A    between atoms: C_13  and  O_11 
REMARK    5  A    between atoms: C_14  and  C_13 
ROOT
ATOM      1  C   UNL d   1      59.340  -0.677  29.033  0.00  0.00     0.156 A 
ATOM      2  C   UNL d   1      59.193  -0.048  29.546  0.00  0.00     0.160 A 
ATOM      3  C   UNL d   1      59.951  -0.631  28.490  0.00  0.00     0.026 A 
ATOM      4  C   UNL d   1      59.668   0.636  29.513  0.00  0.00     0.034 A 
ATOM      5  C   UNL d   1      60.424   0.049  28.455  0.00  0.00     0.002 A 
ATOM      6  C   UNL d   1      60.275   0.682  28.973  0.00  0.00     0.003 A 
ENDROOT
BRANCH   2   7
ATOM      7  N   UNL d   1      58.575  -0.094  30.095  0.00  0.00    -0.335 NA
ATOM      8  C   UNL d   1      57.960  -0.140  30.642  0.00  0.00     0.499 C 
ATOM      9  O   UNL d   1      58.076   0.650  30.826  0.00  0.00    -0.211 OA
ATOM     10  N   UNL d   1      57.348  -0.186  31.186  0.00  0.00    -0.199 NA
BRANCH  10  11
ATOM     11  O   UNL d   1      56.730  -0.233  31.735  0.00  0.00    -0.156 OA
BRANCH  11  12
ATOM     12  C   UNL d   1      56.425  -0.832  32.215  0.00  0.00     0.163 C 
BRANCH  12  13
ATOM     13  C   UNL d   1      56.054  -0.265  32.677  0.00  0.00     0.030 C 
ATOM     14  C   UNL d   1      55.586  -0.846  33.016  0.00  0.00     0.002 C 
ENDBRANCH  12  13
ENDBRANCH  11  12
ENDBRANCH  10  11
ENDBRANCH   2   7
BRANCH   1  15
ATOM     15  N   UNL d   1      58.866  -1.356  29.068  0.00  0.00    -0.111 N 
ATOM     16  O   UNL d   1      58.163  -1.406  28.642  0.00  0.00    -0.532 OA
ATOM     17  O   UNL d   1      59.110  -1.999  29.544  0.00  0.00    -0.532 OA
ENDBRANCH   1  15
TORSDOF 5
ENDMDL
MODEL 4
REMARK VINA RESULT:      -3.1      1.171      4.301
REMARK  5 active torsions:
REMARK  status: ('A' for Active; 'I' for Inactive)
REMARK    1  A    between atoms: C_2  and  N_1 
REMARK    2  A    between atoms: N_5  and  C_3 
REMARK       I    between atoms: C_4  and  N_5 
REMARK       I    between atoms: N_9  and  C_4 
REMARK    3  A    between atoms: O_11  and  N_9 
REMARK    4  A    between atoms: C_13  and  O_11 
REMARK    5  A    between atoms: C_14  and  C_13 
ROOT
ATOM      1  C   UNL d   1      56.675   0.309  33.252  0.00  0.00     0.156 A 
ATOM      2  C   UNL d   1      56.297  -0.258  32.786  0.00  0.00     0.160 A 
ATOM      3  C   UNL d   1      56.282   0.651  33.883  0.00  0.00     0.026 A 
ATOM      4  C   UNL d   1      55.513  -0.482  32.957  0.00  0.00     0.034 A 
ATOM      5  C   UNL d   1      55.502   0.429  34.055  0.00  0.00     0.002 A 
ATOM      6  C   UNL d   1      55.122  -0.142  33.585  0.00  0.00     0.003 A 
ENDROOT
BRANCH   2   7
ATOM      7  N   UNL d   1      56.695  -0.604  32.147  0.00  0.00    -0.335 NA
ATOM      8  C   UNL d   1      57.090  -0.948  31.512  0.00  0.00     0.499 C 
ATOM      9  O   UNL d   1      56.617  -1.614  31.590  0.00  0.00    -0.211 OA
ATOM     10  N   UNL d   1      57.484  -1.291  30.880  0.00  0.00    -0.199 NA
BRANCH  10  11
ATOM     11  O   UNL d   1      57.882  -1.638  30.241  0.00  0.00    -0.156 OA
BRANCH  11  12
ATOM     12  C   UNL d   1      58.419  -1.365  29.675  0.00  0.00     0.163 C 
BRANCH  12  13
ATOM     13  C   UNL d   1      58.607  -2.141  29.489  0.00  0.00     0.030 C 
ATOM     14  C   UNL d   1      59.000  -1.884  28.816  0.00  0.00     0.002 C 
ENDBRANCH  12  13
ENDBRANCH  11  12
ENDBRANCH  10  11
ENDBRANCH   2   7
BRANCH   1  15
ATOM     15  N   UNL d   1      57.455   0.531  33.079  0.00  0.00    -0.111 N 
ATOM     16  O   UNL d   1      58.018   0.604  33.677  0.00  0.00    -0.532 OA
ATOM     17  O   UNL d   1      57.669   0.682  32.285  0.00  0.00    -0.532 OA
ENDBRANCH   1  15
TORSDOF 5
ENDMDL
MODEL 5
REMARK VINA RESULT:      -1.9      1.385      4.628
REMARK  5 active torsions:
REMARK  status: ('A' for Active; 'I' for Inactive)
REMARK    1  A    between atoms: C_2  and  N_1 
REMARK    2  A    between atoms: N_5  and  C_3 
REMARK       I    between atoms: C_4  and  N_5 
REMARK       I    between atoms: N_9  and  C_4 
REMARK    3  A    between atoms: O_11  and  N_9 
REMARK    4  A    between atoms: C_13  and  O_11 
REMARK    5  A    between atoms: C_14  and  C_13 
ROOT
ATOM      1  C   UNL d   1      56.318   0.232  33.488  0.00  0.00     0.156 A 
ATOM      2  C   UNL d   1      57.099   0.454  33.343  0.00  0.00     0.160 A 
ATOM      3  C   UNL d   1      56.024   0.234  34.252  0.00  0.00     0.026 A 
ATOM      4  C   UNL d   1      57.591   0.680  33.977  0.00  0.00     0.034 A 
ATOM      5  C   UNL d   1      56.512   0.459  34.883  0.00  0.00     0.002 A 
ATOM      6  C   UNL d   1      57.299   0.682  34.736  0.00  0.00     0.003 A 
ENDROOT
BRANCH   2   7
ATOM      7  N   UNL d   1      57.397   0.452  32.570  0.00  0.00    -0.335 NA
ATOM      8  C   UNL d   1      57.692   0.450  31.801  0.00  0.00     0.499 C 
ATOM      9  O   UNL d   1      58.431   0.654  32.095  0.00  0.00    -0.211 OA
ATOM     10  N   UNL d   1      57.987   0.449  31.036  0.00  0.00    -0.199 NA
BRANCH  10  11
ATOM     11  O   UNL d   1      58.284   0.447  30.263  0.00  0.00    -0.156 OA
BRANCH  11  12
ATOM     12  C   UNL d   1      58.479  -0.143  29.718  0.00  0.00     0.163 C 
BRANCH  12  13
ATOM     13  C   UNL d   1      58.625   0.435  29.155  0.00  0.00     0.030 C 
ATOM     14  C   UNL d   1      59.118  -0.083  28.752  0.00  0.00     0.002 C 
ENDBRANCH  12  13
ENDBRANCH  11  12
ENDBRANCH  10  11
ENDBRANCH   2   7
BRANCH   1  15
ATOM     15  N   UNL d   1      55.830   0.007  32.856  0.00  0.00    -0.111 N 
ATOM     16  O   UNL d   1      55.401   0.568  32.430  0.00  0.00    -0.532 OA
ATOM     17  O   UNL d   1      55.776  -0.801  32.651  0.00  0.00    -0.532 OA
ENDBRANCH   1  15
TORSDOF 5
ENDMDL
