MODEL 1
REMARK VINA RESULT:      -3.0      0.000      0.000
REMARK  3 active torsions:
REMARK  status: ('A' for Active; 'I' for Inactive)
REMARK    1  A    between atoms: N_2  and  S_1 
REMARK    2  A    between atoms: N_3  and  S_1 
REMARK    3  A    between atoms: C_4  and  N_2 
ROOT
ATOM      1  S   UNL d   1      30.826  15.888 -23.873  0.00  0.00     0.351 S 
ATOM      2  O   UNL d   1      30.806  15.811 -23.054  0.00  0.00    -0.180 OA
ATOM      3  O   UNL d   1      30.851  15.967 -24.697  0.00  0.00    -0.180 OA
ENDROOT
BRANCH   1   4
ATOM      4  N   UNL d   1      31.647  15.931 -23.921  0.00  0.00    -0.144 NA
BRANCH   4   5
ATOM      5  C   UNL d   1      32.046  16.635 -23.713  0.00  0.00     0.095 A 
ATOM      6  C   UNL d   1      32.830  16.605 -23.428  0.00  0.00     0.018 A 
ATOM      7  C   UNL d   1      33.229  17.304 -23.233  0.00  0.00     0.002 A 
ATOM      8  C   UNL d   1      33.158  15.869 -23.220  0.00  0.00     0.002 C 
ATOM      9  C   UNL d   1      32.842  18.038 -23.317  0.00  0.00     0.000 A 
ATOM     10  C   UNL d   1      32.056  18.082 -23.603  0.00  0.00     0.002 A 
ATOM     11  C   UNL d   1      33.240  18.728 -23.104  0.00  0.00     0.000 C 
ATOM     12  C   UNL d   1      31.661  17.374 -23.803  0.00  0.00     0.020 A 
ENDBRANCH   4   5
ENDBRANCH   1   4
BRANCH   1  13
ATOM     13  N   UNL d   1      30.003  15.853 -23.896  0.00  0.00    -0.215 N 
ATOM     14  C   UNL d   1      29.581  15.696 -23.198  0.00  0.00     0.093 C 
ATOM     15  C   UNL d   1      28.765  15.661 -23.224  0.00  0.00     0.020 C 
ATOM     16  C   UNL d   1      28.364  15.668 -23.945  0.00  0.00     0.003 C 
ATOM     17  C   UNL d   1      28.792  15.712 -24.647  0.00  0.00     0.020 C 
ATOM     18  C   UNL d   1      29.621  15.749 -24.628  0.00  0.00     0.093 C 
ENDBRANCH   1  13
TORSDOF 3
ENDMDL
MODEL 2
REMARK VINA RESULT:      -2.9      1.774      3.927
REMARK  3 active torsions:
REMARK  status: ('A' for Active; 'I' for Inactive)
REMARK    1  A    between atoms: N_2  and  S_1 
REMARK    2  A    between atoms: N_3  and  S_1 
REMARK    3  A    between atoms: C_4  and  N_2 
ROOT
ATOM      1  S   UNL d   1      32.767  18.148 -23.607  0.00  0.00     0.351 S 
ATOM      2  O   UNL d   1      32.654  17.856 -22.846  0.00  0.00    -0.180 OA
ATOM      3  O   UNL d   1      32.881  18.437 -24.375  0.00  0.00    -0.180 OA
ENDROOT
BRANCH   1   4
ATOM      4  N   UNL d   1      32.657  17.422 -23.980  0.00  0.00    -0.144 NA
BRANCH   4   5
ATOM      5  C   UNL d   1      31.888  17.107 -24.071  0.00  0.00     0.095 A 
ATOM      6  C   UNL d   1      31.753  16.290 -23.965  0.00  0.00     0.018 A 
ATOM      7  C   UNL d   1      30.989  15.981 -24.043  0.00  0.00     0.002 A 
ATOM      8  C   UNL d   1      32.405  15.776 -23.910  0.00  0.00     0.002 C 
ATOM      9  C   UNL d   1      30.356  16.488 -24.234  0.00  0.00     0.000 A 
ATOM     10  C   UNL d   1      30.476  17.310 -24.341  0.00  0.00     0.002 A 
ATOM     11  C   UNL d   1      29.601  16.169 -24.328  0.00  0.00     0.000 C 
ATOM     12  C   UNL d   1      31.249  17.617 -24.255  0.00  0.00     0.020 A 
ENDBRANCH   4   5
ENDBRANCH   1   4
BRANCH   1  13
ATOM     13  N   UNL d   1      32.888  18.902 -23.299  0.00  0.00    -0.215 N 
ATOM     14  C   UNL d   1      33.112  19.521 -23.807  0.00  0.00     0.093 C 
ATOM     15  C   UNL d   1      33.231  20.268 -23.497  0.00  0.00     0.020 C 
ATOM     16  C   UNL d   1      33.241  20.392 -22.681  0.00  0.00     0.003 C 
ATOM     17  C   UNL d   1      33.129  19.754 -22.173  0.00  0.00     0.020 C 
ATOM     18  C   UNL d   1      33.007  18.993 -22.480  0.00  0.00     0.093 C 
ENDBRANCH   1  13
TORSDOF 3
ENDMDL
MODEL 3
REMARK VINA RESULT:      -2.6      1.697      2.553
REMARK  3 active torsions:
REMARK  status: ('A' for Active; 'I' for Inactive)
REMARK    1  A    between atoms: N_2  and  S_1 
REMARK    2  A    between atoms: N_3  and  S_1 
REMARK    3  A    between atoms: C_4  and  N_2 
ROOT
ATOM      1  S   UNL d   1      32.442  17.510 -24.338  0.00  0.00     0.351 S 
ATOM      2  O   UNL d   1      31.805  17.994 -24.531  0.00  0.00    -0.180 OA
ATOM      3  O   UNL d   1      33.086  17.028 -24.144  0.00  0.00    -0.180 OA
ENDROOT
BRANCH   1   4
ATOM      4  N   UNL d   1      32.997  18.117 -24.346  0.00  0.00    -0.144 NA
BRANCH   4   5
ATOM      5  C   UNL d   1      33.062  18.639 -23.696  0.00  0.00     0.095 A 
ATOM      6  C   UNL d   1      33.113  19.463 -23.822  0.00  0.00     0.018 A 
ATOM      7  C   UNL d   1      33.164  19.980 -23.177  0.00  0.00     0.002 A 
ATOM      8  C   UNL d   1      33.241  19.748 -24.593  0.00  0.00     0.002 C 
ATOM      9  C   UNL d   1      33.171  19.674 -22.402  0.00  0.00     0.000 A 
ATOM     10  C   UNL d   1      33.119  18.850 -22.261  0.00  0.00     0.002 A 
ATOM     11  C   UNL d   1      33.240  20.195 -21.765  0.00  0.00     0.000 C 
ATOM     12  C   UNL d   1      33.062  18.334 -22.916  0.00  0.00     0.020 A 
ENDBRANCH   4   5
ENDBRANCH   1   4
BRANCH   1  13
ATOM     13  N   UNL d   1      31.939  16.858 -24.313  0.00  0.00    -0.215 N 
ATOM     14  C   UNL d   1      32.248  16.097 -24.439  0.00  0.00     0.093 C 
ATOM     15  C   UNL d   1      31.746  15.453 -24.414  0.00  0.00     0.020 C 
ATOM     16  C   UNL d   1      30.928  15.555 -24.376  0.00  0.00     0.003 C 
ATOM     17  C   UNL d   1      30.614  16.316 -24.364  0.00  0.00     0.020 C 
ATOM     18  C   UNL d   1      31.118  16.975 -24.389  0.00  0.00     0.093 C 
ENDBRANCH   1  13
TORSDOF 3
ENDMDL
MODEL 4
REMARK VINA RESULT:      -2.4      6.614      8.270
REMARK  3 active torsions:
REMARK  status: ('A' for Active; 'I' for Inactive)
REMARK    1  A    between atoms: N_2  and  S_1 
REMARK    2  A    between atoms: N_3  and  S_1 
REMARK    3  A    between atoms: C_4  and  N_2 
ROOT
ATOM      1  S   UNL d   1      32.397  23.432 -19.389  0.00  0.00     0.351 S 
ATOM      2  O   UNL d   1      33.173  23.698 -19.451  0.00  0.00    -0.180 OA
ATOM      3  O   UNL d   1      31.616  23.165 -19.332  0.00  0.00    -0.180 OA
ENDROOT
BRANCH   1   4
ATOM      4  N   UNL d   1      32.280  23.364 -20.201  0.00  0.00    -0.144 NA
BRANCH   4   5
ATOM      5  C   UNL d   1      32.498  22.663 -20.601  0.00  0.00     0.095 A 
ATOM      6  C   UNL d   1      32.669  22.681 -21.418  0.00  0.00     0.018 A 
ATOM      7  C   UNL d   1      32.896  21.989 -21.811  0.00  0.00     0.002 A 
ATOM      8  C   UNL d   1      32.485  23.365 -21.855  0.00  0.00     0.002 C 
ATOM      9  C   UNL d   1      32.947  21.272 -21.389  0.00  0.00     0.000 A 
ATOM     10  C   UNL d   1      32.780  21.240 -20.570  0.00  0.00     0.002 A 
ATOM     11  C   UNL d   1      33.157  20.583 -21.792  0.00  0.00     0.000 C 
ATOM     12  C   UNL d   1      32.557  21.943 -20.177  0.00  0.00     0.020 A 
ENDBRANCH   4   5
ENDBRANCH   1   4
BRANCH   1  13
ATOM     13  N   UNL d   1      32.447  23.478 -18.568  0.00  0.00    -0.215 N 
ATOM     14  C   UNL d   1      31.767  23.656 -18.125  0.00  0.00     0.093 C 
ATOM     15  C   UNL d   1      31.822  23.701 -17.311  0.00  0.00     0.020 C 
ATOM     16  C   UNL d   1      32.555  23.682 -16.933  0.00  0.00     0.003 C 
ATOM     17  C   UNL d   1      33.241  23.615 -17.384  0.00  0.00     0.020 C 
ATOM     18  C   UNL d   1      33.194  23.569 -18.211  0.00  0.00     0.093 C 
ENDBRANCH   1  13
TORSDOF 3
ENDMDL
MODEL 5
REMARK VINA RESULT:      -0.9      1.477      3.804
REMARK  3 active torsions:
REMARK  status: ('A' for Active; 'I' for Inactive)
REMARK    1  A    between atoms: N_2  and  S_1 
REMARK    2  A    between atoms: N_3  and  S_1 
REMARK    3  A    between atoms: C_4  and  N_2 
ROOT
ATOM      1  S   UNL d   1      32.161  17.653 -23.977  0.00  0.00     0.351 S 
ATOM      2  O   UNL d   1      31.983  17.901 -24.742  0.00  0.00    -0.180 OA
ATOM      3  O   UNL d   1      32.338  17.398 -23.210  0.00  0.00    -0.180 OA
ENDROOT
BRANCH   1   4
ATOM      4  N   UNL d   1      31.852  16.896 -24.075  0.00  0.00    -0.144 NA
BRANCH   4   5
ATOM      5  C   UNL d   1      31.025  16.772 -24.053  0.00  0.00     0.095 A 
ATOM      6  C   UNL d   1      30.713  16.083 -23.699  0.00  0.00     0.018 A 
ATOM      7  C   UNL d   1      29.894  15.967 -23.666  0.00  0.00     0.002 A 
ATOM      8  C   UNL d   1      31.228  15.462 -23.497  0.00  0.00     0.002 C 
ATOM      9  C   UNL d   1      29.383  16.537 -23.995  0.00  0.00     0.000 A 
ATOM     10  C   UNL d   1      29.682  17.233 -24.352  0.00  0.00     0.002 A 
ATOM     11  C   UNL d   1      28.568  16.405 -23.975  0.00  0.00     0.000 C 
ATOM     12  C   UNL d   1      30.510  17.348 -24.376  0.00  0.00     0.020 A 
ENDBRANCH   4   5
ENDBRANCH   1   4
BRANCH   1  13
ATOM     13  N   UNL d   1      32.487  18.391 -23.813  0.00  0.00    -0.215 N 
ATOM     14  C   UNL d   1      32.865  18.815 -24.420  0.00  0.00     0.093 C 
ATOM     15  C   UNL d   1      33.188  19.547 -24.254  0.00  0.00     0.020 C 
ATOM     16  C   UNL d   1      33.241  19.821 -23.477  0.00  0.00     0.003 C 
ATOM     17  C   UNL d   1      32.965  19.348 -22.862  0.00  0.00     0.020 C 
ATOM     18  C   UNL d   1      32.636  18.604 -23.022  0.00  0.00     0.093 C 
ENDBRANCH   1  13
TORSDOF 3
ENDMDL
