MODEL 1
REMARK VINA RESULT:     101.1      0.000      0.000
REMARK  5 active torsions:
REMARK  status: ('A' for Active; 'I' for Inactive)
REMARK    1  A    between atoms: C_6  and  S_1 
REMARK    2  A    between atoms: N_7  and  S_1 
REMARK    3  A    between atoms: C_15  and  N_7 
REMARK    4  A    between atoms: O_21  and  C_16 
REMARK    5  A    between atoms: C_22  and  O_21 
ROOT
ATOM      1  S   UNL d   1      59.512  38.565  54.241  0.00  0.00     0.327 S 
ATOM      2  O   UNL d   1      59.242  37.875  53.886  0.00  0.00    -0.186 OA
ATOM      3  O   UNL d   1      60.254  38.862  54.050  0.00  0.00    -0.186 OA
ENDROOT
BRANCH   1   4
ATOM      4  C   UNL d   1      59.042  38.959  54.786  0.00  0.00     0.118 A 
ATOM      5  C   UNL d   1      58.232  39.004  54.669  0.00  0.00     0.035 A 
ATOM      6  C   UNL d   1      57.754  39.401  55.217  0.00  0.00     0.105 A 
ATOM      7  N   UNL d   1      56.941  39.536  55.250  0.00  0.00    -0.189 NA
ATOM      8  C   UNL d   1      58.098  39.752  55.887  0.00  0.00     0.104 A 
ATOM      9  C   UNL d   1      56.778  39.973  55.940  0.00  0.00     0.369 A 
ATOM     10  O   UNL d   1      56.036  40.227  56.188  0.00  0.00    -0.242 OA
ATOM     11  N   UNL d   1      57.495  40.103  56.328  0.00  0.00    -0.189 NA
ATOM     12  C   UNL d   1      58.917  39.704  56.001  0.00  0.00     0.022 A 
ATOM     13  C   UNL d   1      59.384  39.307  55.449  0.00  0.00     0.016 A 
ENDBRANCH   1   4
BRANCH   1  14
ATOM     14  N   UNL d   1      59.989  38.178  53.697  0.00  0.00    -0.317 NA
BRANCH  14  15
ATOM     15  C   UNL d   1      60.477  37.782  53.141  0.00  0.00     0.146 A 
ATOM     16  C   UNL d   1      61.185  38.139  52.894  0.00  0.00     0.035 A 
ATOM     17  C   UNL d   1      61.665  37.745  52.345  0.00  0.00     0.027 A 
ATOM     18  C   UNL d   1      61.437  37.007  52.051  0.00  0.00     0.100 A 
ATOM     19  C   UNL d   1      60.734  36.663  52.303  0.00  0.00     0.027 A 
ATOM     20  C   UNL d   1      60.255  37.053  52.849  0.00  0.00     0.035 A 
BRANCH  18  21
ATOM     21  O   UNL d   1      61.912  36.612  51.504  0.00  0.00    -0.305 OA
BRANCH  21  22
ATOM     22  C   UNL d   1      62.720  36.603  51.592  0.00  0.00     0.123 C 
ATOM     23  C   UNL d   1      63.158  35.962  51.317  0.00  0.00     0.029 C 
ENDBRANCH  21  22
ENDBRANCH  18  21
ENDBRANCH  14  15
ENDBRANCH   1  14
TORSDOF 5
ENDMDL
