MODEL 1
REMARK VINA RESULT:      -4.4      0.000      0.000
REMARK  1 active torsions:
REMARK  status: ('A' for Active; 'I' for Inactive)
REMARK    1  A    between atoms: O_8  and  C_4 
ROOT
ATOM      1  C   UNL d   1      56.309   0.059  32.297  0.00  0.00     0.065 A 
ATOM      2  C   UNL d   1      56.672  -0.614  31.981  0.00  0.00     0.186 A 
ATOM      3  N   UNL d   1      56.479  -1.361  32.273  0.00  0.00    -0.224 NA
ATOM      4  C   UNL d   1      55.754  -0.020  32.903  0.00  0.00     0.099 A 
ATOM      5  N   UNL d   1      57.224  -0.539  31.379  0.00  0.00    -0.127 N 
ATOM      6  C   UNL d   1      55.927  -1.437  32.876  0.00  0.00     0.103 A 
ATOM      7  C   UNL d   1      55.563  -0.764  33.192  0.00  0.00     0.045 A 
ENDROOT
BRANCH   4   8
ATOM      8  O   UNL d   1      55.395   0.646  33.215  0.00  0.00    -0.328 OA
ATOM      9  C   UNL d   1      55.135   0.647  33.995  0.00  0.00     0.181 C 
ENDBRANCH   4   8
TORSDOF 1
ENDMDL
MODEL 2
REMARK VINA RESULT:      -4.1      1.357      2.066
REMARK  1 active torsions:
REMARK  status: ('A' for Active; 'I' for Inactive)
REMARK    1  A    between atoms: O_8  and  C_4 
ROOT
ATOM      1  C   UNL d   1      55.999   0.356  32.782  0.00  0.00     0.065 A 
ATOM      2  C   UNL d   1      55.460  -0.072  33.241  0.00  0.00     0.186 A 
ATOM      3  N   UNL d   1      55.462  -0.896  33.217  0.00  0.00    -0.224 NA
ATOM      4  C   UNL d   1      56.537  -0.043  32.301  0.00  0.00     0.099 A 
ATOM      5  N   UNL d   1      54.922   0.323  33.720  0.00  0.00    -0.127 N 
ATOM      6  C   UNL d   1      55.999  -1.292  32.737  0.00  0.00     0.103 A 
ATOM      7  C   UNL d   1      56.538  -0.864  32.278  0.00  0.00     0.045 A 
ENDROOT
BRANCH   4   8
ATOM      8  O   UNL d   1      57.071   0.381  31.847  0.00  0.00    -0.328 OA
ATOM      9  C   UNL d   1      57.377   0.053  31.158  0.00  0.00     0.181 C 
ENDBRANCH   4   8
TORSDOF 1
ENDMDL
MODEL 3
REMARK VINA RESULT:      -3.6      1.411      1.834
REMARK  1 active torsions:
REMARK  status: ('A' for Active; 'I' for Inactive)
REMARK    1  A    between atoms: O_8  and  C_4 
ROOT
ATOM      1  C   UNL d   1      57.034  -0.724  31.454  0.00  0.00     0.065 A 
ATOM      2  C   UNL d   1      57.370  -0.006  31.217  0.00  0.00     0.186 A 
ATOM      3  N   UNL d   1      57.221   0.681  31.648  0.00  0.00    -0.224 NA
ATOM      4  C   UNL d   1      56.551  -0.751  32.122  0.00  0.00     0.099 A 
ATOM      5  N   UNL d   1      57.852   0.023  30.553  0.00  0.00    -0.127 N 
ATOM      6  C   UNL d   1      56.738   0.652  32.313  0.00  0.00     0.103 A 
ATOM      7  C   UNL d   1      56.402  -0.066  32.550  0.00  0.00     0.045 A 
ENDROOT
BRANCH   4   8
ATOM      8  O   UNL d   1      56.218  -1.461  32.356  0.00  0.00    -0.328 OA
ATOM      9  C   UNL d   1      55.763  -1.497  33.040  0.00  0.00     0.181 C 
ENDBRANCH   4   8
TORSDOF 1
ENDMDL
MODEL 4
REMARK VINA RESULT:      -2.9      8.551      9.276
REMARK  1 active torsions:
REMARK  status: ('A' for Active; 'I' for Inactive)
REMARK    1  A    between atoms: O_8  and  C_4 
ROOT
ATOM      1  C   UNL d   1      59.472  -7.486  36.209  0.00  0.00     0.065 A 
ATOM      2  C   UNL d   1      60.066  -6.916  36.124  0.00  0.00     0.186 A 
ATOM      3  N   UNL d   1      60.812  -7.137  35.849  0.00  0.00    -0.224 NA
ATOM      4  C   UNL d   1      59.627  -8.273  36.017  0.00  0.00     0.099 A 
ATOM      5  N   UNL d   1      59.915  -6.132  36.314  0.00  0.00    -0.127 N 
ATOM      6  C   UNL d   1      60.963  -7.922  35.659  0.00  0.00     0.103 A 
ATOM      7  C   UNL d   1      60.370  -8.491  35.743  0.00  0.00     0.045 A 
ENDROOT
BRANCH   4   8
ATOM      8  O   UNL d   1      59.039  -8.836  36.101  0.00  0.00    -0.328 OA
ATOM      9  C   UNL d   1      59.237  -9.630  36.181  0.00  0.00     0.181 C 
ENDBRANCH   4   8
TORSDOF 1
ENDMDL
MODEL 5
REMARK VINA RESULT:      -2.8      8.573      9.255
REMARK  1 active torsions:
REMARK  status: ('A' for Active; 'I' for Inactive)
REMARK    1  A    between atoms: O_8  and  C_4 
ROOT
ATOM      1  C   UNL d   1      59.642  -8.367  34.893  0.00  0.00     0.065 A 
ATOM      2  C   UNL d   1      59.377  -9.150  34.910  0.00  0.00     0.186 A 
ATOM      3  N   UNL d   1      59.188  -9.506  35.630  0.00  0.00    -0.224 NA
ATOM      4  C   UNL d   1      59.717  -7.944  35.597  0.00  0.00     0.099 A 
ATOM      5  N   UNL d   1      59.302  -9.575  34.211  0.00  0.00    -0.127 N 
ATOM      6  C   UNL d   1      59.263  -9.082  36.330  0.00  0.00     0.103 A 
ATOM      7  C   UNL d   1      59.528  -8.299  36.313  0.00  0.00     0.045 A 
ENDROOT
BRANCH   4   8
ATOM      8  O   UNL d   1      59.979  -7.168  35.581  0.00  0.00    -0.328 OA
ATOM      9  C   UNL d   1      59.634  -6.606  36.070  0.00  0.00     0.181 C 
ENDBRANCH   4   8
TORSDOF 1
ENDMDL
MODEL 6
REMARK VINA RESULT:      -2.2      9.744      9.899
REMARK  1 active torsions:
REMARK  status: ('A' for Active; 'I' for Inactive)
REMARK    1  A    between atoms: O_8  and  C_4 
ROOT
ATOM      1  C   UNL d   1      59.698  -9.091  34.637  0.00  0.00     0.065 A 
ATOM      2  C   UNL d   1      60.411  -8.725  34.839  0.00  0.00     0.186 A 
ATOM      3  N   UNL d   1      61.029  -8.696  34.293  0.00  0.00    -0.224 NA
ATOM      4  C   UNL d   1      59.605  -9.427  33.890  0.00  0.00     0.099 A 
ATOM      5  N   UNL d   1      60.506  -8.390  35.583  0.00  0.00    -0.127 N 
ATOM      6  C   UNL d   1      60.934  -9.032  33.548  0.00  0.00     0.103 A 
ATOM      7  C   UNL d   1      60.220  -9.398  33.346  0.00  0.00     0.045 A 
ENDROOT
BRANCH   4   8
ATOM      8  O   UNL d   1      58.899  -9.790  33.690  0.00  0.00    -0.328 OA
ATOM      9  C   UNL d   1      58.571  -9.672  32.945  0.00  0.00     0.181 C 
ENDBRANCH   4   8
TORSDOF 1
ENDMDL
MODEL 7
REMARK VINA RESULT:      -2.1      9.597      9.842
REMARK  1 active torsions:
REMARK  status: ('A' for Active; 'I' for Inactive)
REMARK    1  A    between atoms: O_8  and  C_4 
ROOT
ATOM      1  C   UNL d   1      59.051  -9.364  33.625  0.00  0.00     0.065 A 
ATOM      2  C   UNL d   1      58.999  -9.657  32.854  0.00  0.00     0.186 A 
ATOM      3  N   UNL d   1      59.686  -9.816  32.426  0.00  0.00    -0.224 NA
ATOM      4  C   UNL d   1      59.791  -9.232  33.965  0.00  0.00     0.099 A 
ATOM      5  N   UNL d   1      58.264  -9.790  32.513  0.00  0.00    -0.127 N 
ATOM      6  C   UNL d   1      60.422  -9.684  32.766  0.00  0.00     0.103 A 
ATOM      7  C   UNL d   1      60.475  -9.391  33.538  0.00  0.00     0.045 A 
ENDROOT
BRANCH   4   8
ATOM      8  O   UNL d   1      59.843  -8.942  34.729  0.00  0.00    -0.328 OA
ATOM      9  C   UNL d   1      60.484  -8.477  34.950  0.00  0.00     0.181 C 
ENDBRANCH   4   8
TORSDOF 1
ENDMDL
MODEL 8
REMARK VINA RESULT:      -2.0      2.847      3.713
REMARK  1 active torsions:
REMARK  status: ('A' for Active; 'I' for Inactive)
REMARK    1  A    between atoms: O_8  and  C_4 
ROOT
ATOM      1  C   UNL d   1      58.299  -0.535  29.807  0.00  0.00     0.065 A 
ATOM      2  C   UNL d   1      59.058  -0.467  29.487  0.00  0.00     0.186 A 
ATOM      3  N   UNL d   1      59.557   0.143  29.734  0.00  0.00    -0.224 NA
ATOM      4  C   UNL d   1      58.042   0.007  30.373  0.00  0.00     0.099 A 
ATOM      5  N   UNL d   1      59.317  -1.004  28.923  0.00  0.00    -0.127 N 
ATOM      6  C   UNL d   1      59.298   0.681  30.298  0.00  0.00     0.103 A 
ATOM      7  C   UNL d   1      58.539   0.613  30.619  0.00  0.00     0.045 A 
ENDROOT
BRANCH   4   8
ATOM      8  O   UNL d   1      57.290  -0.060  30.691  0.00  0.00    -0.328 OA
ATOM      9  C   UNL d   1      57.181  -0.022  31.504  0.00  0.00     0.181 C 
ENDBRANCH   4   8
TORSDOF 1
ENDMDL
MODEL 9
REMARK VINA RESULT:      -1.9      4.175      4.921
REMARK  1 active torsions:
REMARK  status: ('A' for Active; 'I' for Inactive)
REMARK    1  A    between atoms: O_8  and  C_4 
ROOT
ATOM      1  C   UNL d   1      58.636  -1.976  29.259  0.00  0.00     0.065 A 
ATOM      2  C   UNL d   1      59.246  -2.490  29.041  0.00  0.00     0.186 A 
ATOM      3  N   UNL d   1      59.998  -2.191  28.878  0.00  0.00    -0.224 NA
ATOM      4  C   UNL d   1      58.781  -1.166  29.315  0.00  0.00     0.099 A 
ATOM      5  N   UNL d   1      59.105  -3.296  28.985  0.00  0.00    -0.127 N 
ATOM      6  C   UNL d   1      60.140  -1.384  28.934  0.00  0.00     0.103 A 
ATOM      7  C   UNL d   1      59.530  -0.870  29.153  0.00  0.00     0.045 A 
ENDROOT
BRANCH   4   8
ATOM      8  O   UNL d   1      58.178  -0.657  29.532  0.00  0.00    -0.328 OA
ATOM      9  C   UNL d   1      58.349   0.040  29.932  0.00  0.00     0.181 C 
ENDBRANCH   4   8
TORSDOF 1
ENDMDL
