MODEL 1
REMARK VINA RESULT:      54.2      0.000      0.000
REMARK  3 active torsions:
REMARK  status: ('A' for Active; 'I' for Inactive)
REMARK    1  A    between atoms: S_9  and  C_3 
REMARK    2  A    between atoms: C_12  and  S_9 
REMARK    3  A    between atoms: C_14  and  C_12 
ROOT
ATOM      1  C   UNL d   1      57.940  49.696  51.406  0.00  0.00     0.155 A 
ATOM      2  C   UNL d   1      58.202  49.697  50.619  0.00  0.00     0.107 A 
ATOM      3  C   UNL d   1      59.556  49.701  51.074  0.00  0.00     0.182 A 
ATOM      4  N   UNL d   1      59.300  49.700  51.853  0.00  0.00    -0.250 N 
ATOM      5  N   UNL d   1      59.016  49.700  50.452  0.00  0.00    -0.220 NA
ATOM      6  C   UNL d   1      58.486  49.698  52.020  0.00  0.00     0.285 A 
ATOM      7  N   UNL d   1      57.115  49.694  51.403  0.00  0.00    -0.239 NA
ATOM      8  C   UNL d   1      57.542  49.695  50.126  0.00  0.00     0.037 A 
ATOM      9  C   UNL d   1      56.862  49.693  50.612  0.00  0.00     0.083 A 
ATOM     10  O   UNL d   1      58.232  49.697  52.813  0.00  0.00    -0.265 OA
ATOM     11  C   UNL d   1      59.853  49.702  52.474  0.00  0.00     0.104 C 
ATOM     12  C   UNL d   1      57.459  49.695  49.306  0.00  0.00     0.003 A 
ATOM     13  C   UNL d   1      56.107  49.691  50.270  0.00  0.00     0.019 A 
ATOM     14  C   UNL d   1      56.704  49.693  48.965  0.00  0.00     0.000 A 
ATOM     15  C   UNL d   1      56.033  49.691  49.446  0.00  0.00     0.002 A 
ENDROOT
BRANCH   3  16
ATOM     16  S   UNL d   1      60.367  49.704  50.911  0.00  0.00    -0.050 SA
BRANCH  16  17
ATOM     17  C   UNL d   1      60.663  49.289  50.260  0.00  0.00     0.032 C 
ATOM     18  C   UNL d   1      60.590  49.602  49.501  0.00  0.00     0.007 C 
BRANCH  17  19
ATOM     19  C   UNL d   1      61.030  48.561  50.387  0.00  0.00     0.006 A 
ATOM     20  C   UNL d   1      61.568  48.277  49.836  0.00  0.00     0.001 A 
ATOM     21  C   UNL d   1      61.946  47.544  49.950  0.00  0.00     0.000 A 
ATOM     22  C   UNL d   1      61.777  47.104  50.622  0.00  0.00     0.000 A 
ATOM     23  C   UNL d   1      61.240  47.380  51.179  0.00  0.00     0.000 A 
ATOM     24  C   UNL d   1      60.866  48.113  51.059  0.00  0.00     0.001 A 
ENDBRANCH  17  19
ENDBRANCH  16  17
ENDBRANCH   3  16
TORSDOF 3
ENDMDL
