MODEL 1
REMARK VINA RESULT:      -3.0      0.000      0.000
REMARK  1 active torsions:
REMARK  status: ('A' for Active; 'I' for Inactive)
REMARK    1  A    between atoms: C_4  and  C_1 
ROOT
ATOM      1  C   UNL d   1      30.998  16.721 -23.975  0.00  0.00     0.112 A 
ATOM      2  N   UNL d   1      30.828  16.126 -23.419  0.00  0.00    -0.238 NA
ATOM      3  S   UNL d   1      30.283  16.951 -24.337  0.00  0.00    -0.066 SA
ATOM      4  C   UNL d   1      30.010  15.989 -23.437  0.00  0.00     0.088 A 
ATOM      5  C   UNL d   1      29.674  16.497 -24.002  0.00  0.00     0.049 A 
ATOM      6  C   UNL d   1      29.530  15.469 -23.012  0.00  0.00     0.020 A 
ATOM      7  C   UNL d   1      28.860  16.483 -24.140  0.00  0.00     0.008 A 
ATOM      8  C   UNL d   1      28.381  15.962 -23.715  0.00  0.00     0.001 A 
ATOM      9  C   UNL d   1      28.717  15.454 -23.149  0.00  0.00     0.002 A 
ENDROOT
BRANCH   1  10
ATOM     10  C   UNL d   1      31.745  17.033 -24.144  0.00  0.00     0.043 A 
ATOM     11  C   UNL d   1      32.234  16.653 -24.695  0.00  0.00     0.105 A 
ATOM     12  N   UNL d   1      31.973  15.967 -25.072  0.00  0.00    -0.148 N 
ATOM     13  C   UNL d   1      32.980  16.965 -24.864  0.00  0.00     0.021 A 
ATOM     14  C   UNL d   1      33.240  17.652 -24.487  0.00  0.00     0.002 A 
ATOM     15  C   UNL d   1      32.741  18.024 -23.936  0.00  0.00     0.000 A 
ATOM     16  C   UNL d   1      32.005  17.720 -23.767  0.00  0.00     0.004 A 
ENDBRANCH   1  10
TORSDOF 1
ENDMDL
MODEL 2
REMARK VINA RESULT:      -2.8      1.109      3.377
REMARK  1 active torsions:
REMARK  status: ('A' for Active; 'I' for Inactive)
REMARK    1  A    between atoms: C_4  and  C_1 
ROOT
ATOM      1  C   UNL d   1      30.941  17.160 -24.370  0.00  0.00     0.112 A 
ATOM      2  N   UNL d   1      31.433  17.182 -23.701  0.00  0.00    -0.238 NA
ATOM      3  S   UNL d   1      31.257  17.677 -24.943  0.00  0.00    -0.066 SA
ATOM      4  C   UNL d   1      32.053  17.711 -23.859  0.00  0.00     0.088 A 
ATOM      5  C   UNL d   1      31.944  18.016 -24.624  0.00  0.00     0.049 A 
ATOM      6  C   UNL d   1      32.698  17.953 -23.405  0.00  0.00     0.020 A 
ATOM      7  C   UNL d   1      32.482  18.561 -24.932  0.00  0.00     0.008 A 
ATOM      8  C   UNL d   1      33.127  18.802 -24.478  0.00  0.00     0.001 A 
ATOM      9  C   UNL d   1      33.236  18.497 -23.713  0.00  0.00     0.002 A 
ENDROOT
BRANCH   1  10
ATOM     10  C   UNL d   1      30.255  16.706 -24.458  0.00  0.00     0.043 A 
ATOM     11  C   UNL d   1      30.312  15.924 -24.726  0.00  0.00     0.105 A 
ATOM     12  N   UNL d   1      31.051  15.602 -24.904  0.00  0.00    -0.148 N 
ATOM     13  C   UNL d   1      29.627  15.471 -24.814  0.00  0.00     0.021 A 
ATOM     14  C   UNL d   1      28.888  15.792 -24.637  0.00  0.00     0.002 A 
ATOM     15  C   UNL d   1      28.843  16.578 -24.368  0.00  0.00     0.000 A 
ATOM     16  C   UNL d   1      29.516  17.028 -24.281  0.00  0.00     0.004 A 
ENDBRANCH   1  10
TORSDOF 1
ENDMDL
MODEL 3
REMARK VINA RESULT:      -2.4      1.956      3.697
REMARK  1 active torsions:
REMARK  status: ('A' for Active; 'I' for Inactive)
REMARK    1  A    between atoms: C_4  and  C_1 
ROOT
ATOM      1  C   UNL d   1      32.723  17.703 -23.634  0.00  0.00     0.112 A 
ATOM      2  N   UNL d   1      32.809  17.895 -22.829  0.00  0.00    -0.238 NA
ATOM      3  S   UNL d   1      32.821  18.400 -24.080  0.00  0.00    -0.066 SA
ATOM      4  C   UNL d   1      32.962  18.709 -22.778  0.00  0.00     0.088 A 
ATOM      5  C   UNL d   1      32.969  19.021 -23.548  0.00  0.00     0.049 A 
ATOM      6  C   UNL d   1      33.094  19.204 -22.131  0.00  0.00     0.020 A 
ATOM      7  C   UNL d   1      33.109  19.825 -23.668  0.00  0.00     0.008 A 
ATOM      8  C   UNL d   1      33.241  20.320 -23.020  0.00  0.00     0.001 A 
ATOM      9  C   UNL d   1      33.233  20.008 -22.250  0.00  0.00     0.002 A 
ENDROOT
BRANCH   1  10
ATOM     10  C   UNL d   1      32.565  16.952 -23.943  0.00  0.00     0.043 A 
ATOM     11  C   UNL d   1      31.781  16.721 -24.081  0.00  0.00     0.105 A 
ATOM     12  N   UNL d   1      31.163  17.240 -23.910  0.00  0.00    -0.148 N 
ATOM     13  C   UNL d   1      31.624  15.972 -24.390  0.00  0.00     0.021 A 
ATOM     14  C   UNL d   1      32.243  15.453 -24.562  0.00  0.00     0.002 A 
ATOM     15  C   UNL d   1      33.025  15.696 -24.419  0.00  0.00     0.000 A 
ATOM     16  C   UNL d   1      33.184  16.434 -24.114  0.00  0.00     0.004 A 
ENDBRANCH   1  10
TORSDOF 1
ENDMDL
MODEL 4
REMARK VINA RESULT:      -2.1      5.705      7.063
REMARK  1 active torsions:
REMARK  status: ('A' for Active; 'I' for Inactive)
REMARK    1  A    between atoms: C_4  and  C_1 
ROOT
ATOM      1  C   UNL d   1      32.923  21.935 -20.550  0.00  0.00     0.112 A 
ATOM      2  N   UNL d   1      33.109  22.128 -21.337  0.00  0.00    -0.238 NA
ATOM      3  S   UNL d   1      32.799  21.112 -20.506  0.00  0.00    -0.066 SA
ATOM      4  C   UNL d   1      33.100  21.426 -21.779  0.00  0.00     0.088 A 
ATOM      5  C   UNL d   1      32.910  20.799 -21.267  0.00  0.00     0.049 A 
ATOM      6  C   UNL d   1      33.241  21.278 -22.578  0.00  0.00     0.020 A 
ATOM      7  C   UNL d   1      32.861  20.028 -21.557  0.00  0.00     0.008 A 
ATOM      8  C   UNL d   1      33.002  19.881 -22.357  0.00  0.00     0.001 A 
ATOM      9  C   UNL d   1      33.193  20.507 -22.869  0.00  0.00     0.002 A 
ENDROOT
BRANCH   1  10
ATOM     10  C   UNL d   1      32.868  22.464 -19.916  0.00  0.00     0.043 A 
ATOM     11  C   UNL d   1      32.451  23.174 -20.009  0.00  0.00     0.105 A 
ATOM     12  N   UNL d   1      32.092  23.349 -20.731  0.00  0.00    -0.148 N 
ATOM     13  C   UNL d   1      32.396  23.702 -19.376  0.00  0.00     0.021 A 
ATOM     14  C   UNL d   1      32.755  23.527 -18.654  0.00  0.00     0.002 A 
ATOM     15  C   UNL d   1      33.172  22.812 -18.573  0.00  0.00     0.000 A 
ATOM     16  C   UNL d   1      33.228  22.289 -19.194  0.00  0.00     0.004 A 
ENDBRANCH   1  10
TORSDOF 1
ENDMDL
