MODEL 1
REMARK VINA RESULT:      -4.9      0.000      0.000
REMARK  0 active torsions:
REMARK  status: ('A' for Active; 'I' for Inactive)
ROOT
ATOM      1  N   UNL d   1     -41.195-122.436 -53.347  0.00  0.00    -0.152 NA
ATOM      2  C   UNL d   1     -41.167-122.077 -52.610  0.00  0.00     0.284 A 
ATOM      3  C   UNL d   1     -41.240-123.268 -53.401  0.00  0.00     0.371 A 
ATOM      4  C   UNL d   1     -41.183-122.535 -51.922  0.00  0.00     0.076 A 
ATOM      5  N   UNL d   1     -41.255-123.727 -52.713  0.00  0.00    -0.191 NA
ATOM      6  C   UNL d   1     -41.227-123.358 -51.971  0.00  0.00     0.091 A 
ATOM      7  O   UNL d   1     -41.124-121.254 -52.556  0.00  0.00    -0.265 OA
ATOM      8  O   UNL d   1     -41.268-123.632 -54.142  0.00  0.00    -0.242 OA
ATOM      9  C   UNL d   1     -41.154-122.166 -51.185  0.00  0.00     0.006 A 
ATOM     10  C   UNL d   1     -41.242-123.812 -51.282  0.00  0.00     0.019 A 
ATOM     11  C   UNL d   1     -41.170-122.621 -50.497  0.00  0.00     0.000 A 
ATOM     12  C   UNL d   1     -41.214-123.443 -50.545  0.00  0.00     0.002 A 
ENDROOT
TORSDOF 0
ENDMDL
MODEL 2
REMARK VINA RESULT:      -4.8      1.586      3.268
REMARK  0 active torsions:
REMARK  status: ('A' for Active; 'I' for Inactive)
ROOT
ATOM      1  N   UNL d   1     -41.246-122.743 -52.891  0.00  0.00    -0.152 NA
ATOM      2  C   UNL d   1     -41.380-123.049 -53.640  0.00  0.00     0.284 A 
ATOM      3  C   UNL d   1     -41.504-121.971 -52.706  0.00  0.00     0.371 A 
ATOM      4  C   UNL d   1     -41.771-122.596 -54.211  0.00  0.00     0.076 A 
ATOM      5  N   UNL d   1     -41.895-121.519 -53.277  0.00  0.00    -0.191 NA
ATOM      6  C   UNL d   1     -42.029-121.833 -54.032  0.00  0.00     0.091 A 
ATOM      7  O   UNL d   1     -41.124-123.813 -53.824  0.00  0.00    -0.265 OA
ATOM      8  O   UNL d   1     -41.370-121.661 -51.952  0.00  0.00    -0.242 OA
ATOM      9  C   UNL d   1     -41.903-122.911 -54.962  0.00  0.00     0.006 A 
ATOM     10  C   UNL d   1     -42.418-121.384 -54.604  0.00  0.00     0.019 A 
ATOM     11  C   UNL d   1     -42.292-122.462 -55.534  0.00  0.00     0.000 A 
ATOM     12  C   UNL d   1     -42.550-121.699 -55.355  0.00  0.00     0.002 A 
ENDROOT
TORSDOF 0
ENDMDL
MODEL 3
REMARK VINA RESULT:      -4.7      1.209      2.315
REMARK  0 active torsions:
REMARK  status: ('A' for Active; 'I' for Inactive)
ROOT
ATOM      1  N   UNL d   1     -41.162-122.572 -51.671  0.00  0.00    -0.152 NA
ATOM      2  C   UNL d   1     -41.201-122.170 -52.385  0.00  0.00     0.284 A 
ATOM      3  C   UNL d   1     -41.242-123.403 -51.658  0.00  0.00     0.371 A 
ATOM      4  C   UNL d   1     -41.319-122.585 -53.091  0.00  0.00     0.076 A 
ATOM      5  N   UNL d   1     -41.359-123.817 -52.364  0.00  0.00    -0.191 NA
ATOM      6  C   UNL d   1     -41.398-123.406 -53.082  0.00  0.00     0.091 A 
ATOM      7  O   UNL d   1     -41.123-121.348 -52.398  0.00  0.00    -0.265 OA
ATOM      8  O   UNL d   1     -41.202-123.809 -50.940  0.00  0.00    -0.242 OA
ATOM      9  C   UNL d   1     -41.358-122.173 -53.804  0.00  0.00     0.006 A 
ATOM     10  C   UNL d   1     -41.516-123.817 -53.788  0.00  0.00     0.019 A 
ATOM     11  C   UNL d   1     -41.475-122.584 -54.510  0.00  0.00     0.000 A 
ATOM     12  C   UNL d   1     -41.554-123.405 -54.502  0.00  0.00     0.002 A 
ENDROOT
TORSDOF 0
ENDMDL
MODEL 4
REMARK VINA RESULT:      -3.0      2.696      3.414
REMARK  0 active torsions:
REMARK  status: ('A' for Active; 'I' for Inactive)
ROOT
ATOM      1  N   UNL d   1     -42.997-122.707 -48.947  0.00  0.00    -0.152 NA
ATOM      2  C   UNL d   1     -42.893-122.516 -49.738  0.00  0.00     0.284 A 
ATOM      3  C   UNL d   1     -42.502-123.277 -48.590  0.00  0.00     0.371 A 
ATOM      4  C   UNL d   1     -42.301-122.886 -50.182  0.00  0.00     0.076 A 
ATOM      5  N   UNL d   1     -41.911-123.647 -49.033  0.00  0.00    -0.191 NA
ATOM      6  C   UNL d   1     -41.810-123.450 -49.833  0.00  0.00     0.091 A 
ATOM      7  O   UNL d   1     -43.381-121.952 -50.092  0.00  0.00    -0.265 OA
ATOM      8  O   UNL d   1     -42.606-123.471 -47.794  0.00  0.00    -0.242 OA
ATOM      9  C   UNL d   1     -42.203-122.689 -50.976  0.00  0.00     0.006 A 
ATOM     10  C   UNL d   1     -41.221-123.817 -50.278  0.00  0.00     0.019 A 
ATOM     11  C   UNL d   1     -41.613-123.056 -51.422  0.00  0.00     0.000 A 
ATOM     12  C   UNL d   1     -41.123-123.620 -51.073  0.00  0.00     0.002 A 
ENDROOT
TORSDOF 0
ENDMDL
MODEL 5
REMARK VINA RESULT:      -2.5      1.831      3.148
REMARK  0 active torsions:
REMARK  status: ('A' for Active; 'I' for Inactive)
ROOT
ATOM      1  N   UNL d   1     -42.071-121.386 -53.377  0.00  0.00    -0.152 NA
ATOM      2  C   UNL d   1     -42.215-121.449 -54.181  0.00  0.00     0.284 A 
ATOM      3  C   UNL d   1     -41.691-122.011 -52.973  0.00  0.00     0.371 A 
ATOM      4  C   UNL d   1     -41.986-122.128 -54.594  0.00  0.00     0.076 A 
ATOM      5  N   UNL d   1     -41.462-122.690 -53.386  0.00  0.00    -0.191 NA
ATOM      6  C   UNL d   1     -41.611-122.748 -54.199  0.00  0.00     0.091 A 
ATOM      7  O   UNL d   1     -42.591-120.831 -54.580  0.00  0.00    -0.265 OA
ATOM      8  O   UNL d   1     -41.545-121.949 -52.163  0.00  0.00    -0.242 OA
ATOM      9  C   UNL d   1     -42.135-122.183 -55.403  0.00  0.00     0.006 A 
ATOM     10  C   UNL d   1     -41.384-123.424 -54.614  0.00  0.00     0.019 A 
ATOM     11  C   UNL d   1     -41.908-122.859 -55.818  0.00  0.00     0.000 A 
ATOM     12  C   UNL d   1     -41.533-123.479 -55.423  0.00  0.00     0.002 A 
ENDROOT
TORSDOF 0
ENDMDL
MODEL 6
REMARK VINA RESULT:      -2.4      1.675      2.434
REMARK  0 active torsions:
REMARK  status: ('A' for Active; 'I' for Inactive)
ROOT
ATOM      1  N   UNL d   1     -41.859-122.705 -55.164  0.00  0.00    -0.152 NA
ATOM      2  C   UNL d   1     -41.493-123.080 -54.533  0.00  0.00     0.284 A 
ATOM      3  C   UNL d   1     -42.233-121.967 -55.047  0.00  0.00     0.371 A 
ATOM      4  C   UNL d   1     -41.494-122.732 -53.784  0.00  0.00     0.076 A 
ATOM      5  N   UNL d   1     -42.234-121.619 -54.298  0.00  0.00    -0.191 NA
ATOM      6  C   UNL d   1     -41.862-122.003 -53.664  0.00  0.00     0.091 A 
ATOM      7  O   UNL d   1     -41.123-123.809 -54.649  0.00  0.00    -0.265 OA
ATOM      8  O   UNL d   1     -42.602-121.587 -55.681  0.00  0.00    -0.242 OA
ATOM      9  C   UNL d   1     -41.124-123.116 -53.155  0.00  0.00     0.006 A 
ATOM     10  C   UNL d   1     -41.861-121.658 -52.914  0.00  0.00     0.019 A 
ATOM     11  C   UNL d   1     -41.122-122.771 -52.405  0.00  0.00     0.000 A 
ATOM     12  C   UNL d   1     -41.491-122.042 -52.285  0.00  0.00     0.002 A 
ENDROOT
TORSDOF 0
ENDMDL
