MODEL 1
REMARK VINA RESULT:      53.2      0.000      0.000
REMARK  3 active torsions:
REMARK  status: ('A' for Active; 'I' for Inactive)
REMARK    1  A    between atoms: N_2  and  S_1 
REMARK    2  A    between atoms: C_4  and  S_1 
REMARK    3  A    between atoms: C_3  and  N_2 
ROOT
ATOM      1  S   UNL d   1      60.180  49.034  50.683  0.00  0.00     0.285 S 
ATOM      2  O   UNL d   1      59.896  49.044  49.905  0.00  0.00    -0.198 OA
ATOM      3  O   UNL d   1      60.467  49.023  51.464  0.00  0.00    -0.198 OA
ENDROOT
BRANCH   1   4
ATOM      4  N   UNL d   1      59.707  49.694  50.866  0.00  0.00    -0.158 NA
BRANCH   4   5
ATOM      5  C   UNL d   1      58.907  49.697  50.654  0.00  0.00     0.094 A 
ATOM      6  C   UNL d   1      58.670  49.701  49.860  0.00  0.00     0.023 A 
ATOM      7  C   UNL d   1      57.883  49.704  49.657  0.00  0.00     0.041 A 
ATOM      8  C   UNL d   1      57.687  49.708  48.860  0.00  0.00     0.003 C 
ATOM      9  C   UNL d   1      57.291  49.702  50.264  0.00  0.00     0.196 A 
ATOM     10  C   UNL d   1      57.528  49.698  51.056  0.00  0.00     0.044 A 
ATOM     11  O   UNL d   1      56.490  49.705  50.051  0.00  0.00    -0.287 OA
ATOM     12  C   UNL d   1      58.326  49.696  51.241  0.00  0.00     0.022 A 
ATOM     13  C   UNL d   1      58.544  49.692  52.028  0.00  0.00     0.002 C 
ENDBRANCH   4   5
ENDBRANCH   1   4
BRANCH   1  14
ATOM     14  C   UNL d   1      60.656  48.373  50.503  0.00  0.00     0.105 A 
ATOM     15  C   UNL d   1      61.212  48.435  49.909  0.00  0.00     0.013 A 
ATOM     16  C   UNL d   1      61.676  47.801  49.728  0.00  0.00     0.001 A 
ATOM     17  C   UNL d   1      61.592  47.071  50.148  0.00  0.00     0.000 A 
ATOM     18  C   UNL d   1      61.030  47.013  50.746  0.00  0.00     0.001 A 
ATOM     19  C   UNL d   1      62.070  46.389  49.976  0.00  0.00     0.000 C 
ATOM     20  C   UNL d   1      60.557  47.672  50.924  0.00  0.00     0.013 A 
ENDBRANCH   1  14
TORSDOF 3
ENDMDL
