MODEL 1
REMARK VINA RESULT:      57.8      0.000      0.000
REMARK  4 active torsions:
REMARK  status: ('A' for Active; 'I' for Inactive)
REMARK    1  A    between atoms: C_2  and  C_1 
REMARK       I    between atoms: N_7  and  C_1 
REMARK    2  A    between atoms: N_6  and  C_5 
REMARK    3  A    between atoms: C_12  and  N_7 
REMARK    4  A    between atoms: C_8  and  C_9 
ROOT
ATOM      1  C   UNL d   1      44.612 -12.506  40.174  0.00  0.00     0.021 A 
ATOM      2  C   UNL d   1      44.858 -12.960  38.841  0.00  0.00     0.085 A 
ATOM      3  C   UNL d   1      45.062 -12.946  39.641  0.00  0.00     0.021 A 
ATOM      4  C   UNL d   1      43.957 -12.080  39.907  0.00  0.00     0.002 A 
ATOM      5  C   UNL d   1      43.758 -12.097  39.114  0.00  0.00     0.002 A 
ATOM      6  C   UNL d   1      44.209 -12.536  38.581  0.00  0.00     0.019 A 
ENDROOT
BRANCH   1   7
ATOM      7  C   UNL d   1      44.821 -12.495  40.980  0.00  0.00     0.103 A 
ATOM      8  N   UNL d   1      44.306 -12.797  41.540  0.00  0.00    -0.147 NA
ATOM      9  N   UNL d   1      44.517 -12.783  42.338  0.00  0.00    -0.130 NA
ATOM     10  C   UNL d   1      45.244 -12.467  42.568  0.00  0.00     0.170 A 
ATOM     11  C   UNL d   1      45.760 -12.163  41.995  0.00  0.00     0.041 A 
ATOM     12  C   UNL d   1      45.547 -12.179  41.210  0.00  0.00     0.024 A 
BRANCH  10  13
ATOM     13  N   UNL d   1      45.456 -12.452  43.357  0.00  0.00    -0.284 N 
ATOM     14  C   UNL d   1      44.950 -12.110  43.911  0.00  0.00     0.108 A 
ATOM     15  C   UNL d   1      45.160 -12.093  44.709  0.00  0.00     0.142 A 
ATOM     16  O   UNL d   1      45.878 -12.419  44.953  0.00  0.00    -0.300 OA
ATOM     17  C   UNL d   1      46.385 -12.762  44.399  0.00  0.00     0.142 A 
ATOM     18  C   UNL d   1      46.174 -12.778  43.601  0.00  0.00     0.108 A 
ENDBRANCH  10  13
ENDBRANCH   1   7
BRANCH   2  19
ATOM     19  N   UNL d   1      45.309 -13.400  38.308  0.00  0.00    -0.208 NA
ATOM     20  C   UNL d   1      44.986 -14.051  37.933  0.00  0.00     0.280 C 
ATOM     21  O   UNL d   1      44.204 -14.267  38.090  0.00  0.00    -0.265 OA
BRANCH  20  22
ATOM     22  C   UNL d   1      45.434 -14.488  37.403  0.00  0.00     0.069 A 
ATOM     23  C   UNL d   1      45.168 -15.215  37.139  0.00  0.00     0.062 A 
ATOM     24 CL   UNL d   1      44.438 -15.514  37.409  0.00  0.00    -0.082 Cl
ATOM     25  C   UNL d   1      45.618 -15.655  36.606  0.00  0.00     0.012 A 
ATOM     26  C   UNL d   1      46.335 -15.367  36.337  0.00  0.00     0.001 A 
ATOM     27  C   UNL d   1      46.608 -14.635  36.601  0.00  0.00     0.000 A 
ATOM     28  C   UNL d   1      46.157 -14.195  37.134  0.00  0.00     0.006 A 
ENDBRANCH  20  22
ENDBRANCH   2  19
TORSDOF 4
ENDMDL
