MODEL 1
REMARK VINA RESULT:      31.1      0.000      0.000
REMARK  5 active torsions:
REMARK  status: ('A' for Active; 'I' for Inactive)
REMARK    1  A    between atoms: S_2  and  C_1 
REMARK    2  A    between atoms: N_3  and  C_1 
REMARK    3  A    between atoms: C_4  and  C_1 
REMARK    4  A    between atoms: C_6  and  S_2 
REMARK       I    between atoms: C_5  and  N_3 
REMARK    5  A    between atoms: C_9  and  C_5 
ROOT
ATOM      1  C   UNL d   1      14.314  12.762  -1.543  0.00  0.00     0.193 C 
ENDROOT
BRANCH   1   2
ATOM      2  S   UNL d   1      13.984  12.595  -2.255  0.00  0.00     0.228 S 
ATOM      3  O   UNL d   1      13.794  11.827  -2.009  0.00  0.00    -0.216 OA
ATOM      4  O   UNL d   1      14.151  13.273  -2.471  0.00  0.00    -0.216 OA
BRANCH   2   5
ATOM      5  C   UNL d   1      13.705  12.483  -2.884  0.00  0.00     0.090 A 
ATOM      6  C   UNL d   1      13.097  11.901  -3.011  0.00  0.00     0.012 A 
ATOM      7  C   UNL d   1      12.769  11.780  -3.792  0.00  0.00     0.012 A 
ATOM      8  C   UNL d   1      13.052  12.241  -4.439  0.00  0.00     0.058 A 
ATOM      9  C   UNL d   1      13.648  12.813  -4.321  0.00  0.00     0.012 A 
ATOM     10 CL   UNL d   1      12.796  12.134  -5.000  0.00  0.00    -0.082 Cl
ATOM     11  C   UNL d   1      13.975  12.934  -3.541  0.00  0.00     0.012 A 
ENDBRANCH   2   5
ENDBRANCH   1   2
BRANCH   1  12
ATOM     12  N   UNL d   1      14.317  13.564  -1.255  0.00  0.00    -0.195 NA
ATOM     13  C   UNL d   1      15.035  14.012  -1.125  0.00  0.00     0.280 C 
ATOM     14  O   UNL d   1      15.803  13.626  -1.297  0.00  0.00    -0.265 OA
BRANCH  13  15
ATOM     15  C   UNL d   1      15.150  14.684  -0.889  0.00  0.00     0.058 A 
ATOM     16  C   UNL d   1      15.075  15.213  -1.517  0.00  0.00     0.005 A 
ATOM     17  C   UNL d   1      15.181  16.020  -1.398  0.00  0.00     0.000 A 
ATOM     18  C   UNL d   1      15.362  16.293  -0.642  0.00  0.00     0.000 A 
ATOM     19  C   UNL d   1      15.437  15.764  -0.014  0.00  0.00     0.000 A 
ATOM     20  C   UNL d   1      15.430  16.902  -0.610  0.00  0.00     0.000 C 
ATOM     21  C   UNL d   1      15.331  14.962  -0.142  0.00  0.00     0.005 A 
ENDBRANCH  13  15
ENDBRANCH   1  12
BRANCH   1  22
ATOM     22  C   UNL d   1      14.642  12.136  -1.110  0.00  0.00     0.144 C 
ATOM     23 CL   UNL d   1      15.393  11.784  -1.373  0.00  0.00    -0.068 Cl
ATOM     24 CL   UNL d   1      14.269  11.824  -0.414  0.00  0.00    -0.068 Cl
ENDBRANCH   1  22
TORSDOF 5
ENDMDL
MODEL 2
REMARK VINA RESULT:      31.7      1.347      4.155
REMARK  5 active torsions:
REMARK  status: ('A' for Active; 'I' for Inactive)
REMARK    1  A    between atoms: S_2  and  C_1 
REMARK    2  A    between atoms: N_3  and  C_1 
REMARK    3  A    between atoms: C_4  and  C_1 
REMARK    4  A    between atoms: C_6  and  S_2 
REMARK       I    between atoms: C_5  and  N_3 
REMARK    5  A    between atoms: C_9  and  C_5 
ROOT
ATOM      1  C   UNL d   1      14.655  13.193  -0.896  0.00  0.00     0.193 C 
ENDROOT
BRANCH   1   2
ATOM      2  S   UNL d   1      14.984  13.901  -0.712  0.00  0.00     0.228 S 
ATOM      3  O   UNL d   1      14.414  14.037  -0.127  0.00  0.00    -0.216 OA
ATOM      4  O   UNL d   1      15.488  13.782  -1.229  0.00  0.00    -0.216 OA
BRANCH   2   5
ATOM      5  C   UNL d   1      15.295  14.511  -0.578  0.00  0.00     0.090 A 
ATOM      6  C   UNL d   1      16.040  14.558  -0.169  0.00  0.00     0.012 A 
ATOM      7  C   UNL d   1      16.403  15.317  -0.015  0.00  0.00     0.012 A 
ATOM      8  C   UNL d   1      16.017  16.023  -0.271  0.00  0.00     0.058 A 
ATOM      9  C   UNL d   1      15.287  15.984  -0.671  0.00  0.00     0.012 A 
ATOM     10 CL   UNL d   1      16.303  16.565  -0.146  0.00  0.00    -0.082 Cl
ATOM     11  C   UNL d   1      14.925  15.225  -0.826  0.00  0.00     0.012 A 
ENDBRANCH   2   5
ENDBRANCH   1   2
BRANCH   1  12
ATOM     12  N   UNL d   1      14.122  13.132  -1.557  0.00  0.00    -0.195 NA
ATOM     13  C   UNL d   1      14.249  12.599  -2.215  0.00  0.00     0.280 C 
ATOM     14  O   UNL d   1      14.964  12.092  -2.206  0.00  0.00    -0.265 OA
BRANCH  13  15
ATOM     15  C   UNL d   1      13.869  12.470  -2.815  0.00  0.00     0.058 A 
ATOM     16  C   UNL d   1      13.822  13.159  -3.264  0.00  0.00     0.005 A 
ATOM     17  C   UNL d   1      13.417  13.164  -3.980  0.00  0.00     0.000 A 
ATOM     18  C   UNL d   1      13.057  12.469  -4.241  0.00  0.00     0.000 A 
ATOM     19  C   UNL d   1      13.104  11.780  -3.791  0.00  0.00     0.000 A 
ATOM     20  C   UNL d   1      12.769  12.530  -4.780  0.00  0.00     0.000 C 
ATOM     21  C   UNL d   1      13.510  11.786  -3.080  0.00  0.00     0.005 A 
ENDBRANCH  13  15
ENDBRANCH   1  12
BRANCH   1  22
ATOM     22  C   UNL d   1      14.852  12.540  -0.426  0.00  0.00     0.144 C 
ATOM     23 CL   UNL d   1      14.229  11.980  -0.192  0.00  0.00    -0.068 Cl
ATOM     24 CL   UNL d   1      15.647  12.396  -0.163  0.00  0.00    -0.068 Cl
ENDBRANCH   1  22
TORSDOF 5
ENDMDL
