MODEL 1
REMARK VINA RESULT:      42.4      0.000      0.000
REMARK  6 active torsions:
REMARK  status: ('A' for Active; 'I' for Inactive)
REMARK       I    between atoms: C_2  and  N_1 
REMARK    1  A    between atoms: C_3  and  N_1 
REMARK    2  A    between atoms: C_6  and  C_2 
REMARK    3  A    between atoms: N_7  and  C_3 
REMARK    4  A    between atoms: C_8  and  N_7 
REMARK    5  A    between atoms: C_12  and  C_8 
REMARK    6  A    between atoms: C_9  and  C_12 
ROOT
ATOM      1  C   UNL d   1     -49.680  26.963  34.033  0.00  0.00     0.179 C 
ATOM      2  S   UNL d   1     -49.158  27.021  33.407  0.00  0.00    -0.040 SA
ENDROOT
BRANCH   1   3
ATOM      3  N   UNL d   1     -50.376  26.536  33.954  0.00  0.00    -0.299 N 
ATOM      4  C   UNL d   1     -50.351  25.809  33.598  0.00  0.00     0.259 C 
ATOM      5  O   UNL d   1     -49.646  25.503  33.321  0.00  0.00    -0.267 OA
ATOM      6  H   UNL d   1     -51.076  26.840  34.228  0.00  0.00     0.171 HD
BRANCH   4   7
ATOM      7  C   UNL d   1     -51.052  25.373  33.515  0.00  0.00     0.056 A 
ATOM      8  C   UNL d   1     -51.755  25.758  33.389  0.00  0.00     0.005 A 
ATOM      9  C   UNL d   1     -52.452  25.332  33.306  0.00  0.00     0.000 A 
ATOM     10  C   UNL d   1     -52.429  24.513  33.353  0.00  0.00     0.000 A 
ATOM     11  C   UNL d   1     -51.726  24.129  33.480  0.00  0.00     0.000 A 
ATOM     12  C   UNL d   1     -51.030  24.555  33.562  0.00  0.00     0.005 A 
ENDBRANCH   4   7
ENDBRANCH   1   3
BRANCH   1  13
ATOM     13  N   UNL d   1     -49.514  27.332  34.745  0.00  0.00    -0.330 N 
ATOM     14  H   UNL d   1     -49.871  27.081  35.429  0.00  0.00     0.168 HD
BRANCH  13  15
ATOM     15  C   UNL d   1     -48.987  27.953  34.757  0.00  0.00     0.074 C 
BRANCH  15  16
ATOM     16  C   UNL d   1     -48.843  28.349  35.467  0.00  0.00     0.018 C 
BRANCH  16  17
ATOM     17  C   UNL d   1     -48.254  28.938  35.507  0.00  0.00     0.002 A 
ATOM     18  C   UNL d   1     -47.886  29.115  36.230  0.00  0.00     0.000 A 
ATOM     19  C   UNL d   1     -47.304  29.698  36.264  0.00  0.00     0.000 A 
ATOM     20  C   UNL d   1     -47.086  30.109  35.577  0.00  0.00     0.000 A 
ATOM     21  C   UNL d   1     -47.450  29.935  34.858  0.00  0.00     0.000 A 
ATOM     22  C   UNL d   1     -48.035  29.349  34.821  0.00  0.00     0.000 A 
ENDBRANCH  16  17
ENDBRANCH  15  16
ENDBRANCH  13  15
ENDBRANCH   1  13
TORSDOF 6
ENDMDL
MODEL 2
REMARK VINA RESULT:      43.8      2.074      5.638
REMARK  6 active torsions:
REMARK  status: ('A' for Active; 'I' for Inactive)
REMARK       I    between atoms: C_2  and  N_1 
REMARK    1  A    between atoms: C_3  and  N_1 
REMARK    2  A    between atoms: C_6  and  C_2 
REMARK    3  A    between atoms: N_7  and  C_3 
REMARK    4  A    between atoms: C_8  and  N_7 
REMARK    5  A    between atoms: C_12  and  C_8 
REMARK    6  A    between atoms: C_9  and  C_12 
ROOT
ATOM      1  C   UNL d   1     -48.159  28.951  35.127  0.00  0.00     0.179 C 
ATOM      2  S   UNL d   1     -48.093  28.827  35.932  0.00  0.00    -0.040 SA
ENDROOT
BRANCH   1   3
ATOM      3  N   UNL d   1     -48.138  29.713  34.823  0.00  0.00    -0.299 N 
ATOM      4  C   UNL d   1     -47.724  30.283  35.222  0.00  0.00     0.259 C 
ATOM      5  O   UNL d   1     -47.332  30.106  35.916  0.00  0.00    -0.267 OA
ATOM      6  H   UNL d   1     -48.528  29.889  34.134  0.00  0.00     0.171 HD
BRANCH   4   7
ATOM      7  C   UNL d   1     -47.701  31.055  34.919  0.00  0.00     0.056 A 
ATOM      8  C   UNL d   1     -47.087  31.548  35.114  0.00  0.00     0.005 A 
ATOM      9  C   UNL d   1     -47.058  32.313  34.818  0.00  0.00     0.000 A 
ATOM     10  C   UNL d   1     -47.657  32.572  34.320  0.00  0.00     0.000 A 
ATOM     11  C   UNL d   1     -48.270  32.079  34.124  0.00  0.00     0.000 A 
ATOM     12  C   UNL d   1     -48.298  31.315  34.421  0.00  0.00     0.005 A 
ENDBRANCH   4   7
ENDBRANCH   1   3
BRANCH   1  13
ATOM     13  N   UNL d   1     -48.246  28.317  34.616  0.00  0.00    -0.330 N 
ATOM     14  H   UNL d   1     -47.594  27.945  34.309  0.00  0.00     0.168 HD
BRANCH  13  15
ATOM     15  C   UNL d   1     -48.997  28.066  34.420  0.00  0.00     0.074 C 
BRANCH  15  16
ATOM     16  C   UNL d   1     -49.128  27.721  33.682  0.00  0.00     0.018 C 
BRANCH  16  17
ATOM     17  C   UNL d   1     -49.802  27.245  33.556  0.00  0.00     0.002 A 
ATOM     18  C   UNL d   1     -49.736  26.418  33.548  0.00  0.00     0.000 A 
ATOM     19  C   UNL d   1     -50.404  25.952  33.423  0.00  0.00     0.000 A 
ATOM     20  C   UNL d   1     -51.144  26.309  33.306  0.00  0.00     0.000 A 
ATOM     21  C   UNL d   1     -51.213  27.130  33.313  0.00  0.00     0.000 A 
ATOM     22  C   UNL d   1     -50.541  27.601  33.438  0.00  0.00     0.000 A 
ENDBRANCH  16  17
ENDBRANCH  15  16
ENDBRANCH  13  15
ENDBRANCH   1  13
TORSDOF 6
ENDMDL
MODEL 3
REMARK VINA RESULT:      43.8      1.674      5.575
REMARK  6 active torsions:
REMARK  status: ('A' for Active; 'I' for Inactive)
REMARK       I    between atoms: C_2  and  N_1 
REMARK    1  A    between atoms: C_3  and  N_1 
REMARK    2  A    between atoms: C_6  and  C_2 
REMARK    3  A    between atoms: N_7  and  C_3 
REMARK    4  A    between atoms: C_8  and  N_7 
REMARK    5  A    between atoms: C_12  and  C_8 
REMARK    6  A    between atoms: C_9  and  C_12 
ROOT
ATOM      1  C   UNL d   1     -48.757  28.624  34.588  0.00  0.00     0.179 C 
ATOM      2  S   UNL d   1     -48.799  28.302  35.337  0.00  0.00    -0.040 SA
ENDROOT
BRANCH   1   3
ATOM      3  N   UNL d   1     -48.537  29.408  34.485  0.00  0.00    -0.299 N 
ATOM      4  C   UNL d   1     -48.074  29.762  35.047  0.00  0.00     0.259 C 
ATOM      5  O   UNL d   1     -47.827  29.347  35.707  0.00  0.00    -0.267 OA
ATOM      6  H   UNL d   1     -48.782  29.819  33.831  0.00  0.00     0.171 HD
BRANCH   4   7
ATOM      7  C   UNL d   1     -47.849  30.554  34.949  0.00  0.00     0.056 A 
ATOM      8  C   UNL d   1     -48.318  31.058  34.520  0.00  0.00     0.005 A 
ATOM      9  C   UNL d   1     -48.101  31.842  34.419  0.00  0.00     0.000 A 
ATOM     10  C   UNL d   1     -47.403  32.112  34.756  0.00  0.00     0.000 A 
ATOM     11  C   UNL d   1     -46.934  31.609  35.185  0.00  0.00     0.000 A 
ATOM     12  C   UNL d   1     -47.152  30.824  35.286  0.00  0.00     0.005 A 
ENDBRANCH   4   7
ENDBRANCH   1   3
BRANCH   1  13
ATOM     13  N   UNL d   1     -48.934  28.168  33.931  0.00  0.00    -0.330 N 
ATOM     14  H   UNL d   1     -48.496  28.240  33.252  0.00  0.00     0.168 HD
BRANCH  13  15
ATOM     15  C   UNL d   1     -49.555  27.642  33.969  0.00  0.00     0.074 C 
BRANCH  15  16
ATOM     16  C   UNL d   1     -49.672  27.108  33.350  0.00  0.00     0.018 C 
BRANCH  16  17
ATOM     17  C   UNL d   1     -50.352  26.625  33.336  0.00  0.00     0.002 A 
ATOM     18  C   UNL d   1     -50.279  25.798  33.329  0.00  0.00     0.000 A 
ATOM     19  C   UNL d   1     -50.954  25.325  33.316  0.00  0.00     0.000 A 
ATOM     20  C   UNL d   1     -51.706  25.674  33.309  0.00  0.00     0.000 A 
ATOM     21  C   UNL d   1     -51.782  26.495  33.316  0.00  0.00     0.000 A 
ATOM     22  C   UNL d   1     -51.105  26.973  33.330  0.00  0.00     0.000 A 
ENDBRANCH  16  17
ENDBRANCH  15  16
ENDBRANCH  13  15
ENDBRANCH   1  13
TORSDOF 6
ENDMDL
MODEL 4
REMARK VINA RESULT:      44.3      0.675      1.129
REMARK  6 active torsions:
REMARK  status: ('A' for Active; 'I' for Inactive)
REMARK       I    between atoms: C_2  and  N_1 
REMARK    1  A    between atoms: C_3  and  N_1 
REMARK    2  A    between atoms: C_6  and  C_2 
REMARK    3  A    between atoms: N_7  and  C_3 
REMARK    4  A    between atoms: C_8  and  N_7 
REMARK    5  A    between atoms: C_12  and  C_8 
REMARK    6  A    between atoms: C_9  and  C_12 
ROOT
ATOM      1  C   UNL d   1     -50.038  27.549  33.653  0.00  0.00     0.179 C 
ATOM      2  S   UNL d   1     -50.286  28.268  33.354  0.00  0.00    -0.040 SA
ENDROOT
BRANCH   1   3
ATOM      3  N   UNL d   1     -50.510  26.883  33.573  0.00  0.00    -0.299 N 
ATOM      4  C   UNL d   1     -50.157  26.154  33.549  0.00  0.00     0.259 C 
ATOM      5  O   UNL d   1     -49.345  26.081  33.603  0.00  0.00    -0.267 OA
ATOM      6  H   UNL d   1     -51.316  26.956  33.519  0.00  0.00     0.171 HD
BRANCH   4   7
ATOM      7  C   UNL d   1     -50.630  25.477  33.468  0.00  0.00     0.056 A 
ATOM      8  C   UNL d   1     -50.282  24.749  33.386  0.00  0.00     0.005 A 
ATOM      9  C   UNL d   1     -50.744  24.075  33.306  0.00  0.00     0.000 A 
ATOM     10  C   UNL d   1     -51.562  24.147  33.310  0.00  0.00     0.000 A 
ATOM     11  C   UNL d   1     -51.909  24.875  33.392  0.00  0.00     0.000 A 
ATOM     12  C   UNL d   1     -51.447  25.548  33.472  0.00  0.00     0.005 A 
ENDBRANCH   4   7
ENDBRANCH   1   3
BRANCH   1  13
ATOM     13  N   UNL d   1     -49.317  27.487  34.036  0.00  0.00    -0.330 N 
ATOM     14  H   UNL d   1     -48.851  26.831  33.929  0.00  0.00     0.168 HD
BRANCH  13  15
ATOM     15  C   UNL d   1     -49.073  28.092  34.524  0.00  0.00     0.074 C 
BRANCH  15  16
ATOM     16  C   UNL d   1     -48.306  28.387  34.452  0.00  0.00     0.018 C 
BRANCH  16  17
ATOM     17  C   UNL d   1     -48.030  28.973  34.979  0.00  0.00     0.002 A 
ATOM     18  C   UNL d   1     -47.912  29.751  34.716  0.00  0.00     0.000 A 
ATOM     19  C   UNL d   1     -47.640  30.325  35.241  0.00  0.00     0.000 A 
ATOM     20  C   UNL d   1     -47.483  30.127  36.031  0.00  0.00     0.000 A 
ATOM     21  C   UNL d   1     -47.599  29.354  36.294  0.00  0.00     0.000 A 
ATOM     22  C   UNL d   1     -47.873  28.774  35.768  0.00  0.00     0.000 A 
ENDBRANCH  16  17
ENDBRANCH  15  16
ENDBRANCH  13  15
ENDBRANCH   1  13
TORSDOF 6
ENDMDL
