MODEL 1
REMARK VINA RESULT:      48.6      0.000      0.000
REMARK  2 active torsions:
REMARK  status: ('A' for Active; 'I' for Inactive)
REMARK    1  A    between atoms: C_8  and  N_1 
REMARK    2  A    between atoms: N_5  and  C_9 
ROOT
ATOM      1  N   UNL d   1     -54.970-101.750 -41.737  0.00  0.00    -0.192 N 
ATOM      2  C   UNL d   1     -54.970-100.951 -41.956  0.00  0.00     0.281 A 
ATOM      3  N   UNL d   1     -54.887-102.316 -42.295  0.00  0.00    -0.120 NA
ATOM      4  C   UNL d   1     -54.800-102.115 -43.092  0.00  0.00     0.296 A 
ATOM      5  C   UNL d   1     -54.884-100.733 -42.747  0.00  0.00     0.063 A 
ATOM      6  C   UNL d   1     -54.795-101.343 -43.346  0.00  0.00     0.064 A 
ATOM      7  O   UNL d   1     -55.055-100.354 -41.387  0.00  0.00    -0.265 OA
ATOM      8  O   UNL d   1     -54.717-102.697 -43.648  0.00  0.00    -0.264 OA
ATOM      9  C   UNL d   1     -54.883 -99.946 -42.978  0.00  0.00     0.005 A 
ATOM     10  C   UNL d   1     -54.712-101.111 -44.120  0.00  0.00     0.005 A 
ATOM     11  C   UNL d   1     -54.795 -99.744 -43.783  0.00  0.00     0.000 A 
ATOM     12  C   UNL d   1     -54.711-100.309 -44.346  0.00  0.00     0.000 A 
ENDROOT
BRANCH   1  13
ATOM     13  C   UNL d   1     -55.053-101.969 -40.967  0.00  0.00     0.086 A 
ATOM     14  C   UNL d   1     -54.719-101.513 -40.364  0.00  0.00     0.021 A 
ATOM     15  C   UNL d   1     -54.818-101.760 -39.566  0.00  0.00     0.025 A 
ATOM     16  C   UNL d   1     -55.250-102.458 -39.399  0.00  0.00     0.127 A 
ATOM     17  C   UNL d   1     -55.560-102.875 -40.016  0.00  0.00     0.025 A 
ATOM     18  C   UNL d   1     -55.482-102.663 -40.793  0.00  0.00     0.021 A 
BRANCH  16  19
ATOM     19  N   UNL d   1     -55.345-102.698 -38.602  0.00  0.00    -0.114 N 
ATOM     20  O   UNL d   1     -56.098-102.818 -38.326  0.00  0.00    -0.532 OA
ATOM     21  O   UNL d   1     -54.711-102.821 -38.078  0.00  0.00    -0.532 OA
ENDBRANCH  16  19
ENDBRANCH   1  13
TORSDOF 2
ENDMDL
