MODEL 1
REMARK VINA RESULT:      15.5      0.000      0.000
REMARK  3 active torsions:
REMARK  status: ('A' for Active; 'I' for Inactive)
REMARK    1  A    between atoms: C_6  and  C_1 
REMARK    2  A    between atoms: C_7  and  C_5 
REMARK    3  A    between atoms: O_11  and  C_6 
ROOT
ATOM      1  C   UNL d   1      57.430  49.660  50.432  0.00  0.00     0.167 A 
ATOM      2  C   UNL d   1      57.643  49.656  51.187  0.00  0.00     0.047 A 
ATOM      3  N   UNL d   1      58.733  49.679  50.065  0.00  0.00    -0.148 NA
ATOM      4  N   UNL d   1      57.979  49.672  49.866  0.00  0.00    -0.143 NA
ATOM      5  C   UNL d   1      58.948  49.675  50.827  0.00  0.00     0.105 A 
ENDROOT
BRANCH   5   6
ATOM      6  C   UNL d   1      59.671  49.681  51.224  0.00  0.00     0.019 A 
ATOM      7  C   UNL d   1      59.672  49.690  52.056  0.00  0.00     0.002 A 
ATOM      8  C   UNL d   1      60.393  49.696  52.463  0.00  0.00     0.011 A 
ATOM      9  C   UNL d   1      61.108  49.692  52.035  0.00  0.00     0.058 A 
ATOM     10  C   UNL d   1      61.092  49.683  51.209  0.00  0.00     0.011 A 
ATOM     11 CL   UNL d   1      61.841  49.698  52.452  0.00  0.00    -0.082 Cl
ATOM     12  C   UNL d   1      60.377  49.677  50.809  0.00  0.00     0.002 A 
ENDBRANCH   5   6
BRANCH   1  13
ATOM     13  C   UNL d   1      56.663  49.652  50.237  0.00  0.00     0.316 C 
ATOM     14  O   UNL d   1      56.110  49.638  50.804  0.00  0.00    -0.257 OA
BRANCH  13  15
ATOM     15  O   UNL d   1      56.452  49.659  49.442  0.00  0.00    -0.294 OA
ATOM     16  C   UNL d   1      56.057  48.988  49.107  0.00  0.00     0.185 C 
ENDBRANCH  13  15
ENDBRANCH   1  13
TORSDOF 3
ENDMDL
