MODEL 1
REMARK VINA RESULT:      68.5      0.000      0.000
REMARK  3 active torsions:
REMARK  status: ('A' for Active; 'I' for Inactive)
REMARK       I    between atoms: C_4  and  N_1 
REMARK    1  A    between atoms: C_7  and  C_3 
REMARK    2  A    between atoms: C_8  and  C_4 
REMARK    3  A    between atoms: C_13  and  C_5 
ROOT
ATOM      1  N   UNL d   1      59.258  49.331  51.398  0.00  0.00    -0.194 N 
ATOM      2  N   UNL d   1      58.467  49.505  51.298  0.00  0.00    -0.163 NA
ATOM      3  C   UNL d   1      59.565  49.098  50.667  0.00  0.00     0.091 A 
ATOM      4  C   UNL d   1      59.703  49.378  52.121  0.00  0.00     0.286 C 
ATOM      5  C   UNL d   1      58.282  49.379  50.503  0.00  0.00     0.103 A 
ATOM      6  C   UNL d   1      58.959  49.129  50.119  0.00  0.00     0.040 A 
ATOM      7  O   UNL d   1      59.311  49.623  52.809  0.00  0.00    -0.265 OA
ENDROOT
BRANCH   3   8
ATOM      8  C   UNL d   1      60.352  48.872  50.522  0.00  0.00     0.057 A 
ATOM      9  C   UNL d   1      60.534  48.086  50.420  0.00  0.00     0.197 A 
ATOM     10  O   UNL d   1      59.955  47.518  50.458  0.00  0.00    -0.286 OA
ATOM     11  C   UNL d   1      61.321  47.861  50.275  0.00  0.00     0.042 A 
ATOM     12  C   UNL d   1      61.925  48.418  50.232  0.00  0.00     0.003 A 
ATOM     13  C   UNL d   1      61.720  49.209  50.338  0.00  0.00     0.000 A 
ATOM     14  C   UNL d   1      60.958  49.431  50.479  0.00  0.00     0.005 A 
ENDBRANCH   3   8
BRANCH   4  15
ATOM     15  C   UNL d   1      60.484  49.188  52.137  0.00  0.00     0.087 A 
ATOM     16  S   UNL d   1      61.083  49.707  52.254  0.00  0.00    -0.082 SA
ATOM     17  C   UNL d   1      61.800  49.277  52.228  0.00  0.00     0.036 A 
ATOM     18  C   UNL d   1      61.612  48.478  52.091  0.00  0.00     0.008 A 
ATOM     19  C   UNL d   1      60.800  48.425  52.035  0.00  0.00     0.012 A 
ENDBRANCH   4  15
BRANCH   5  20
ATOM     20  C   UNL d   1      57.539  49.489  50.161  0.00  0.00     0.019 A 
ATOM     21  C   UNL d   1      56.861  49.508  50.644  0.00  0.00     0.002 A 
ATOM     22  C   UNL d   1      56.115  49.617  50.305  0.00  0.00     0.000 A 
ATOM     23  C   UNL d   1      56.041  49.708  49.486  0.00  0.00     0.000 A 
ATOM     24  C   UNL d   1      56.719  49.689  49.003  0.00  0.00     0.000 A 
ATOM     25  C   UNL d   1      57.462  49.579  49.345  0.00  0.00     0.002 A 
ENDBRANCH   5  20
TORSDOF 3
ENDMDL
