MODEL 1
REMARK VINA RESULT:      52.9      0.000      0.000
REMARK  6 active torsions:
REMARK  status: ('A' for Active; 'I' for Inactive)
REMARK    1  A    between atoms: C_7  and  S_1 
REMARK    2  A    between atoms: N_11  and  S_1 
REMARK    3  A    between atoms: C_5  and  C_2 
REMARK    4  A    between atoms: C_6  and  C_15 
REMARK    5  A    between atoms: C_18  and  N_11 
REMARK    6  A    between atoms: C_15  and  C_18 
ROOT
ATOM      1  C   UNL d   1      60.939  49.458  50.517  0.00  0.00     0.041 C 
ENDROOT
BRANCH   1   2
ATOM      2  C   UNL d   1      60.144  49.540  50.739  0.00  0.00     0.090 A 
ATOM      3  N   UNL d   1      59.496  49.525  50.221  0.00  0.00    -0.238 NA
ATOM      4  C   UNL d   1      58.811  49.628  50.677  0.00  0.00     0.112 A 
ATOM      5  S   UNL d   1      59.032  49.706  51.471  0.00  0.00    -0.066 SA
ATOM      6  C   UNL d   1      59.863  49.652  51.508  0.00  0.00     0.056 A 
BRANCH   4   7
ATOM      7  C   UNL d   1      58.025  49.649  50.391  0.00  0.00     0.043 A 
ATOM      8  C   UNL d   1      57.883  49.686  49.580  0.00  0.00     0.101 A 
ATOM      9  N   UNL d   1      57.117  49.707  49.301  0.00  0.00    -0.242 NA
ATOM     10  C   UNL d   1      56.489  49.691  49.831  0.00  0.00     0.099 A 
ATOM     11  C   UNL d   1      56.638  49.654  50.658  0.00  0.00     0.021 A 
ATOM     12  C   UNL d   1      57.407  49.633  50.936  0.00  0.00     0.005 A 
ENDBRANCH   4   7
ENDBRANCH   1   2
BRANCH   1  13
ATOM     13  C   UNL d   1      61.203  48.768  50.152  0.00  0.00     0.114 C 
BRANCH  13  14
ATOM     14  N   UNL d   1      61.446  48.114  50.623  0.00  0.00    -0.157 NA
BRANCH  14  15
ATOM     15  S   UNL d   1      61.528  47.369  50.270  0.00  0.00     0.285 S 
ATOM     16  O   UNL d   1      61.794  47.737  49.570  0.00  0.00    -0.198 OA
ATOM     17  O   UNL d   1      61.262  47.000  50.967  0.00  0.00    -0.198 OA
BRANCH  15  18
ATOM     18  C   UNL d   1      61.612  46.630  49.910  0.00  0.00     0.105 A 
ATOM     19  C   UNL d   1      60.956  46.139  49.847  0.00  0.00     0.015 A 
ATOM     20  C   UNL d   1      61.038  45.392  49.484  0.00  0.00     0.030 A 
ATOM     21  C   UNL d   1      61.765  45.154  49.195  0.00  0.00     0.140 A 
ATOM     22  C   UNL d   1      62.415  45.650  49.262  0.00  0.00     0.030 A 
ATOM     23  F   UNL d   1      61.850  44.415  48.835  0.00  0.00    -0.204 F 
ATOM     24  C   UNL d   1      62.352  46.389  49.617  0.00  0.00     0.015 A 
ENDBRANCH  15  18
ENDBRANCH  14  15
ENDBRANCH  13  14
ENDBRANCH   1  13
TORSDOF 6
ENDMDL
