MODEL 1
REMARK VINA RESULT:      -6.4      0.000      0.000
REMARK  4 active torsions:
REMARK  status: ('A' for Active; 'I' for Inactive)
REMARK    1  A    between atoms: N_2  and  S_1 
REMARK    2  A    between atoms: C_3  and  S_1 
REMARK    3  A    between atoms: N_6  and  N_2 
REMARK    4  A    between atoms: C_9  and  N_6 
ROOT
ATOM      1  S   UNL d   1     -41.535-122.684 -52.754  0.00  0.00     0.302 S 
ATOM      2  O   UNL d   1     -41.854-123.450 -52.877  0.00  0.00    -0.197 OA
ATOM      3  O   UNL d   1     -41.224-121.933 -52.637  0.00  0.00    -0.197 OA
ENDROOT
BRANCH   1   4
ATOM      4  N   UNL d   1     -41.410-122.865 -51.948  0.00  0.00    -0.054 NA
BRANCH   4   5
ATOM      5  N   UNL d   1     -41.834-122.476 -51.383  0.00  0.00    -0.137 NA
BRANCH   5   6
ATOM      6  C   UNL d   1     -41.814-122.732 -50.584  0.00  0.00     0.104 A 
ATOM      7  C   UNL d   1     -41.125-123.036 -50.269  0.00  0.00     0.021 A 
ATOM      8  C   UNL d   1     -41.123-123.282 -49.482  0.00  0.00     0.002 A 
ATOM      9  C   UNL d   1     -41.802-123.219 -49.034  0.00  0.00     0.000 A 
ATOM     10  C   UNL d   1     -42.484-122.916 -49.354  0.00  0.00     0.002 A 
ATOM     11  C   UNL d   1     -41.785-123.476 -48.228  0.00  0.00     0.000 C 
ATOM     12  C   UNL d   1     -42.499-122.667 -50.136  0.00  0.00     0.021 A 
ENDBRANCH   5   6
ENDBRANCH   4   5
ENDBRANCH   1   4
BRANCH   1  13
ATOM     13  C   UNL d   1     -41.659-122.507 -53.551  0.00  0.00     0.107 A 
ATOM     14  C   UNL d   1     -41.290-122.949 -54.135  0.00  0.00     0.013 A 
ATOM     15  C   UNL d   1     -41.426-122.758 -54.927  0.00  0.00     0.001 A 
ATOM     16  C   UNL d   1     -41.930-122.128 -55.134  0.00  0.00     0.000 A 
ATOM     17  C   UNL d   1     -42.305-121.680 -54.542  0.00  0.00     0.001 A 
ATOM     18  C   UNL d   1     -42.063-121.940 -55.940  0.00  0.00     0.000 C 
ATOM     19  C   UNL d   1     -42.156-121.886 -53.757  0.00  0.00     0.013 A 
ENDBRANCH   1  13
TORSDOF 4
ENDMDL
MODEL 2
REMARK VINA RESULT:      -6.2      0.640      4.666
REMARK  4 active torsions:
REMARK  status: ('A' for Active; 'I' for Inactive)
REMARK    1  A    between atoms: N_2  and  S_1 
REMARK    2  A    between atoms: C_3  and  S_1 
REMARK    3  A    between atoms: N_6  and  N_2 
REMARK    4  A    between atoms: C_9  and  N_6 
ROOT
ATOM      1  S   UNL d   1     -41.644-122.500 -51.361  0.00  0.00     0.302 S 
ATOM      2  O   UNL d   1     -41.585-121.691 -51.145  0.00  0.00    -0.197 OA
ATOM      3  O   UNL d   1     -41.701-123.292 -51.570  0.00  0.00    -0.197 OA
ENDROOT
BRANCH   1   4
ATOM      4  N   UNL d   1     -41.551-122.292 -52.166  0.00  0.00    -0.054 NA
BRANCH   4   5
ATOM      5  N   UNL d   1     -41.812-122.795 -52.738  0.00  0.00    -0.137 NA
BRANCH   5   6
ATOM      6  C   UNL d   1     -41.843-122.548 -53.540  0.00  0.00     0.104 A 
ATOM      7  C   UNL d   1     -42.377-121.976 -53.771  0.00  0.00     0.021 A 
ATOM      8  C   UNL d   1     -42.394-121.745 -54.563  0.00  0.00     0.002 A 
ATOM      9  C   UNL d   1     -41.881-122.088 -55.098  0.00  0.00     0.000 A 
ATOM     10  C   UNL d   1     -41.353-122.656 -54.861  0.00  0.00     0.002 A 
ATOM     11  C   UNL d   1     -41.910-121.842 -55.907  0.00  0.00     0.000 C 
ATOM     12  C   UNL d   1     -41.326-122.895 -54.076  0.00  0.00     0.021 A 
ENDBRANCH   5   6
ENDBRANCH   4   5
ENDBRANCH   1   4
BRANCH   1  13
ATOM     13  C   UNL d   1     -41.735-122.703 -50.566  0.00  0.00     0.107 A 
ATOM     14  C   UNL d   1     -41.123-123.065 -50.158  0.00  0.00     0.013 A 
ATOM     15  C   UNL d   1     -41.232-123.260 -49.364  0.00  0.00     0.001 A 
ATOM     16  C   UNL d   1     -41.951-123.094 -48.978  0.00  0.00     0.000 A 
ATOM     17  C   UNL d   1     -42.572-122.727 -49.390  0.00  0.00     0.001 A 
ATOM     18  C   UNL d   1     -42.055-123.296 -48.170  0.00  0.00     0.000 C 
ATOM     19  C   UNL d   1     -42.444-122.539 -50.184  0.00  0.00     0.013 A 
ENDBRANCH   1  13
TORSDOF 4
ENDMDL
