MODEL 1
REMARK VINA RESULT:     105.0      0.000      0.000
REMARK  8 active torsions:
REMARK  status: ('A' for Active; 'I' for Inactive)
REMARK    1  A    between atoms: N_3  and  S_1 
REMARK    2  A    between atoms: C_5  and  S_1 
REMARK    3  A    between atoms: N_2  and  C_7 
REMARK    4  A    between atoms: C_6  and  N_3 
REMARK    5  A    between atoms: C_18  and  N_4 
REMARK    6  A    between atoms: C_7  and  C_6 
REMARK    7  A    between atoms: C_12  and  C_7 
REMARK    8  A    between atoms: O_23  and  C_17 
ROOT
ATOM      1  C   UNL d   1      59.919  49.158  50.780  0.00  0.00     0.086 C 
ENDROOT
BRANCH   1   2
ATOM      2  N   UNL d   1      60.371  48.494  50.562  0.00  0.00    -0.300 N 
ATOM      3  C   UNL d   1      61.053  48.595  50.116  0.00  0.00     0.100 A 
ATOM      4  C   UNL d   1      61.504  47.939  49.897  0.00  0.00     0.100 A 
ATOM      5  N   UNL d   1      61.269  47.184  50.127  0.00  0.00    -0.301 N 
ATOM      6  C   UNL d   1      60.584  47.085  50.575  0.00  0.00     0.100 A 
ATOM      7  C   UNL d   1      60.136  47.739  50.792  0.00  0.00     0.100 A 
BRANCH   5   8
ATOM      8  C   UNL d   1      61.716  46.530  49.911  0.00  0.00     0.064 A 
ATOM      9  C   UNL d   1      62.321  46.607  49.352  0.00  0.00     0.018 A 
ATOM     10  C   UNL d   1      62.768  45.952  49.136  0.00  0.00     0.002 A 
ATOM     11  C   UNL d   1      62.614  45.213  49.478  0.00  0.00     0.000 A 
ATOM     12  C   UNL d   1      62.009  45.137  50.037  0.00  0.00     0.002 A 
ATOM     13  C   UNL d   1      61.562  45.791  50.253  0.00  0.00     0.018 A 
ENDBRANCH   5   8
ENDBRANCH   1   2
BRANCH   1  14
ATOM     14  C   UNL d   1      60.213  49.687  51.341  0.00  0.00     0.130 C 
BRANCH  14  15
ATOM     15  N   UNL d   1      60.099  49.539  52.151  0.00  0.00    -0.155 NA
BRANCH  15  16
ATOM     16  S   UNL d   1      60.725  49.619  52.677  0.00  0.00     0.285 S 
ATOM     17  O   UNL d   1      61.317  49.595  51.984  0.00  0.00    -0.198 OA
ATOM     18  O   UNL d   1      61.293  49.692  53.179  0.00  0.00    -0.198 OA
BRANCH  16  19
ATOM     19  C   UNL d   1      60.192  49.640  53.308  0.00  0.00     0.105 A 
ATOM     20  C   UNL d   1      59.384  49.652  53.160  0.00  0.00     0.015 A 
ATOM     21  C   UNL d   1      58.845  49.674  53.789  0.00  0.00     0.023 A 
ATOM     22  C   UNL d   1      58.032  49.686  53.638  0.00  0.00     0.002 C 
ATOM     23  C   UNL d   1      59.125  49.684  54.572  0.00  0.00     0.094 A 
ATOM     24  C   UNL d   1      59.941  49.672  54.717  0.00  0.00     0.025 A 
ATOM     25  C   UNL d   1      60.472  49.650  54.091  0.00  0.00     0.015 A 
BRANCH  23  26
ATOM     26  O   UNL d   1      58.592  49.706  55.203  0.00  0.00    -0.328 OA
ATOM     27  C   UNL d   1      57.802  49.468  55.093  0.00  0.00     0.181 C 
ENDBRANCH  23  26
ENDBRANCH  16  19
ENDBRANCH  15  16
ENDBRANCH  14  15
ENDBRANCH   1  14
BRANCH   1  28
ATOM     28  C   UNL d   1      59.182  49.289  50.439  0.00  0.00     0.037 A 
ATOM     29  C   UNL d   1      58.549  49.533  50.908  0.00  0.00     0.100 A 
ATOM     30  N   UNL d   1      57.807  49.665  50.564  0.00  0.00    -0.242 NA
ATOM     31  C   UNL d   1      57.704  49.552  49.754  0.00  0.00     0.099 A 
ATOM     32  C   UNL d   1      58.335  49.310  49.289  0.00  0.00     0.021 A 
ATOM     33  C   UNL d   1      59.077  49.178  49.633  0.00  0.00     0.005 A 
ENDBRANCH   1  28
TORSDOF 8
ENDMDL
