MODEL 1
REMARK VINA RESULT:      -6.8      0.000      0.000
REMARK  5 active torsions:
REMARK  status: ('A' for Active; 'I' for Inactive)
REMARK    1  A    between atoms: C_10  and  C_3 
REMARK    2  A    between atoms: N_9  and  C_4 
REMARK    3  A    between atoms: C_16  and  N_12 
REMARK    4  A    between atoms: O_21  and  C_15 
REMARK    5  A    between atoms: C_20  and  C_16 
ROOT
ATOM      1  N   UNL d   1     -48.614  12.847  23.169  0.00  0.00    -0.196 N 
ATOM      2  C   UNL d   1     -49.037  13.545  23.071  0.00  0.00     0.167 A 
ATOM      3  C   UNL d   1     -49.802  13.570  23.231  0.00  0.00     0.057 A 
ATOM      4  C   UNL d   1     -47.827  12.853  22.995  0.00  0.00     0.152 A 
ATOM      5  N   UNL d   1     -49.765  12.225  23.591  0.00  0.00    -0.163 NA
ATOM      6  C   UNL d   1     -50.175  12.903  23.496  0.00  0.00     0.104 A 
ATOM      7  N   UNL d   1     -48.647  14.208  22.804  0.00  0.00    -0.227 NA
ATOM      8  C   UNL d   1     -47.456  13.500  22.736  0.00  0.00     0.057 A 
ATOM      9  C   UNL d   1     -47.872  14.189  22.640  0.00  0.00     0.086 A 
ATOM     10  C   UNL d   1     -50.986  12.920  23.669  0.00  0.00     0.023 C 
ATOM     11  C   UNL d   1     -47.479  14.872  22.367  0.00  0.00     0.021 C 
ENDROOT
BRANCH   4  12
ATOM     12  N   UNL d   1     -47.397  12.140  23.095  0.00  0.00    -0.286 N 
ATOM     13  C   UNL d   1     -46.700  12.388  23.460  0.00  0.00     0.101 A 
ATOM     14  C   UNL d   1     -46.110  11.833  23.658  0.00  0.00     0.100 A 
ATOM     15  N   UNL d   1     -46.212  11.024  23.492  0.00  0.00    -0.300 N 
ATOM     16  C   UNL d   1     -46.918  10.770  23.123  0.00  0.00     0.100 A 
ATOM     17  C   UNL d   1     -47.516  11.324  22.920  0.00  0.00     0.101 A 
BRANCH  15  18
ATOM     18  C   UNL d   1     -45.611  10.474  23.697  0.00  0.00     0.080 C 
BRANCH  18  19
ATOM     19  C   UNL d   1     -44.830  10.601  23.421  0.00  0.00     0.018 A 
ATOM     20  C   UNL d   1     -44.291   9.967  23.393  0.00  0.00     0.002 A 
ATOM     21  C   UNL d   1     -43.512  10.095  23.117  0.00  0.00     0.000 A 
ATOM     22  C   UNL d   1     -43.287  10.853  22.876  0.00  0.00     0.000 A 
ATOM     23  C   UNL d   1     -43.829  11.490  22.905  0.00  0.00     0.000 A 
ATOM     24  C   UNL d   1     -44.599  11.355  23.179  0.00  0.00     0.002 A 
ENDBRANCH  18  19
ENDBRANCH  15  18
ENDBRANCH   4  12
BRANCH   3  25
ATOM     25  C   UNL d   1     -50.215  14.254  23.135  0.00  0.00     0.027 A 
ATOM     26  C   UNL d   1     -50.653  14.376  22.466  0.00  0.00     0.094 A 
ATOM     27  C   UNL d   1     -51.064  15.056  22.370  0.00  0.00     0.024 A 
ATOM     28  C   UNL d   1     -51.039  15.617  22.944  0.00  0.00     0.002 A 
ATOM     29  C   UNL d   1     -50.605  15.492  23.603  0.00  0.00     0.000 A 
ATOM     30  C   UNL d   1     -50.200  14.823  23.697  0.00  0.00     0.002 A 
BRANCH  26  31
ATOM     31  O   UNL d   1     -50.673  13.786  21.875  0.00  0.00    -0.328 OA
ATOM     32  C   UNL d   1     -50.880  13.992  21.089  0.00  0.00     0.181 C 
ENDBRANCH  26  31
ENDBRANCH   3  25
TORSDOF 5
ENDMDL
MODEL 2
REMARK VINA RESULT:      -6.4      1.479      1.969
REMARK  5 active torsions:
REMARK  status: ('A' for Active; 'I' for Inactive)
REMARK    1  A    between atoms: C_10  and  C_3 
REMARK    2  A    between atoms: N_9  and  C_4 
REMARK    3  A    between atoms: C_16  and  N_12 
REMARK    4  A    between atoms: O_21  and  C_15 
REMARK    5  A    between atoms: C_20  and  C_16 
ROOT
ATOM      1  N   UNL d   1     -47.567  13.004  22.833  0.00  0.00    -0.196 N 
ATOM      2  C   UNL d   1     -48.284  13.406  22.856  0.00  0.00     0.167 A 
ATOM      3  C   UNL d   1     -48.950  13.020  22.995  0.00  0.00     0.057 A 
ATOM      4  C   UNL d   1     -46.899  13.430  22.688  0.00  0.00     0.152 A 
ATOM      5  N   UNL d   1     -48.233  11.830  23.096  0.00  0.00    -0.163 NA
ATOM      6  C   UNL d   1     -48.928  12.221  23.117  0.00  0.00     0.104 A 
ATOM      7  N   UNL d   1     -48.289  14.211  22.731  0.00  0.00    -0.227 NA
ATOM      8  C   UNL d   1     -46.911  14.210  22.567  0.00  0.00     0.057 A 
ATOM      9  C   UNL d   1     -47.617  14.607  22.589  0.00  0.00     0.086 A 
ATOM     10  C   UNL d   1     -49.630  11.804  23.266  0.00  0.00     0.023 C 
ATOM     11  C   UNL d   1     -47.631  15.431  22.462  0.00  0.00     0.021 C 
ENDROOT
BRANCH   4  12
ATOM     12  N   UNL d   1     -46.168  13.019  22.665  0.00  0.00    -0.286 N 
ATOM     13  C   UNL d   1     -45.932  13.092  21.878  0.00  0.00     0.101 A 
ATOM     14  C   UNL d   1     -45.216  12.751  21.622  0.00  0.00     0.100 A 
ATOM     15  N   UNL d   1     -44.728  12.334  22.151  0.00  0.00    -0.300 N 
ATOM     16  C   UNL d   1     -44.965  12.258  22.949  0.00  0.00     0.100 A 
ATOM     17  C   UNL d   1     -45.685  12.599  23.215  0.00  0.00     0.101 A 
BRANCH  15  18
ATOM     18  C   UNL d   1     -44.008  11.994  21.881  0.00  0.00     0.080 C 
BRANCH  18  19
ATOM     19  C   UNL d   1     -43.386  12.498  21.634  0.00  0.00     0.018 A 
ATOM     20  C   UNL d   1     -42.710  12.587  22.112  0.00  0.00     0.002 A 
ATOM     21  C   UNL d   1     -42.089  13.091  21.865  0.00  0.00     0.000 A 
ATOM     22  C   UNL d   1     -42.157  13.495  21.147  0.00  0.00     0.000 A 
ATOM     23  C   UNL d   1     -42.837  13.405  20.668  0.00  0.00     0.000 A 
ATOM     24  C   UNL d   1     -43.447  12.904  20.920  0.00  0.00     0.002 A 
ENDBRANCH  18  19
ENDBRANCH  15  18
ENDBRANCH   4  12
BRANCH   3  25
ATOM     25  C   UNL d   1     -49.651  13.415  23.017  0.00  0.00     0.027 A 
ATOM     26  C   UNL d   1     -50.136  13.421  22.368  0.00  0.00     0.094 A 
ATOM     27  C   UNL d   1     -50.834  13.814  22.390  0.00  0.00     0.024 A 
ATOM     28  C   UNL d   1     -51.049  14.200  23.060  0.00  0.00     0.002 A 
ATOM     29  C   UNL d   1     -50.567  14.190  23.697  0.00  0.00     0.000 A 
ATOM     30  C   UNL d   1     -49.880  13.804  23.676  0.00  0.00     0.002 A 
BRANCH  26  31
ATOM     31  O   UNL d   1     -49.902  13.017  21.677  0.00  0.00    -0.328 OA
ATOM     32  C   UNL d   1     -50.391  13.041  20.996  0.00  0.00     0.181 C 
ENDBRANCH  26  31
ENDBRANCH   3  25
TORSDOF 5
ENDMDL
