MODEL 1
REMARK VINA RESULT:      14.8      0.000      0.000
REMARK  0 active torsions:
REMARK  status: ('A' for Active; 'I' for Inactive)
ROOT
ATOM      1  C   UNL d   1     -51.817  25.288  33.306  0.00  0.00     0.150 A 
ATOM      2  N   UNL d   1     -50.998  25.149  33.306  0.00  0.00    -0.275 N 
ATOM      3  N   UNL d   1     -51.952  26.090  33.306  0.00  0.00    -0.227 NA
ATOM      4  C   UNL d   1     -50.656  24.416  33.306  0.00  0.00     0.149 A 
ATOM      5  N   UNL d   1     -51.148  23.756  33.306  0.00  0.00    -0.228 NA
ATOM      6  C   UNL d   1     -52.296  24.615  33.306  0.00  0.00     0.052 A 
ATOM      7  C   UNL d   1     -50.656  25.913  33.306  0.00  0.00     0.084 A 
ATOM      8  C   UNL d   1     -51.957  23.840  33.306  0.00  0.00     0.086 A 
ATOM      9  C   UNL d   1     -51.210  26.466  33.306  0.00  0.00     0.099 A 
ATOM     10  C   UNL d   1     -49.841  24.298  33.306  0.00  0.00     0.041 C 
ATOM     11  C   UNL d   1     -53.126  24.713  33.306  0.00  0.00     0.004 A 
ATOM     12  C   UNL d   1     -49.843  26.138  33.306  0.00  0.00     0.019 A 
ATOM     13  C   UNL d   1     -52.455  23.188  33.306  0.00  0.00     0.019 A 
ATOM     14  C   UNL d   1     -50.998  27.268  33.306  0.00  0.00     0.021 A 
ATOM     15  C   UNL d   1     -53.605  24.040  33.306  0.00  0.00     0.000 A 
ATOM     16  C   UNL d   1     -49.648  26.957  33.306  0.00  0.00     0.002 A 
ATOM     17  C   UNL d   1     -50.203  27.484  33.306  0.00  0.00     0.002 A 
ATOM     18  C   UNL d   1     -53.274  23.289  33.306  0.00  0.00     0.002 A 
ENDROOT
TORSDOF 0
ENDMDL
