MODEL 1
REMARK VINA RESULT:      -5.6      0.000      0.000
REMARK  6 active torsions:
REMARK  status: ('A' for Active; 'I' for Inactive)
REMARK    1  A    between atoms: C_6  and  N_3 
REMARK    2  A    between atoms: C_14  and  C_6 
REMARK    3  A    between atoms: C_7  and  O_8 
REMARK    4  A    between atoms: O_8  and  C_11 
REMARK    5  A    between atoms: C_11  and  C_15 
REMARK    6  A    between atoms: C_15  and  C_14 
ROOT
ATOM      1  C   UNL d   1     -41.324-122.816 -50.495  0.00  0.00     0.082 C 
ENDROOT
BRANCH   1   2
ATOM      2  N   UNL d   1     -41.810-122.877 -49.829  0.00  0.00    -0.287 N 
ATOM      3  C   UNL d   1     -42.596-122.595 -49.948  0.00  0.00     0.183 A 
ATOM      4  N   UNL d   1     -43.020-122.693 -49.221  0.00  0.00    -0.224 NA
ATOM      5  C   UNL d   1     -42.499-123.033 -48.660  0.00  0.00     0.099 A 
ATOM      6  C   UNL d   1     -41.751-123.145 -49.040  0.00  0.00     0.083 A 
ATOM      7  C   UNL d   1     -42.602-123.251 -47.871  0.00  0.00     0.021 A 
ATOM      8  C   UNL d   1     -41.123-123.479 -48.604  0.00  0.00     0.019 A 
ATOM      9  C   UNL d   1     -41.232-123.697 -47.811  0.00  0.00     0.002 A 
ATOM     10  C   UNL d   1     -41.977-123.580 -47.448  0.00  0.00     0.002 A 
ENDBRANCH   1   2
BRANCH   1  11
ATOM     11  C   UNL d   1     -41.639-122.571 -51.215  0.00  0.00     0.021 C 
BRANCH  11  12
ATOM     12  C   UNL d   1     -41.160-122.490 -51.866  0.00  0.00     0.028 C 
BRANCH  12  13
ATOM     13  C   UNL d   1     -41.470-122.577 -52.636  0.00  0.00     0.123 C 
BRANCH  13  14
ATOM     14  O   UNL d   1     -41.203-122.092 -53.243  0.00  0.00    -0.305 OA
BRANCH  14  15
ATOM     15  C   UNL d   1     -41.535-122.155 -53.995  0.00  0.00     0.100 A 
ATOM     16  C   UNL d   1     -42.167-121.665 -54.206  0.00  0.00     0.025 A 
ATOM     17  C   UNL d   1     -42.490-121.732 -54.950  0.00  0.00     0.002 A 
ATOM     18  C   UNL d   1     -42.202-122.275 -55.489  0.00  0.00     0.000 A 
ATOM     19  C   UNL d   1     -41.568-122.767 -55.276  0.00  0.00     0.002 A 
ATOM     20  C   UNL d   1     -41.234-122.706 -54.527  0.00  0.00     0.025 A 
ENDBRANCH  14  15
ENDBRANCH  13  14
ENDBRANCH  12  13
ENDBRANCH  11  12
ENDBRANCH   1  11
TORSDOF 6
ENDMDL
MODEL 2
REMARK VINA RESULT:      -5.4      1.556      5.536
REMARK  6 active torsions:
REMARK  status: ('A' for Active; 'I' for Inactive)
REMARK    1  A    between atoms: C_6  and  N_3 
REMARK    2  A    between atoms: C_14  and  C_6 
REMARK    3  A    between atoms: C_7  and  O_8 
REMARK    4  A    between atoms: O_8  and  C_11 
REMARK    5  A    between atoms: C_11  and  C_15 
REMARK    6  A    between atoms: C_15  and  C_14 
ROOT
ATOM      1  C   UNL d   1     -41.231-122.365 -52.470  0.00  0.00     0.082 C 
ENDROOT
BRANCH   1   2
ATOM      2  N   UNL d   1     -41.360-122.662 -53.231  0.00  0.00    -0.287 N 
ATOM      3  C   UNL d   1     -41.123-123.465 -53.332  0.00  0.00     0.183 A 
ATOM      4  N   UNL d   1     -41.289-123.686 -54.133  0.00  0.00    -0.224 NA
ATOM      5  C   UNL d   1     -41.626-123.024 -54.520  0.00  0.00     0.099 A 
ATOM      6  C   UNL d   1     -41.668-122.392 -53.959  0.00  0.00     0.083 A 
ATOM      7  C   UNL d   1     -41.895-122.914 -55.292  0.00  0.00     0.021 A 
ATOM      8  C   UNL d   1     -41.985-121.659 -54.199  0.00  0.00     0.019 A 
ATOM      9  C   UNL d   1     -42.254-121.553 -54.978  0.00  0.00     0.002 A 
ATOM     10  C   UNL d   1     -42.206-122.187 -55.522  0.00  0.00     0.002 A 
ENDBRANCH   1   2
BRANCH   1  11
ATOM     11  C   UNL d   1     -41.261-122.867 -51.819  0.00  0.00     0.021 C 
BRANCH  11  12
ATOM     12  C   UNL d   1     -41.208-122.567 -51.066  0.00  0.00     0.028 C 
BRANCH  12  13
ATOM     13  C   UNL d   1     -41.530-122.983 -50.419  0.00  0.00     0.123 C 
BRANCH  13  14
ATOM     14  O   UNL d   1     -41.784-122.574 -49.753  0.00  0.00    -0.305 OA
BRANCH  14  15
ATOM     15  C   UNL d   1     -42.053-122.990 -49.094  0.00  0.00     0.100 A 
ATOM     16  C   UNL d   1     -41.525-123.185 -48.488  0.00  0.00     0.025 A 
ATOM     17  C   UNL d   1     -41.797-123.595 -47.840  0.00  0.00     0.002 A 
ATOM     18  C   UNL d   1     -42.581-123.817 -47.780  0.00  0.00     0.000 A 
ATOM     19  C   UNL d   1     -43.111-123.621 -48.388  0.00  0.00     0.002 A 
ATOM     20  C   UNL d   1     -42.846-123.207 -49.046  0.00  0.00     0.025 A 
ENDBRANCH  14  15
ENDBRANCH  13  14
ENDBRANCH  12  13
ENDBRANCH  11  12
ENDBRANCH   1  11
TORSDOF 6
ENDMDL
