MODEL 1
REMARK VINA RESULT:      21.2      0.000      0.000
REMARK  4 active torsions:
REMARK  status: ('A' for Active; 'I' for Inactive)
REMARK    1  A    between atoms: C_7  and  C_2 
REMARK    2  A    between atoms: C_12  and  C_4 
REMARK    3  A    between atoms: C_11  and  C_7 
REMARK    4  A    between atoms: N_18  and  C_12 
ROOT
ATOM      1  C   UNL d   1      46.489 -18.382  42.891  0.00  0.00     0.108 A 
ATOM      2  C   UNL d   1      46.388 -17.752  44.070  0.00  0.00     0.141 A 
ATOM      3  C   UNL d   1      46.453 -18.955  43.483  0.00  0.00     0.064 A 
ATOM      4  C   UNL d   1      46.553 -18.608  42.102  0.00  0.00     0.079 A 
ATOM      5  O   UNL d   1      46.449 -17.636  43.251  0.00  0.00    -0.304 OA
ATOM      6  C   UNL d   1      46.390 -18.565  44.211  0.00  0.00     0.220 A 
ATOM      7  C   UNL d   1      46.481 -19.757  43.290  0.00  0.00     0.008 A 
ATOM      8  C   UNL d   1      46.582 -19.406  41.905  0.00  0.00     0.199 A 
ATOM      9  C   UNL d   1      46.545 -19.982  42.500  0.00  0.00     0.042 A 
ATOM     10  O   UNL d   1      46.339 -18.927  44.955  0.00  0.00    -0.284 OA
ATOM     11  O   UNL d   1      46.646 -19.635  41.119  0.00  0.00    -0.286 OA
ATOM     12  C   UNL d   1      46.445 -20.330  43.882  0.00  0.00     0.000 C 
ENDROOT
BRANCH   2  13
ATOM     13  C   UNL d   1      46.334 -17.159  44.641  0.00  0.00     0.053 C 
BRANCH  13  14
ATOM     14  C   UNL d   1      45.914 -16.462  44.474  0.00  0.00     0.102 A 
ATOM     15  O   UNL d   1      46.008 -15.989  43.808  0.00  0.00    -0.305 OA
ATOM     16  C   UNL d   1      45.481 -15.359  43.872  0.00  0.00     0.123 A 
ATOM     17  C   UNL d   1      45.064 -15.447  44.575  0.00  0.00     0.029 A 
ATOM     18  C   UNL d   1      45.336 -16.135  44.947  0.00  0.00     0.027 A 
ENDBRANCH  13  14
ENDBRANCH   2  13
BRANCH   4  19
ATOM     19  C   UNL d   1      46.590 -18.036  41.507  0.00  0.00     0.086 C 
BRANCH  19  20
ATOM     20  N   UNL d   1      46.135 -18.121  40.828  0.00  0.00    -0.300 N 
ATOM     21  C   UNL d   1      45.333 -17.928  40.836  0.00  0.00     0.100 C 
ATOM     22  C   UNL d   1      46.478 -18.401  40.124  0.00  0.00     0.100 C 
ENDBRANCH  19  20
ENDBRANCH   4  19
TORSDOF 4
ENDMDL
