MODEL 1
REMARK VINA RESULT:      -7.9      0.000      0.000
REMARK  5 active torsions:
REMARK  status: ('A' for Active; 'I' for Inactive)
REMARK    1  A    between atoms: C_3  and  S_1 
REMARK    2  A    between atoms: N_2  and  C_4 
REMARK    3  A    between atoms: N_5  and  C_16 
REMARK    4  A    between atoms: C_11  and  N_5 
REMARK    5  A    between atoms: C_17  and  C_11 
ROOT
ATOM      1  N   UNL d   1      51.942  34.452  53.142  0.00  0.00    -0.244 NA
ENDROOT
BRANCH   1   2
ATOM      2  C   UNL d   1      52.584  34.234  53.620  0.00  0.00     0.082 A 
ATOM      3  C   UNL d   1      53.026  33.575  53.445  0.00  0.00     0.020 A 
ATOM      4  C   UNL d   1      53.665  33.357  53.919  0.00  0.00     0.015 A 
ATOM      5  C   UNL d   1      53.845  33.823  54.574  0.00  0.00     0.107 A 
ATOM      6  C   UNL d   1      53.403  34.483  54.750  0.00  0.00     0.015 A 
ATOM      7  C   UNL d   1      52.764  34.702  54.276  0.00  0.00     0.020 A 
BRANCH   5   8
ATOM      8  S   UNL d   1      54.490  33.607  55.057  0.00  0.00     0.302 S 
ATOM      9  O   UNL d   1      54.825  34.357  54.938  0.00  0.00    -0.197 OA
ATOM     10  O   UNL d   1      55.135  33.403  55.535  0.00  0.00    -0.197 OA
ATOM     11  N   UNL d   1      54.157  32.865  55.174  0.00  0.00    -0.043 N 
ENDBRANCH   5   8
ENDBRANCH   1   2
BRANCH   1  12
ATOM     12  C   UNL d   1      51.334  33.931  53.001  0.00  0.00     0.099 C 
BRANCH  12  13
ATOM     13  C   UNL d   1      50.651  34.168  52.599  0.00  0.00     0.019 A 
ATOM     14  C   UNL d   1      50.621  34.052  51.771  0.00  0.00     0.003 A 
ATOM     15  C   UNL d   1      49.937  34.289  51.369  0.00  0.00     0.024 A 
ATOM     16  C   UNL d   1      49.291  34.637  51.778  0.00  0.00     0.127 A 
ATOM     17  C   UNL d   1      49.341  34.740  52.582  0.00  0.00     0.024 A 
ATOM     18  C   UNL d   1      50.005  34.516  53.008  0.00  0.00     0.003 A 
BRANCH  16  19
ATOM     19  N   UNL d   1      48.604  34.878  51.391  0.00  0.00    -0.114 N 
ATOM     20  O   UNL d   1      48.344  34.460  50.716  0.00  0.00    -0.532 OA
ATOM     21  O   UNL d   1      48.180  35.532  51.677  0.00  0.00    -0.532 OA
ENDBRANCH  16  19
ENDBRANCH  12  13
ENDBRANCH   1  12
TORSDOF 5
ENDMDL
MODEL 2
REMARK VINA RESULT:      -7.5      3.125      4.455
REMARK  5 active torsions:
REMARK  status: ('A' for Active; 'I' for Inactive)
REMARK    1  A    between atoms: C_3  and  S_1 
REMARK    2  A    between atoms: N_2  and  C_4 
REMARK    3  A    between atoms: N_5  and  C_16 
REMARK    4  A    between atoms: C_11  and  N_5 
REMARK    5  A    between atoms: C_17  and  C_11 
ROOT
ATOM      1  N   UNL d   1      53.744  32.734  53.673  0.00  0.00    -0.244 NA
ENDROOT
BRANCH   1   2
ATOM      2  C   UNL d   1      53.557  33.513  53.893  0.00  0.00     0.082 A 
ATOM      3  C   UNL d   1      53.183  34.012  53.372  0.00  0.00     0.020 A 
ATOM      4  C   UNL d   1      52.997  34.786  53.589  0.00  0.00     0.015 A 
ATOM      5  C   UNL d   1      53.199  35.041  54.347  0.00  0.00     0.107 A 
ATOM      6  C   UNL d   1      53.573  34.541  54.868  0.00  0.00     0.015 A 
ATOM      7  C   UNL d   1      53.760  33.767  54.652  0.00  0.00     0.020 A 
BRANCH   5   8
ATOM      8  S   UNL d   1      53.012  35.822  54.571  0.00  0.00     0.302 S 
ATOM      9  O   UNL d   1      53.749  36.076  54.286  0.00  0.00    -0.197 OA
ATOM     10  O   UNL d   1      52.838  36.602  54.790  0.00  0.00    -0.197 OA
ATOM     11  N   UNL d   1      52.283  35.569  54.854  0.00  0.00    -0.043 N 
ENDBRANCH   5   8
ENDBRANCH   1   2
BRANCH   1  12
ATOM     12  C   UNL d   1      53.235  32.301  53.211  0.00  0.00     0.099 C 
BRANCH  12  13
ATOM     13  C   UNL d   1      53.156  31.483  53.311  0.00  0.00     0.019 A 
ATOM     14  C   UNL d   1      52.426  31.130  53.109  0.00  0.00     0.003 A 
ATOM     15  C   UNL d   1      52.347  30.312  53.209  0.00  0.00     0.024 A 
ATOM     16  C   UNL d   1      52.981  29.848  53.505  0.00  0.00     0.127 A 
ATOM     17  C   UNL d   1      53.682  30.210  53.696  0.00  0.00     0.024 A 
ATOM     18  C   UNL d   1      53.791  31.019  53.607  0.00  0.00     0.003 A 
BRANCH  16  19
ATOM     19  N   UNL d   1      52.918  29.032  53.610  0.00  0.00    -0.114 N 
ATOM     20  O   UNL d   1      53.185  28.688  54.323  0.00  0.00    -0.532 OA
ATOM     21  O   UNL d   1      52.590  28.565  53.008  0.00  0.00    -0.532 OA
ENDBRANCH  16  19
ENDBRANCH  12  13
ENDBRANCH   1  12
TORSDOF 5
ENDMDL
MODEL 3
REMARK VINA RESULT:      -7.4      1.567      5.354
REMARK  5 active torsions:
REMARK  status: ('A' for Active; 'I' for Inactive)
REMARK    1  A    between atoms: C_3  and  S_1 
REMARK    2  A    between atoms: N_2  and  C_4 
REMARK    3  A    between atoms: N_5  and  C_16 
REMARK    4  A    between atoms: C_11  and  N_5 
REMARK    5  A    between atoms: C_17  and  C_11 
ROOT
ATOM      1  N   UNL d   1      51.549  33.859  53.028  0.00  0.00    -0.244 NA
ENDROOT
BRANCH   1   2
ATOM      2  C   UNL d   1      50.851  34.114  52.658  0.00  0.00     0.082 A 
ATOM      3  C   UNL d   1      50.228  34.396  53.098  0.00  0.00     0.020 A 
ATOM      4  C   UNL d   1      49.534  34.650  52.731  0.00  0.00     0.015 A 
ATOM      5  C   UNL d   1      49.487  34.610  51.910  0.00  0.00     0.107 A 
ATOM      6  C   UNL d   1      50.110  34.328  51.470  0.00  0.00     0.015 A 
ATOM      7  C   UNL d   1      50.804  34.074  51.835  0.00  0.00     0.020 A 
BRANCH   5   8
ATOM      8  S   UNL d   1      48.787  34.866  51.534  0.00  0.00     0.302 S 
ATOM      9  O   UNL d   1      48.578  35.287  52.218  0.00  0.00    -0.197 OA
ATOM     10  O   UNL d   1      48.089  35.125  51.171  0.00  0.00    -0.197 OA
ATOM     11  N   UNL d   1      48.995  34.447  50.858  0.00  0.00    -0.043 N 
ENDBRANCH   5   8
ENDBRANCH   1   2
BRANCH   1  12
ATOM     12  C   UNL d   1      52.162  34.377  53.159  0.00  0.00     0.099 C 
BRANCH  12  13
ATOM     13  C   UNL d   1      52.790  34.179  53.659  0.00  0.00     0.019 A 
ATOM     14  C   UNL d   1      52.946  34.678  54.313  0.00  0.00     0.003 A 
ATOM     15  C   UNL d   1      53.575  34.480  54.813  0.00  0.00     0.024 A 
ATOM     16  C   UNL d   1      54.045  33.798  54.671  0.00  0.00     0.127 A 
ATOM     17  C   UNL d   1      53.877  33.327  54.031  0.00  0.00     0.024 A 
ATOM     18  C   UNL d   1      53.260  33.497  53.517  0.00  0.00     0.003 A 
BRANCH  16  19
ATOM     19  N   UNL d   1      54.675  33.588  55.160  0.00  0.00    -0.114 N 
ATOM     20  O   UNL d   1      54.610  32.910  55.646  0.00  0.00    -0.532 OA
ATOM     21  O   UNL d   1      55.364  34.050  55.165  0.00  0.00    -0.532 OA
ENDBRANCH  16  19
ENDBRANCH  12  13
ENDBRANCH   1  12
TORSDOF 5
ENDMDL
MODEL 4
REMARK VINA RESULT:      -7.4      1.707      2.214
REMARK  5 active torsions:
REMARK  status: ('A' for Active; 'I' for Inactive)
REMARK    1  A    between atoms: C_3  and  S_1 
REMARK    2  A    between atoms: N_2  and  C_4 
REMARK    3  A    between atoms: N_5  and  C_16 
REMARK    4  A    between atoms: C_11  and  N_5 
REMARK    5  A    between atoms: C_17  and  C_11 
ROOT
ATOM      1  N   UNL d   1      50.221  34.413  52.851  0.00  0.00    -0.244 NA
ENDROOT
BRANCH   1   2
ATOM      2  C   UNL d   1      50.933  33.997  52.944  0.00  0.00     0.082 A 
ATOM      3  C   UNL d   1      51.642  34.338  52.738  0.00  0.00     0.020 A 
ATOM      4  C   UNL d   1      52.351  33.926  52.830  0.00  0.00     0.015 A 
ATOM      5  C   UNL d   1      52.323  33.160  53.135  0.00  0.00     0.107 A 
ATOM      6  C   UNL d   1      51.614  32.820  53.340  0.00  0.00     0.015 A 
ATOM      7  C   UNL d   1      50.905  33.231  53.249  0.00  0.00     0.020 A 
BRANCH   5   8
ATOM      8  S   UNL d   1      53.037  32.739  53.229  0.00  0.00     0.302 S 
ATOM      9  O   UNL d   1      52.848  32.277  52.566  0.00  0.00    -0.197 OA
ATOM     10  O   UNL d   1      53.743  32.314  53.313  0.00  0.00    -0.197 OA
ATOM     11  N   UNL d   1      53.223  33.198  53.885  0.00  0.00    -0.043 N 
ENDBRANCH   5   8
ENDBRANCH   1   2
BRANCH   1  12
ATOM     12  C   UNL d   1      49.854  34.450  52.127  0.00  0.00     0.099 C 
BRANCH  12  13
ATOM     13  C   UNL d   1      49.119  34.820  52.037  0.00  0.00     0.019 A 
ATOM     14  C   UNL d   1      48.712  34.717  51.314  0.00  0.00     0.003 A 
ATOM     15  C   UNL d   1      47.976  35.086  51.224  0.00  0.00     0.024 A 
ATOM     16  C   UNL d   1      47.646  35.551  51.840  0.00  0.00     0.127 A 
ATOM     17  C   UNL d   1      48.058  35.639  52.535  0.00  0.00     0.024 A 
ATOM     18  C   UNL d   1      48.789  35.285  52.654  0.00  0.00     0.003 A 
BRANCH  16  19
ATOM     19  N   UNL d   1      46.915  35.925  51.766  0.00  0.00    -0.114 N 
ATOM     20  O   UNL d   1      46.825  36.709  52.041  0.00  0.00    -0.532 OA
ATOM     21  O   UNL d   1      46.280  35.519  51.420  0.00  0.00    -0.532 OA
ENDBRANCH  16  19
ENDBRANCH  12  13
ENDBRANCH   1  12
TORSDOF 5
ENDMDL
MODEL 5
REMARK VINA RESULT:      -7.3      3.212      4.265
REMARK  5 active torsions:
REMARK  status: ('A' for Active; 'I' for Inactive)
REMARK    1  A    between atoms: C_3  and  S_1 
REMARK    2  A    between atoms: N_2  and  C_4 
REMARK    3  A    between atoms: N_5  and  C_16 
REMARK    4  A    between atoms: C_11  and  N_5 
REMARK    5  A    between atoms: C_17  and  C_11 
ROOT
ATOM      1  N   UNL d   1      53.177  32.545  53.189  0.00  0.00    -0.244 NA
ENDROOT
BRANCH   1   2
ATOM      2  C   UNL d   1      53.135  31.724  53.301  0.00  0.00     0.082 A 
ATOM      3  C   UNL d   1      53.785  31.306  53.552  0.00  0.00     0.020 A 
ATOM      4  C   UNL d   1      53.745  30.489  53.663  0.00  0.00     0.015 A 
ATOM      5  C   UNL d   1      53.030  30.107  53.515  0.00  0.00     0.107 A 
ATOM      6  C   UNL d   1      52.379  30.525  53.264  0.00  0.00     0.015 A 
ATOM      7  C   UNL d   1      52.418  31.341  53.152  0.00  0.00     0.020 A 
BRANCH   5   8
ATOM      8  S   UNL d   1      52.984  29.282  53.626  0.00  0.00     0.302 S 
ATOM      9  O   UNL d   1      52.591  29.209  52.899  0.00  0.00    -0.197 OA
ATOM     10  O   UNL d   1      52.933  28.462  53.726  0.00  0.00    -0.197 OA
ATOM     11  N   UNL d   1      53.373  29.355  54.346  0.00  0.00    -0.043 N 
ENDBRANCH   5   8
ENDBRANCH   1   2
BRANCH   1  12
ATOM     12  C   UNL d   1      53.681  32.999  53.637  0.00  0.00     0.099 C 
BRANCH  12  13
ATOM     13  C   UNL d   1      53.473  33.765  53.871  0.00  0.00     0.019 A 
ATOM     14  C   UNL d   1      53.687  34.013  54.641  0.00  0.00     0.003 A 
ATOM     15  C   UNL d   1      53.479  34.779  54.876  0.00  0.00     0.024 A 
ATOM     16  C   UNL d   1      53.065  35.295  54.359  0.00  0.00     0.127 A 
ATOM     17  C   UNL d   1      52.867  35.034  53.615  0.00  0.00     0.024 A 
ATOM     18  C   UNL d   1      53.059  34.280  53.353  0.00  0.00     0.003 A 
BRANCH  16  19
ATOM     19  N   UNL d   1      52.851  36.060  54.578  0.00  0.00    -0.114 N 
ATOM     20  O   UNL d   1      53.417  36.673  54.535  0.00  0.00    -0.532 OA
ATOM     21  O   UNL d   1      52.078  36.211  54.839  0.00  0.00    -0.532 OA
ENDBRANCH  16  19
ENDBRANCH  12  13
ENDBRANCH   1  12
TORSDOF 5
ENDMDL
MODEL 6
REMARK VINA RESULT:      -7.2      2.455      5.642
REMARK  5 active torsions:
REMARK  status: ('A' for Active; 'I' for Inactive)
REMARK    1  A    between atoms: C_3  and  S_1 
REMARK    2  A    between atoms: N_2  and  C_4 
REMARK    3  A    between atoms: N_5  and  C_16 
REMARK    4  A    between atoms: C_11  and  N_5 
REMARK    5  A    between atoms: C_17  and  C_11 
ROOT
ATOM      1  N   UNL d   1      49.775  34.448  52.087  0.00  0.00    -0.244 NA
ENDROOT
BRANCH   1   2
ATOM      2  C   UNL d   1      49.038  34.823  52.019  0.00  0.00     0.082 A 
ATOM      3  C   UNL d   1      48.734  35.254  52.637  0.00  0.00     0.020 A 
ATOM      4  C   UNL d   1      48.002  35.628  52.572  0.00  0.00     0.015 A 
ATOM      5  C   UNL d   1      47.585  35.554  51.864  0.00  0.00     0.107 A 
ATOM      6  C   UNL d   1      47.889  35.123  51.245  0.00  0.00     0.015 A 
ATOM      7  C   UNL d   1      48.622  34.749  51.310  0.00  0.00     0.020 A 
BRANCH   5   8
ATOM      8  S   UNL d   1      46.844  35.930  51.792  0.00  0.00     0.302 S 
ATOM      9  O   UNL d   1      46.527  35.234  51.468  0.00  0.00    -0.197 OA
ATOM     10  O   UNL d   1      46.104  36.292  51.716  0.00  0.00    -0.197 OA
ATOM     11  N   UNL d   1      47.159  36.617  52.113  0.00  0.00    -0.043 N 
ENDBRANCH   5   8
ENDBRANCH   1   2
BRANCH   1  12
ATOM     12  C   UNL d   1      50.191  34.473  52.785  0.00  0.00     0.099 C 
BRANCH  12  13
ATOM     13  C   UNL d   1      50.891  34.044  52.882  0.00  0.00     0.019 A 
ATOM     14  C   UNL d   1      51.610  34.408  52.656  0.00  0.00     0.003 A 
ATOM     15  C   UNL d   1      52.312  33.978  52.754  0.00  0.00     0.024 A 
ATOM     16  C   UNL d   1      52.305  33.200  53.070  0.00  0.00     0.127 A 
ATOM     17  C   UNL d   1      51.596  32.866  53.283  0.00  0.00     0.024 A 
ATOM     18  C   UNL d   1      50.884  33.266  53.199  0.00  0.00     0.003 A 
BRANCH  16  19
ATOM     19  N   UNL d   1      52.994  32.760  53.173  0.00  0.00    -0.114 N 
ATOM     20  O   UNL d   1      53.126  32.086  52.697  0.00  0.00    -0.532 OA
ATOM     21  O   UNL d   1      53.547  32.993  53.746  0.00  0.00    -0.532 OA
ENDBRANCH  16  19
ENDBRANCH  12  13
ENDBRANCH   1  12
TORSDOF 5
ENDMDL
