MODEL 1
REMARK VINA RESULT:      46.9      0.000      0.000
REMARK  4 active torsions:
REMARK  status: ('A' for Active; 'I' for Inactive)
REMARK    1  A    between atoms: C_6  and  N_1 
REMARK    2  A    between atoms: C_12  and  C_6 
REMARK    3  A    between atoms: O_18  and  C_7 
REMARK    4  A    between atoms: O_19  and  C_10 
ROOT
ATOM      1  N   UNL d   1     -51.726  24.954  33.320  0.00  0.00    -0.251 N 
ATOM      2  C   UNL d   1     -51.110  24.390  33.332  0.00  0.00     0.378 A 
ATOM      3  C   UNL d   1     -52.446  24.544  33.326  0.00  0.00     0.092 A 
ATOM      4  O   UNL d   1     -51.452  23.635  33.345  0.00  0.00    -0.258 OA
ATOM      5  C   UNL d   1     -52.276  23.731  33.341  0.00  0.00     0.121 A 
ATOM      6  O   UNL d   1     -50.305  24.562  33.332  0.00  0.00    -0.237 OA
ATOM      7  C   UNL d   1     -53.223  24.810  33.318  0.00  0.00     0.020 A 
ATOM      8  C   UNL d   1     -52.902  23.188  33.348  0.00  0.00     0.026 A 
ATOM      9  C   UNL d   1     -53.838  24.261  33.326  0.00  0.00     0.002 A 
ATOM     10  C   UNL d   1     -53.678  23.453  33.341  0.00  0.00     0.002 A 
ATOM     11  C   UNL d   1     -54.621  24.534  33.319  0.00  0.00     0.000 C 
ENDROOT
BRANCH   1  12
ATOM     12  C   UNL d   1     -51.673  25.778  33.306  0.00  0.00     0.085 C 
BRANCH  12  13
ATOM     13  C   UNL d   1     -51.193  26.167  33.853  0.00  0.00     0.020 A 
ATOM     14  C   UNL d   1     -50.559  26.609  33.591  0.00  0.00     0.028 A 
ATOM     15  C   UNL d   1     -50.076  26.999  34.126  0.00  0.00     0.116 A 
ATOM     16  C   UNL d   1     -50.238  26.941  34.937  0.00  0.00     0.116 A 
ATOM     17  C   UNL d   1     -50.877  26.496  35.199  0.00  0.00     0.026 A 
ATOM     18  C   UNL d   1     -51.357  26.107  34.652  0.00  0.00     0.004 A 
BRANCH  15  19
ATOM     19  O   UNL d   1     -49.441  27.443  33.867  0.00  0.00    -0.326 OA
ATOM     20  C   UNL d   1     -48.943  26.902  33.493  0.00  0.00     0.181 C 
ENDBRANCH  15  19
BRANCH  16  21
ATOM     21  O   UNL d   1     -49.756  27.331  35.478  0.00  0.00    -0.326 OA
ATOM     22  C   UNL d   1     -49.909  27.265  36.279  0.00  0.00     0.181 C 
ENDBRANCH  16  21
ENDBRANCH  12  13
ENDBRANCH   1  12
TORSDOF 4
ENDMDL
