MODEL 1
REMARK VINA RESULT:      37.4      0.000      0.000
REMARK  4 active torsions:
REMARK  status: ('A' for Active; 'I' for Inactive)
REMARK    1  A    between atoms: N_4  and  C_2 
REMARK       I    between atoms: C_3  and  N_4 
REMARK    2  A    between atoms: C_10  and  C_3 
REMARK    3  A    between atoms: C_12  and  N_4 
REMARK    4  A    between atoms: O_18  and  C_15 
ROOT
ATOM      1  C   UNL d   1      14.187  14.326  -2.652  0.00  0.00     0.265 C 
ATOM      2  N   UNL d   1      14.665  14.231  -1.500  0.00  0.00    -0.274 N 
ATOM      3  O   UNL d   1      14.237  15.071  -2.938  0.00  0.00    -0.267 OA
ENDROOT
BRANCH   2   4
ATOM      4  C   UNL d   1      14.637  13.515  -1.178  0.00  0.00     0.079 A 
ATOM      5  C   UNL d   1      14.123  13.271  -0.636  0.00  0.00     0.116 A 
ATOM      6  S   UNL d   1      14.288  12.526  -0.466  0.00  0.00     0.213 S 
ATOM      7  C   UNL d   1      14.904  12.312  -0.904  0.00  0.00     0.100 A 
ATOM      8  O   UNL d   1      14.453  11.779  -0.296  0.00  0.00    -0.217 OA
ATOM      9  O   UNL d   1      13.678  12.704  -0.018  0.00  0.00    -0.217 OA
ATOM     10  C   UNL d   1      15.117  12.920  -1.340  0.00  0.00     0.030 A 
ENDBRANCH   2   4
BRANCH   2  11
ATOM     11  C   UNL d   1      14.988  14.878  -1.108  0.00  0.00     0.067 A 
ATOM     12  C   UNL d   1      15.426  14.757  -0.429  0.00  0.00     0.018 A 
ATOM     13  C   UNL d   1      15.756  15.414  -0.026  0.00  0.00     0.002 A 
ATOM     14  C   UNL d   1      15.638  16.177  -0.314  0.00  0.00     0.000 A 
ATOM     15  C   UNL d   1      15.195  16.297  -1.000  0.00  0.00     0.002 A 
ATOM     16  C   UNL d   1      14.867  15.656  -1.402  0.00  0.00     0.018 A 
ENDBRANCH   2  11
BRANCH   1  17
ATOM     17  C   UNL d   1      13.858  13.691  -3.065  0.00  0.00     0.057 A 
ATOM     18  C   UNL d   1      13.972  12.906  -2.800  0.00  0.00     0.007 A 
ATOM     19  C   UNL d   1      13.639  12.280  -3.220  0.00  0.00     0.024 A 
ATOM     20  C   UNL d   1      13.193  12.420  -3.904  0.00  0.00     0.094 A 
ATOM     21  C   UNL d   1      13.076  13.192  -4.172  0.00  0.00     0.024 A 
ATOM     22  C   UNL d   1      13.408  13.839  -3.755  0.00  0.00     0.007 A 
BRANCH  20  23
ATOM     23  O   UNL d   1      12.860  11.780  -4.323  0.00  0.00    -0.328 OA
ATOM     24  C   UNL d   1      12.849  11.779  -5.159  0.00  0.00     0.181 C 
ENDBRANCH  20  23
ENDBRANCH   1  17
TORSDOF 4
ENDMDL
