MODEL 1
REMARK VINA RESULT:      -7.1      0.000      0.000
REMARK  4 active torsions:
REMARK  status: ('A' for Active; 'I' for Inactive)
REMARK    1  A    between atoms: N_10  and  C_3 
REMARK    2  A    between atoms: C_13  and  C_5 
REMARK    3  A    between atoms: C_19  and  C_9 
REMARK    4  A    between atoms: C_12  and  N_11 
ROOT
ATOM      1  N   UNL d   1     -47.986  13.331  22.947  0.00  0.00    -0.196 N 
ATOM      2  C   UNL d   1     -48.726  13.668  22.916  0.00  0.00     0.167 A 
ATOM      3  C   UNL d   1     -47.923  12.534  22.986  0.00  0.00     0.152 A 
ATOM      4  N   UNL d   1     -47.407  14.598  22.899  0.00  0.00    -0.163 NA
ATOM      5  C   UNL d   1     -48.800  14.455  22.877  0.00  0.00     0.055 A 
ATOM      6  N   UNL d   1     -49.375  13.195  22.925  0.00  0.00    -0.227 NA
ATOM      7  C   UNL d   1     -48.597  12.055  22.995  0.00  0.00     0.057 A 
ATOM      8  C   UNL d   1     -48.147  14.935  22.868  0.00  0.00     0.104 A 
ATOM      9  C   UNL d   1     -49.304  12.404  22.964  0.00  0.00     0.086 A 
ATOM     10  C   UNL d   1     -48.223  15.718  22.829  0.00  0.00     0.023 C 
ENDROOT
BRANCH   3  11
ATOM     11  N   UNL d   1     -47.165  12.185  23.019  0.00  0.00    -0.286 N 
ATOM     12  C   UNL d   1     -46.620  12.319  22.408  0.00  0.00     0.101 A 
ATOM     13  C   UNL d   1     -45.859  11.968  22.440  0.00  0.00     0.101 A 
ATOM     14  N   UNL d   1     -45.649  11.486  23.084  0.00  0.00    -0.286 N 
ATOM     15  C   UNL d   1     -46.195  11.350  23.698  0.00  0.00     0.101 A 
ATOM     16  C   UNL d   1     -46.954  11.697  23.669  0.00  0.00     0.101 A 
BRANCH  14  17
ATOM     17  C   UNL d   1     -44.891  11.137  23.115  0.00  0.00     0.148 A 
ATOM     18  N   UNL d   1     -44.219  11.586  22.897  0.00  0.00    -0.227 NA
ATOM     19  C   UNL d   1     -43.466  11.236  22.930  0.00  0.00     0.101 A 
ATOM     20  C   UNL d   1     -43.375  10.442  23.178  0.00  0.00     0.021 A 
ATOM     21  C   UNL d   1     -44.044  10.000  23.392  0.00  0.00     0.005 A 
ATOM     22  C   UNL d   1     -44.806  10.350  23.361  0.00  0.00     0.037 A 
ENDBRANCH  14  17
ENDBRANCH   3  11
BRANCH   9  23
ATOM     23  C   UNL d   1     -49.990  11.912  22.973  0.00  0.00     0.018 C 
ATOM     24  C   UNL d   1     -50.271  11.591  23.698  0.00  0.00     0.002 C 
ATOM     25  C   UNL d   1     -50.390  11.746  22.245  0.00  0.00     0.002 C 
ENDBRANCH   9  23
BRANCH   5  26
ATOM     26  C   UNL d   1     -49.547  14.795  22.845  0.00  0.00     0.004 A 
ATOM     27  C   UNL d   1     -49.920  14.874  22.144  0.00  0.00     0.000 A 
ATOM     28  C   UNL d   1     -50.645  15.202  22.106  0.00  0.00     0.000 A 
ATOM     29  C   UNL d   1     -51.004  15.458  22.783  0.00  0.00     0.000 A 
ATOM     30  C   UNL d   1     -50.636  15.382  23.488  0.00  0.00     0.000 A 
ATOM     31  C   UNL d   1     -49.900  15.047  23.519  0.00  0.00     0.000 A 
ENDBRANCH   5  26
TORSDOF 4
ENDMDL
MODEL 2
REMARK VINA RESULT:      -5.9      0.924      2.177
REMARK  4 active torsions:
REMARK  status: ('A' for Active; 'I' for Inactive)
REMARK    1  A    between atoms: N_10  and  C_3 
REMARK    2  A    between atoms: C_13  and  C_5 
REMARK    3  A    between atoms: C_19  and  C_9 
REMARK    4  A    between atoms: C_12  and  N_11 
ROOT
ATOM      1  N   UNL d   1     -47.887  12.638  22.644  0.00  0.00    -0.196 N 
ATOM      2  C   UNL d   1     -48.501  13.151  22.497  0.00  0.00     0.167 A 
ATOM      3  C   UNL d   1     -47.149  12.933  22.743  0.00  0.00     0.152 A 
ATOM      4  N   UNL d   1     -48.771  11.562  22.584  0.00  0.00    -0.163 NA
ATOM      5  C   UNL d   1     -49.234  12.870  22.397  0.00  0.00     0.055 A 
ATOM      6  N   UNL d   1     -48.355  13.940  22.457  0.00  0.00    -0.227 NA
ATOM      7  C   UNL d   1     -47.008  13.747  22.700  0.00  0.00     0.057 A 
ATOM      8  C   UNL d   1     -49.386  12.075  22.438  0.00  0.00     0.104 A 
ATOM      9  C   UNL d   1     -47.619  14.225  22.557  0.00  0.00     0.086 A 
ATOM     10  C   UNL d   1     -50.116  11.797  22.338  0.00  0.00     0.023 C 
ENDROOT
BRANCH   3  11
ATOM     11  N   UNL d   1     -46.516  12.409  22.893  0.00  0.00    -0.286 N 
ATOM     12  C   UNL d   1     -46.547  11.897  23.545  0.00  0.00     0.101 A 
ATOM     13  C   UNL d   1     -45.911  11.371  23.696  0.00  0.00     0.101 A 
ATOM     14  N   UNL d   1     -45.250  11.363  23.193  0.00  0.00    -0.286 N 
ATOM     15  C   UNL d   1     -45.217  11.876  22.539  0.00  0.00     0.101 A 
ATOM     16  C   UNL d   1     -45.847  12.401  22.385  0.00  0.00     0.101 A 
BRANCH  14  17
ATOM     17  C   UNL d   1     -44.617  10.839  23.344  0.00  0.00     0.148 A 
ATOM     18  N   UNL d   1     -43.828  11.115  23.290  0.00  0.00    -0.227 NA
ATOM     19  C   UNL d   1     -43.201  10.591  23.440  0.00  0.00     0.101 A 
ATOM     20  C   UNL d   1     -43.351   9.793  23.645  0.00  0.00     0.021 A 
ATOM     21  C   UNL d   1     -44.134   9.524  23.698  0.00  0.00     0.005 A 
ATOM     22  C   UNL d   1     -44.771  10.050  23.547  0.00  0.00     0.037 A 
ENDBRANCH  14  17
ENDBRANCH   3  11
BRANCH   9  23
ATOM     23  C   UNL d   1     -47.472  15.055  22.513  0.00  0.00     0.018 C 
ATOM     24  C   UNL d   1     -47.449  15.518  23.215  0.00  0.00     0.002 C 
ATOM     25  C   UNL d   1     -47.348  15.414  21.756  0.00  0.00     0.002 C 
ENDBRANCH   9  23
BRANCH   5  26
ATOM     26  C   UNL d   1     -49.855  13.388  22.250  0.00  0.00     0.004 A 
ATOM     27  C   UNL d   1     -50.092  13.524  21.500  0.00  0.00     0.000 A 
ATOM     28  C   UNL d   1     -50.692  14.024  21.350  0.00  0.00     0.000 A 
ATOM     29  C   UNL d   1     -51.064  14.398  21.962  0.00  0.00     0.000 A 
ATOM     30  C   UNL d   1     -50.831  14.267  22.715  0.00  0.00     0.000 A 
ATOM     31  C   UNL d   1     -50.220  13.757  22.860  0.00  0.00     0.000 A 
ENDBRANCH   5  26
TORSDOF 4
ENDMDL
