MODEL 1
REMARK VINA RESULT:      -8.3      0.000      0.000
REMARK  5 active torsions:
REMARK  status: ('A' for Active; 'I' for Inactive)
REMARK    1  A    between atoms: N_4  and  C_2 
REMARK    2  A    between atoms: S_8  and  C_3 
REMARK    3  A    between atoms: C_11  and  S_8 
REMARK    4  A    between atoms: C_9  and  C_11 
REMARK    5  A    between atoms: C_10  and  C_9 
ROOT
ATOM      1  N   UNL d   1      52.816  32.246  53.645  0.00  0.00    -0.203 NA
ATOM      2  C   UNL d   1      53.417  31.685  53.588  0.00  0.00     0.152 A 
ATOM      3  C   UNL d   1      53.004  33.057  53.682  0.00  0.00     0.196 A 
ATOM      4  C   UNL d   1      54.205  31.936  53.569  0.00  0.00     0.057 A 
ATOM      5  N   UNL d   1      53.791  33.300  53.662  0.00  0.00    -0.221 NA
ATOM      6  C   UNL d   1      54.391  32.739  53.606  0.00  0.00     0.087 A 
ATOM      7  C   UNL d   1      55.182  32.981  53.586  0.00  0.00     0.021 C 
ENDROOT
BRANCH   3   8
ATOM      8  S   UNL d   1      52.396  33.620  53.739  0.00  0.00    -0.045 SA
BRANCH   8   9
ATOM      9  C   UNL d   1      51.897  33.749  53.091  0.00  0.00     0.080 C 
BRANCH   9  10
ATOM     10  C   UNL d   1      51.417  34.420  53.072  0.00  0.00     0.202 C 
ATOM     11  O   UNL d   1      51.603  35.068  53.548  0.00  0.00    -0.286 OA
BRANCH  10  12
ATOM     12  C   UNL d   1      50.759  34.436  52.577  0.00  0.00     0.040 A 
ATOM     13  C   UNL d   1      50.854  34.279  51.770  0.00  0.00     0.004 A 
ATOM     14  C   UNL d   1      50.198  34.293  51.271  0.00  0.00     0.011 A 
ATOM     15  C   UNL d   1      49.453  34.463  51.582  0.00  0.00     0.058 A 
ATOM     16  C   UNL d   1      49.362  34.619  52.387  0.00  0.00     0.011 A 
ATOM     17 CL   UNL d   1      48.793  34.478  51.084  0.00  0.00    -0.082 Cl
ATOM     18  C   UNL d   1      50.021  34.604  52.882  0.00  0.00     0.004 A 
ENDBRANCH  10  12
ENDBRANCH   9  10
ENDBRANCH   8   9
ENDBRANCH   3   8
BRANCH   2  19
ATOM     19  N   UNL d   1      53.235  30.882  53.551  0.00  0.00    -0.285 N 
ATOM     20  C   UNL d   1      53.441  30.388  54.172  0.00  0.00     0.108 A 
ATOM     21  C   UNL d   1      53.258  29.585  54.132  0.00  0.00     0.142 A 
ATOM     22  O   UNL d   1      52.868  29.284  53.467  0.00  0.00    -0.300 OA
ATOM     23  C   UNL d   1      52.664  29.786  52.847  0.00  0.00     0.142 A 
ATOM     24  C   UNL d   1      52.846  30.581  52.887  0.00  0.00     0.108 A 
ENDBRANCH   2  19
TORSDOF 5
ENDMDL
MODEL 2
REMARK VINA RESULT:      -7.9      1.509      2.495
REMARK  5 active torsions:
REMARK  status: ('A' for Active; 'I' for Inactive)
REMARK    1  A    between atoms: N_4  and  C_2 
REMARK    2  A    between atoms: S_8  and  C_3 
REMARK    3  A    between atoms: C_11  and  S_8 
REMARK    4  A    between atoms: C_9  and  C_11 
REMARK    5  A    between atoms: C_10  and  C_9 
ROOT
ATOM      1  N   UNL d   1      53.278  33.014  53.400  0.00  0.00    -0.203 NA
ATOM      2  C   UNL d   1      53.753  32.584  53.918  0.00  0.00     0.152 A 
ATOM      3  C   UNL d   1      52.763  32.617  52.879  0.00  0.00     0.196 A 
ATOM      4  C   UNL d   1      53.714  31.758  53.914  0.00  0.00     0.057 A 
ATOM      5  N   UNL d   1      52.729  31.794  52.880  0.00  0.00    -0.221 NA
ATOM      6  C   UNL d   1      53.205  31.365  53.397  0.00  0.00     0.087 A 
ATOM      7  C   UNL d   1      53.172  30.538  53.400  0.00  0.00     0.021 C 
ENDROOT
BRANCH   3   8
ATOM      8  S   UNL d   1      52.285  33.053  52.358  0.00  0.00    -0.045 SA
BRANCH   8   9
ATOM      9  C   UNL d   1      51.657  33.500  52.658  0.00  0.00     0.080 C 
BRANCH   9  10
ATOM     10  C   UNL d   1      51.248  34.016  52.161  0.00  0.00     0.202 C 
ATOM     11  O   UNL d   1      51.539  34.170  51.404  0.00  0.00    -0.286 OA
BRANCH  10  12
ATOM     12  C   UNL d   1      50.554  34.372  52.425  0.00  0.00     0.040 A 
ATOM     13  C   UNL d   1      49.898  34.406  51.921  0.00  0.00     0.004 A 
ATOM     14  C   UNL d   1      49.201  34.761  52.182  0.00  0.00     0.011 A 
ATOM     15  C   UNL d   1      49.165  35.078  52.943  0.00  0.00     0.058 A 
ATOM     16  C   UNL d   1      49.821  35.042  53.442  0.00  0.00     0.011 A 
ATOM     17 CL   UNL d   1      48.467  35.435  53.207  0.00  0.00    -0.082 Cl
ATOM     18  C   UNL d   1      50.515  34.686  53.177  0.00  0.00     0.004 A 
ENDBRANCH  10  12
ENDBRANCH   9  10
ENDBRANCH   8   9
ENDBRANCH   3   8
BRANCH   2  19
ATOM     19  N   UNL d   1      54.264  32.974  54.436  0.00  0.00    -0.285 N 
ATOM     20  C   UNL d   1      54.943  33.330  54.148  0.00  0.00     0.108 A 
ATOM     21  C   UNL d   1      55.451  33.719  54.669  0.00  0.00     0.142 A 
ATOM     22  O   UNL d   1      55.272  33.747  55.475  0.00  0.00    -0.300 OA
ATOM     23  C   UNL d   1      54.587  33.387  55.759  0.00  0.00     0.142 A 
ATOM     24  C   UNL d   1      54.084  33.002  55.243  0.00  0.00     0.108 A 
ENDBRANCH   2  19
TORSDOF 5
ENDMDL
MODEL 3
REMARK VINA RESULT:      -7.9      2.275      4.920
REMARK  5 active torsions:
REMARK  status: ('A' for Active; 'I' for Inactive)
REMARK    1  A    between atoms: N_4  and  C_2 
REMARK    2  A    between atoms: S_8  and  C_3 
REMARK    3  A    between atoms: C_11  and  S_8 
REMARK    4  A    between atoms: C_9  and  C_11 
REMARK    5  A    between atoms: C_10  and  C_9 
ROOT
ATOM      1  N   UNL d   1      52.639  33.411  53.374  0.00  0.00    -0.203 NA
ATOM      2  C   UNL d   1      52.340  34.125  53.655  0.00  0.00     0.152 A 
ATOM      3  C   UNL d   1      52.189  32.948  52.848  0.00  0.00     0.196 A 
ATOM      4  C   UNL d   1      51.591  34.376  53.409  0.00  0.00     0.057 A 
ATOM      5  N   UNL d   1      51.444  33.204  52.606  0.00  0.00    -0.221 NA
ATOM      6  C   UNL d   1      51.145  33.918  52.887  0.00  0.00     0.087 A 
ATOM      7  C   UNL d   1      50.397  34.176  52.646  0.00  0.00     0.021 C 
ENDROOT
BRANCH   3   8
ATOM      8  S   UNL d   1      52.494  32.228  52.566  0.00  0.00    -0.045 SA
BRANCH   8   9
ATOM      9  C   UNL d   1      52.543  31.578  53.075  0.00  0.00     0.080 C 
BRANCH   9  10
ATOM     10  C   UNL d   1      52.863  30.868  52.804  0.00  0.00     0.202 C 
ATOM     11  O   UNL d   1      53.024  30.774  52.000  0.00  0.00    -0.286 OA
BRANCH  10  12
ATOM     12  C   UNL d   1      53.018  30.261  53.338  0.00  0.00     0.040 A 
ATOM     13  C   UNL d   1      52.448  29.674  53.460  0.00  0.00     0.004 A 
ATOM     14  C   UNL d   1      52.599  29.063  53.995  0.00  0.00     0.011 A 
ATOM     15  C   UNL d   1      53.317  29.046  54.400  0.00  0.00     0.058 A 
ATOM     16  C   UNL d   1      53.883  29.633  54.275  0.00  0.00     0.011 A 
ATOM     17 CL   UNL d   1      53.471  28.435  54.937  0.00  0.00    -0.082 Cl
ATOM     18  C   UNL d   1      53.727  30.241  53.741  0.00  0.00     0.004 A 
ENDBRANCH  10  12
ENDBRANCH   9  10
ENDBRANCH   8   9
ENDBRANCH   3   8
BRANCH   2  19
ATOM     19  N   UNL d   1      52.782  34.586  54.177  0.00  0.00    -0.285 N 
ATOM     20  C   UNL d   1      52.805  35.400  54.084  0.00  0.00     0.108 A 
ATOM     21  C   UNL d   1      53.248  35.858  54.608  0.00  0.00     0.142 A 
ATOM     22  O   UNL d   1      53.666  35.493  55.221  0.00  0.00    -0.300 OA
ATOM     23  C   UNL d   1      53.639  34.675  55.310  0.00  0.00     0.142 A 
ATOM     24  C   UNL d   1      53.200  34.222  54.791  0.00  0.00     0.108 A 
ENDBRANCH   2  19
TORSDOF 5
ENDMDL
MODEL 4
REMARK VINA RESULT:      -7.9      2.187      4.819
REMARK  5 active torsions:
REMARK  status: ('A' for Active; 'I' for Inactive)
REMARK    1  A    between atoms: N_4  and  C_2 
REMARK    2  A    between atoms: S_8  and  C_3 
REMARK    3  A    between atoms: C_11  and  S_8 
REMARK    4  A    between atoms: C_9  and  C_11 
REMARK    5  A    between atoms: C_10  and  C_9 
ROOT
ATOM      1  N   UNL d   1      51.818  33.466  52.728  0.00  0.00    -0.203 NA
ATOM      2  C   UNL d   1      51.465  34.179  52.941  0.00  0.00     0.152 A 
ATOM      3  C   UNL d   1      52.583  33.282  53.000  0.00  0.00     0.196 A 
ATOM      4  C   UNL d   1      51.877  34.706  53.427  0.00  0.00     0.057 A 
ATOM      5  N   UNL d   1      52.988  33.811  53.484  0.00  0.00    -0.221 NA
ATOM      6  C   UNL d   1      52.635  34.523  53.697  0.00  0.00     0.087 A 
ATOM      7  C   UNL d   1      53.040  35.057  54.183  0.00  0.00     0.021 C 
ENDROOT
BRANCH   3   8
ATOM      8  S   UNL d   1      52.937  32.562  52.783  0.00  0.00    -0.045 SA
BRANCH   8   9
ATOM      9  C   UNL d   1      52.789  31.882  53.231  0.00  0.00     0.080 C 
BRANCH   9  10
ATOM     10  C   UNL d   1      52.946  31.138  52.911  0.00  0.00     0.202 C 
ATOM     11  O   UNL d   1      52.991  31.048  52.092  0.00  0.00    -0.286 OA
BRANCH  10  12
ATOM     12  C   UNL d   1      53.058  30.495  53.413  0.00  0.00     0.040 A 
ATOM     13  C   UNL d   1      52.588  29.820  53.317  0.00  0.00     0.004 A 
ATOM     14  C   UNL d   1      52.696  29.173  53.817  0.00  0.00     0.011 A 
ATOM     15  C   UNL d   1      53.271  29.206  54.407  0.00  0.00     0.058 A 
ATOM     16  C   UNL d   1      53.737  29.880  54.499  0.00  0.00     0.011 A 
ATOM     17 CL   UNL d   1      53.382  28.558  54.910  0.00  0.00    -0.082 Cl
ATOM     18  C   UNL d   1      53.626  30.524  53.998  0.00  0.00     0.004 A 
ENDBRANCH  10  12
ENDBRANCH   9  10
ENDBRANCH   8   9
ENDBRANCH   3   8
BRANCH   2  19
ATOM     19  N   UNL d   1      50.707  34.366  52.673  0.00  0.00    -0.285 N 
ATOM     20  C   UNL d   1      50.145  34.644  53.200  0.00  0.00     0.108 A 
ATOM     21  C   UNL d   1      49.388  34.829  52.928  0.00  0.00     0.142 A 
ATOM     22  O   UNL d   1      49.203  34.733  52.128  0.00  0.00    -0.300 OA
ATOM     23  C   UNL d   1      49.773  34.453  51.603  0.00  0.00     0.142 A 
ATOM     24  C   UNL d   1      50.522  34.269  51.873  0.00  0.00     0.108 A 
ENDBRANCH   2  19
TORSDOF 5
ENDMDL
MODEL 5
REMARK VINA RESULT:      -7.4      1.658      2.357
REMARK  5 active torsions:
REMARK  status: ('A' for Active; 'I' for Inactive)
REMARK    1  A    between atoms: N_4  and  C_2 
REMARK    2  A    between atoms: S_8  and  C_3 
REMARK    3  A    between atoms: C_11  and  S_8 
REMARK    4  A    between atoms: C_9  and  C_11 
REMARK    5  A    between atoms: C_10  and  C_9 
ROOT
ATOM      1  N   UNL d   1      51.842  33.343  52.801  0.00  0.00    -0.203 NA
ATOM      2  C   UNL d   1      52.509  33.201  53.263  0.00  0.00     0.152 A 
ATOM      3  C   UNL d   1      51.525  34.112  52.751  0.00  0.00     0.196 A 
ATOM      4  C   UNL d   1      52.858  33.827  53.675  0.00  0.00     0.057 A 
ATOM      5  N   UNL d   1      51.878  34.732  53.163  0.00  0.00    -0.221 NA
ATOM      6  C   UNL d   1      52.544  34.589  53.625  0.00  0.00     0.087 A 
ATOM      7  C   UNL d   1      52.900  35.210  54.040  0.00  0.00     0.021 C 
ENDROOT
BRANCH   3   8
ATOM      8  S   UNL d   1      50.852  34.251  52.284  0.00  0.00    -0.045 SA
BRANCH   8   9
ATOM      9  C   UNL d   1      50.176  34.579  52.629  0.00  0.00     0.080 C 
BRANCH   9  10
ATOM     10  C   UNL d   1      49.489  34.668  52.181  0.00  0.00     0.202 C 
ATOM     11  O   UNL d   1      49.410  34.258  51.470  0.00  0.00    -0.286 OA
BRANCH  10  12
ATOM     12  C   UNL d   1      48.890  35.167  52.448  0.00  0.00     0.040 A 
ATOM     13  C   UNL d   1      48.288  35.392  51.927  0.00  0.00     0.004 A 
ATOM     14  C   UNL d   1      47.686  35.891  52.190  0.00  0.00     0.011 A 
ATOM     15  C   UNL d   1      47.692  36.160  52.970  0.00  0.00     0.058 A 
ATOM     16  C   UNL d   1      48.294  35.932  53.486  0.00  0.00     0.011 A 
ATOM     17 CL   UNL d   1      47.090  36.660  53.237  0.00  0.00    -0.082 Cl
ATOM     18  C   UNL d   1      48.893  35.434  53.219  0.00  0.00     0.004 A 
ENDBRANCH  10  12
ENDBRANCH   9  10
ENDBRANCH   8   9
ENDBRANCH   3   8
BRANCH   2  19
ATOM     19  N   UNL d   1      52.826  32.441  53.316  0.00  0.00    -0.285 N 
ATOM     20  C   UNL d   1      52.424  31.808  52.984  0.00  0.00     0.108 A 
ATOM     21  C   UNL d   1      52.743  31.049  53.039  0.00  0.00     0.142 A 
ATOM     22  O   UNL d   1      53.465  30.933  53.426  0.00  0.00    -0.300 OA
ATOM     23  C   UNL d   1      53.864  31.573  53.756  0.00  0.00     0.142 A 
ATOM     24  C   UNL d   1      53.547  32.324  53.703  0.00  0.00     0.108 A 
ENDBRANCH   2  19
TORSDOF 5
ENDMDL
MODEL 6
REMARK VINA RESULT:      -6.6      3.773      6.497
REMARK  5 active torsions:
REMARK  status: ('A' for Active; 'I' for Inactive)
REMARK    1  A    between atoms: N_4  and  C_2 
REMARK    2  A    between atoms: S_8  and  C_3 
REMARK    3  A    between atoms: C_11  and  S_8 
REMARK    4  A    between atoms: C_9  and  C_11 
REMARK    5  A    between atoms: C_10  and  C_9 
ROOT
ATOM      1  N   UNL d   1      47.606  35.572  52.319  0.00  0.00    -0.203 NA
ATOM      2  C   UNL d   1      46.980  35.931  52.716  0.00  0.00     0.152 A 
ATOM      3  C   UNL d   1      48.372  35.588  52.647  0.00  0.00     0.196 A 
ATOM      4  C   UNL d   1      47.119  36.306  53.440  0.00  0.00     0.057 A 
ATOM      5  N   UNL d   1      48.504  35.963  53.369  0.00  0.00    -0.221 NA
ATOM      6  C   UNL d   1      47.878  36.321  53.765  0.00  0.00     0.087 A 
ATOM      7  C   UNL d   1      48.009  36.698  54.489  0.00  0.00     0.021 C 
ENDROOT
BRANCH   3   8
ATOM      8  S   UNL d   1      49.001  35.225  52.245  0.00  0.00    -0.045 SA
BRANCH   8   9
ATOM      9  C   UNL d   1      49.587  34.829  52.674  0.00  0.00     0.080 C 
BRANCH   9  10
ATOM     10  C   UNL d   1      50.178  34.415  52.275  0.00  0.00     0.202 C 
ATOM     11  O   UNL d   1      50.096  34.262  51.469  0.00  0.00    -0.286 OA
BRANCH  10  12
ATOM     12  C   UNL d   1      50.844  34.157  52.687  0.00  0.00     0.040 A 
ATOM     13  C   UNL d   1      51.574  34.517  52.541  0.00  0.00     0.004 A 
ATOM     14  C   UNL d   1      52.244  34.263  52.951  0.00  0.00     0.011 A 
ATOM     15  C   UNL d   1      52.177  33.652  53.501  0.00  0.00     0.058 A 
ATOM     16  C   UNL d   1      51.446  33.296  53.643  0.00  0.00     0.011 A 
ATOM     17 CL   UNL d   1      52.846  33.395  53.913  0.00  0.00    -0.082 Cl
ATOM     18  C   UNL d   1      50.781  33.553  53.232  0.00  0.00     0.004 A 
ENDBRANCH  10  12
ENDBRANCH   9  10
ENDBRANCH   8   9
ENDBRANCH   3   8
BRANCH   2  19
ATOM     19  N   UNL d   1      46.220  35.917  52.394  0.00  0.00    -0.285 N 
ATOM     20  C   UNL d   1      46.071  36.299  51.684  0.00  0.00     0.108 A 
ATOM     21  C   UNL d   1      45.311  36.283  51.365  0.00  0.00     0.142 A 
ATOM     22  O   UNL d   1      44.705  35.883  51.763  0.00  0.00    -0.300 OA
ATOM     23  C   UNL d   1      44.862  35.502  52.476  0.00  0.00     0.142 A 
ATOM     24  C   UNL d   1      45.615  35.518  52.791  0.00  0.00     0.108 A 
ENDBRANCH   2  19
TORSDOF 5
ENDMDL
MODEL 7
REMARK VINA RESULT:      -5.6     10.221     10.922
REMARK  5 active torsions:
REMARK  status: ('A' for Active; 'I' for Inactive)
REMARK    1  A    between atoms: N_4  and  C_2 
REMARK    2  A    between atoms: S_8  and  C_3 
REMARK    3  A    between atoms: C_11  and  S_8 
REMARK    4  A    between atoms: C_9  and  C_11 
REMARK    5  A    between atoms: C_10  and  C_9 
ROOT
ATOM      1  N   UNL d   1      45.047  28.985  58.596  0.00  0.00    -0.203 NA
ATOM      2  C   UNL d   1      44.922  28.478  57.958  0.00  0.00     0.152 A 
ATOM      3  C   UNL d   1      45.000  29.810  58.490  0.00  0.00     0.196 A 
ATOM      4  C   UNL d   1      44.751  28.798  57.215  0.00  0.00     0.057 A 
ATOM      5  N   UNL d   1      44.829  30.121  57.746  0.00  0.00    -0.221 NA
ATOM      6  C   UNL d   1      44.704  29.615  57.109  0.00  0.00     0.087 A 
ATOM      7  C   UNL d   1      44.531  29.926  56.362  0.00  0.00     0.021 C 
ENDROOT
BRANCH   3   8
ATOM      8  S   UNL d   1      45.127  30.317  59.135  0.00  0.00    -0.045 SA
BRANCH   8   9
ATOM      9  C   UNL d   1      44.859  30.097  59.886  0.00  0.00     0.080 C 
BRANCH   9  10
ATOM     10  C   UNL d   1      44.809  30.662  60.485  0.00  0.00     0.202 C 
ATOM     11  O   UNL d   1      44.881  31.462  60.298  0.00  0.00    -0.286 OA
BRANCH  10  12
ATOM     12  C   UNL d   1      44.689  30.421  61.264  0.00  0.00     0.040 A 
ATOM     13  C   UNL d   1      44.438  30.975  61.825  0.00  0.00     0.004 A 
ATOM     14  C   UNL d   1      44.315  30.738  62.606  0.00  0.00     0.011 A 
ATOM     15  C   UNL d   1      44.445  29.952  62.818  0.00  0.00     0.058 A 
ATOM     16  C   UNL d   1      44.696  29.403  62.255  0.00  0.00     0.011 A 
ATOM     17 CL   UNL d   1      44.324  29.711  63.600  0.00  0.00    -0.082 Cl
ATOM     18  C   UNL d   1      44.816  29.644  61.477  0.00  0.00     0.004 A 
ENDBRANCH  10  12
ENDBRANCH   9  10
ENDBRANCH   8   9
ENDBRANCH   3   8
BRANCH   2  19
ATOM     19  N   UNL d   1      44.968  27.661  58.059  0.00  0.00    -0.285 N 
ATOM     20  C   UNL d   1      44.362  27.263  58.441  0.00  0.00     0.108 A 
ATOM     21  C   UNL d   1      44.412  26.446  58.541  0.00  0.00     0.142 A 
ATOM     22  O   UNL d   1      45.070  26.035  58.255  0.00  0.00    -0.300 OA
ATOM     23  C   UNL d   1      45.675  26.441  57.871  0.00  0.00     0.142 A 
ATOM     24  C   UNL d   1      45.627  27.250  57.773  0.00  0.00     0.108 A 
ENDBRANCH   2  19
TORSDOF 5
ENDMDL
MODEL 8
REMARK VINA RESULT:      -5.3     10.101     10.995
REMARK  5 active torsions:
REMARK  status: ('A' for Active; 'I' for Inactive)
REMARK    1  A    between atoms: N_4  and  C_2 
REMARK    2  A    between atoms: S_8  and  C_3 
REMARK    3  A    between atoms: C_11  and  S_8 
REMARK    4  A    between atoms: C_9  and  C_11 
REMARK    5  A    between atoms: C_10  and  C_9 
ROOT
ATOM      1  N   UNL d   1      44.527  29.068  58.393  0.00  0.00    -0.203 NA
ATOM      2  C   UNL d   1      44.806  29.020  57.619  0.00  0.00     0.152 A 
ATOM      3  C   UNL d   1      44.650  28.436  58.921  0.00  0.00     0.196 A 
ATOM      4  C   UNL d   1      45.207  28.340  57.374  0.00  0.00     0.057 A 
ATOM      5  N   UNL d   1      45.050  27.761  58.670  0.00  0.00    -0.221 NA
ATOM      6  C   UNL d   1      45.329  27.713  57.897  0.00  0.00     0.087 A 
ATOM      7  C   UNL d   1      45.731  27.036  57.644  0.00  0.00     0.021 C 
ENDROOT
BRANCH   3   8
ATOM      8  S   UNL d   1      44.367  28.488  59.700  0.00  0.00    -0.045 SA
BRANCH   8   9
ATOM      9  C   UNL d   1      44.563  29.145  60.163  0.00  0.00     0.080 C 
BRANCH   9  10
ATOM     10  C   UNL d   1      44.438  29.124  60.978  0.00  0.00     0.202 C 
ATOM     11  O   UNL d   1      44.317  28.399  61.354  0.00  0.00    -0.286 OA
BRANCH  10  12
ATOM     12  C   UNL d   1      44.435  29.826  61.408  0.00  0.00     0.040 A 
ATOM     13  C   UNL d   1      44.319  29.800  62.227  0.00  0.00     0.004 A 
ATOM     14  C   UNL d   1      44.315  30.501  62.662  0.00  0.00     0.011 A 
ATOM     15  C   UNL d   1      44.427  31.221  62.274  0.00  0.00     0.058 A 
ATOM     16  C   UNL d   1      44.543  31.243  61.458  0.00  0.00     0.011 A 
ATOM     17 CL   UNL d   1      44.424  31.925  62.708  0.00  0.00    -0.082 Cl
ATOM     18  C   UNL d   1      44.546  30.540  61.028  0.00  0.00     0.004 A 
ENDBRANCH  10  12
ENDBRANCH   9  10
ENDBRANCH   8   9
ENDBRANCH   3   8
BRANCH   2  19
ATOM     19  N   UNL d   1      44.687  29.645  57.093  0.00  0.00    -0.285 N 
ATOM     20  C   UNL d   1      44.817  30.416  57.339  0.00  0.00     0.108 A 
ATOM     21  C   UNL d   1      44.696  31.037  56.811  0.00  0.00     0.142 A 
ATOM     22  O   UNL d   1      44.446  30.879  56.039  0.00  0.00    -0.300 OA
ATOM     23  C   UNL d   1      44.317  30.103  55.797  0.00  0.00     0.142 A 
ATOM     24  C   UNL d   1      44.436  29.487  56.321  0.00  0.00     0.108 A 
ENDBRANCH   2  19
TORSDOF 5
ENDMDL
