MODEL 1
REMARK VINA RESULT:      -2.6      0.000      0.000
REMARK  4 active torsions:
REMARK  status: ('A' for Active; 'I' for Inactive)
REMARK    1  A    between atoms: C_2  and  C_1 
REMARK    2  A    between atoms: C_3  and  C_1 
REMARK       I    between atoms: N_7  and  C_2 
REMARK    3  A    between atoms: C_4  and  C_3 
REMARK    4  A    between atoms: C_13  and  N_7 
ROOT
ATOM      1  C   UNL d   1     -42.189-122.309 -50.937  0.00  0.00     0.128 C 
ATOM      2  C   UNL d   1     -41.753-121.625 -50.837  0.00  0.00     0.106 C 
ATOM      3  N   UNL d   1     -41.311-120.924 -50.733  0.00  0.00    -0.191 NA
ENDROOT
BRANCH   1   4
ATOM      4  C   UNL d   1     -43.006-122.324 -50.772  0.00  0.00     0.289 C 
ATOM      5  N   UNL d   1     -43.267-122.589 -50.039  0.00  0.00    -0.207 NA
ATOM      6  O   UNL d   1     -43.540-122.072 -51.348  0.00  0.00    -0.264 OA
BRANCH   5   7
ATOM      7  C   UNL d   1     -42.733-122.841 -49.462  0.00  0.00     0.085 A 
ATOM      8  C   UNL d   1     -42.348-123.566 -49.546  0.00  0.00     0.019 A 
ATOM      9  C   UNL d   1     -41.814-123.817 -48.969  0.00  0.00     0.002 A 
ATOM     10  C   UNL d   1     -41.665-123.345 -48.310  0.00  0.00     0.000 A 
ATOM     11  C   UNL d   1     -42.049-122.620 -48.227  0.00  0.00     0.002 A 
ATOM     12  C   UNL d   1     -41.127-123.605 -47.734  0.00  0.00     0.000 C 
ATOM     13  C   UNL d   1     -42.583-122.368 -48.802  0.00  0.00     0.019 A 
ENDBRANCH   5   7
ENDBRANCH   1   4
BRANCH   1  14
ATOM     14  C   UNL d   1     -41.818-122.995 -51.206  0.00  0.00     0.040 C 
BRANCH  14  15
ATOM     15  C   UNL d   1     -41.606-123.075 -52.004  0.00  0.00     0.101 A 
ATOM     16  O   UNL d   1     -41.639-122.562 -52.643  0.00  0.00    -0.307 OA
ATOM     17  C   UNL d   1     -41.346-122.965 -53.301  0.00  0.00     0.100 A 
ATOM     18  C   UNL d   1     -41.276-122.655 -54.076  0.00  0.00     0.027 C 
ATOM     19  C   UNL d   1     -41.135-123.718 -53.075  0.00  0.00     0.027 A 
ATOM     20  C   UNL d   1     -41.296-123.792 -52.265  0.00  0.00     0.027 A 
ENDBRANCH  14  15
ENDBRANCH   1  14
TORSDOF 4
ENDMDL
MODEL 2
REMARK VINA RESULT:      -1.7      1.164      1.745
REMARK  4 active torsions:
REMARK  status: ('A' for Active; 'I' for Inactive)
REMARK    1  A    between atoms: C_2  and  C_1 
REMARK    2  A    between atoms: C_3  and  C_1 
REMARK       I    between atoms: N_7  and  C_2 
REMARK    3  A    between atoms: C_4  and  C_3 
REMARK    4  A    between atoms: C_13  and  N_7 
ROOT
ATOM      1  C   UNL d   1     -41.918-122.078 -52.042  0.00  0.00     0.128 C 
ATOM      2  C   UNL d   1     -42.728-121.969 -52.058  0.00  0.00     0.106 C 
ATOM      3  N   UNL d   1     -43.555-121.855 -52.072  0.00  0.00    -0.191 NA
ENDROOT
BRANCH   1   4
ATOM      4  C   UNL d   1     -41.413-121.487 -51.740  0.00  0.00     0.289 C 
ATOM      5  N   UNL d   1     -41.212-121.493 -50.943  0.00  0.00    -0.207 NA
ATOM      6  O   UNL d   1     -41.123-120.905 -52.248  0.00  0.00    -0.264 OA
BRANCH   5   7
ATOM      7  C   UNL d   1     -41.502-122.075 -50.435  0.00  0.00     0.085 A 
ATOM      8  C   UNL d   1     -42.171-121.925 -49.977  0.00  0.00     0.019 A 
ATOM      9  C   UNL d   1     -42.461-122.507 -49.468  0.00  0.00     0.002 A 
ATOM     10  C   UNL d   1     -42.082-123.237 -49.418  0.00  0.00     0.000 A 
ATOM     11  C   UNL d   1     -41.413-123.387 -49.876  0.00  0.00     0.002 A 
ATOM     12  C   UNL d   1     -42.379-123.817 -48.905  0.00  0.00     0.000 C 
ATOM     13  C   UNL d   1     -41.123-122.806 -50.384  0.00  0.00     0.019 A 
ENDBRANCH   5   7
ENDBRANCH   1   4
BRANCH   1  14
ATOM     14  C   UNL d   1     -41.593-122.781 -52.327  0.00  0.00     0.040 C 
BRANCH  14  15
ATOM     15  C   UNL d   1     -41.520-122.911 -53.142  0.00  0.00     0.101 A 
ATOM     16  O   UNL d   1     -41.658-122.435 -53.796  0.00  0.00    -0.307 OA
ATOM     17  C   UNL d   1     -41.483-122.882 -54.469  0.00  0.00     0.100 A 
ATOM     18  C   UNL d   1     -41.543-122.619 -55.262  0.00  0.00     0.027 C 
ATOM     19  C   UNL d   1     -41.240-123.623 -54.236  0.00  0.00     0.027 A 
ATOM     20  C   UNL d   1     -41.262-123.646 -53.408  0.00  0.00     0.027 A 
ENDBRANCH  14  15
ENDBRANCH   1  14
TORSDOF 4
ENDMDL
MODEL 3
REMARK VINA RESULT:      -0.0      1.307      4.151
REMARK  4 active torsions:
REMARK  status: ('A' for Active; 'I' for Inactive)
REMARK    1  A    between atoms: C_2  and  C_1 
REMARK    2  A    between atoms: C_3  and  C_1 
REMARK       I    between atoms: N_7  and  C_2 
REMARK    3  A    between atoms: C_4  and  C_3 
REMARK    4  A    between atoms: C_13  and  N_7 
ROOT
ATOM      1  C   UNL d   1     -41.838-122.691 -51.722  0.00  0.00     0.128 C 
ATOM      2  C   UNL d   1     -41.490-121.955 -51.793  0.00  0.00     0.106 C 
ATOM      3  N   UNL d   1     -41.131-121.205 -51.867  0.00  0.00    -0.191 NA
ENDROOT
BRANCH   1   4
ATOM      4  C   UNL d   1     -41.395-123.387 -51.841  0.00  0.00     0.289 C 
ATOM      5  N   UNL d   1     -41.237-123.642 -52.606  0.00  0.00    -0.207 NA
ATOM      6  O   UNL d   1     -41.123-123.809 -51.187  0.00  0.00    -0.264 OA
BRANCH   5   7
ATOM      7  C   UNL d   1     -41.510-123.220 -53.261  0.00  0.00     0.085 A 
ATOM      8  C   UNL d   1     -42.080-123.552 -53.757  0.00  0.00     0.019 A 
ATOM      9  C   UNL d   1     -42.352-123.130 -54.411  0.00  0.00     0.002 A 
ATOM     10  C   UNL d   1     -42.056-122.377 -54.570  0.00  0.00     0.000 A 
ATOM     11  C   UNL d   1     -41.486-122.045 -54.074  0.00  0.00     0.002 A 
ATOM     12  C   UNL d   1     -42.335-121.959 -55.230  0.00  0.00     0.000 C 
ATOM     13  C   UNL d   1     -41.213-122.467 -53.420  0.00  0.00     0.019 A 
ENDBRANCH   5   7
ENDBRANCH   1   4
BRANCH   1  14
ATOM     14  C   UNL d   1     -42.639-122.749 -51.531  0.00  0.00     0.040 C 
BRANCH  14  15
ATOM     15  C   UNL d   1     -42.889-122.694 -50.742  0.00  0.00     0.101 A 
ATOM     16  O   UNL d   1     -42.552-122.934 -50.034  0.00  0.00    -0.307 OA
ATOM     17  C   UNL d   1     -43.072-122.722 -49.428  0.00  0.00     0.100 A 
ATOM     18  C   UNL d   1     -42.954-122.860 -48.609  0.00  0.00     0.027 C 
ATOM     19  C   UNL d   1     -43.722-122.356 -49.755  0.00  0.00     0.027 A 
ATOM     20  C   UNL d   1     -43.611-122.336 -50.576  0.00  0.00     0.027 A 
ENDBRANCH  14  15
ENDBRANCH   1  14
TORSDOF 4
ENDMDL
