MODEL 1
REMARK VINA RESULT:      -2.5      0.000      0.000
REMARK  4 active torsions:
REMARK  status: ('A' for Active; 'I' for Inactive)
REMARK    1  A    between atoms: C_2  and  S_1 
REMARK    2  A    between atoms: N_3  and  S_1 
REMARK    3  A    between atoms: C_4  and  N_3 
REMARK    4  A    between atoms: O_12  and  C_10 
ROOT
ATOM      1  N   UNL d   1      31.034  17.480 -24.874  0.00  0.00    -0.156 NA
ENDROOT
BRANCH   1   2
ATOM      2  S   UNL d   1      30.332  17.023 -24.690  0.00  0.00     0.291 S 
ATOM      3  O   UNL d   1      30.666  16.367 -25.071  0.00  0.00    -0.198 OA
ATOM      4  O   UNL d   1      30.003  17.682 -24.310  0.00  0.00    -0.198 OA
BRANCH   2   5
ATOM      5  C   UNL d   1      29.653  16.581 -24.512  0.00  0.00     0.135 A 
ATOM      6  S   UNL d   1      29.471  15.800 -24.656  0.00  0.00    -0.073 SA
ATOM      7  C   UNL d   1      28.732  15.676 -24.358  0.00  0.00     0.036 A 
ATOM      8  C   UNL d   1      28.463  16.354 -24.041  0.00  0.00     0.008 A 
ATOM      9  C   UNL d   1      29.017  16.941 -24.121  0.00  0.00     0.020 A 
ENDBRANCH   2   5
ENDBRANCH   1   2
BRANCH   1  10
ATOM     10  C   UNL d   1      31.695  17.476 -24.327  0.00  0.00     0.116 A 
ATOM     11  C   UNL d   1      32.311  18.079 -24.396  0.00  0.00     0.112 A 
ATOM     12  C   UNL d   1      32.920  18.098 -23.913  0.00  0.00     0.026 A 
ATOM     13  C   UNL d   1      33.003  17.533 -23.307  0.00  0.00     0.002 A 
ATOM     14  C   UNL d   1      32.429  16.948 -23.221  0.00  0.00     0.002 A 
ATOM     15  C   UNL d   1      31.771  16.927 -23.741  0.00  0.00     0.022 A 
BRANCH  11  16
ATOM     16  O   UNL d   1      32.270  18.672 -24.995  0.00  0.00    -0.327 OA
ATOM     17  C   UNL d   1      32.873  19.198 -25.097  0.00  0.00     0.181 C 
ENDBRANCH  11  16
ENDBRANCH   1  10
TORSDOF 4
ENDMDL
MODEL 2
REMARK VINA RESULT:      -2.5      1.444      3.334
REMARK  4 active torsions:
REMARK  status: ('A' for Active; 'I' for Inactive)
REMARK    1  A    between atoms: C_2  and  S_1 
REMARK    2  A    between atoms: N_3  and  S_1 
REMARK    3  A    between atoms: C_4  and  N_3 
REMARK    4  A    between atoms: O_12  and  C_10 
ROOT
ATOM      1  N   UNL d   1      30.761  16.762 -24.460  0.00  0.00    -0.156 NA
ENDROOT
BRANCH   1   2
ATOM      2  S   UNL d   1      31.474  16.472 -24.081  0.00  0.00     0.291 S 
ATOM      3  O   UNL d   1      31.487  17.148 -23.601  0.00  0.00    -0.198 OA
ATOM      4  O   UNL d   1      31.457  15.798 -24.564  0.00  0.00    -0.198 OA
BRANCH   2   5
ATOM      5  C   UNL d   1      32.164  16.192 -23.715  0.00  0.00     0.135 A 
ATOM      6  S   UNL d   1      32.507  15.453 -23.718  0.00  0.00    -0.073 SA
ATOM      7  C   UNL d   1      33.172  15.505 -23.265  0.00  0.00     0.036 A 
ATOM      8  C   UNL d   1      33.241  16.248 -22.991  0.00  0.00     0.008 A 
ATOM      9  C   UNL d   1      32.624  16.704 -23.255  0.00  0.00     0.020 A 
ENDBRANCH   2   5
ENDBRANCH   1   2
BRANCH   1  10
ATOM     10  C   UNL d   1      29.996  16.564 -24.126  0.00  0.00     0.116 A 
ATOM     11  C   UNL d   1      29.296  17.012 -24.364  0.00  0.00     0.112 A 
ATOM     12  C   UNL d   1      28.592  16.853 -24.076  0.00  0.00     0.026 A 
ATOM     13  C   UNL d   1      28.484  16.241 -23.522  0.00  0.00     0.002 A 
ATOM     14  C   UNL d   1      29.136  15.799 -23.279  0.00  0.00     0.002 A 
ATOM     15  C   UNL d   1      29.897  15.970 -23.589  0.00  0.00     0.022 A 
BRANCH  11  16
ATOM     16  O   UNL d   1      29.357  17.642 -24.923  0.00  0.00    -0.327 OA
ATOM     17  C   UNL d   1      28.719  18.108 -25.089  0.00  0.00     0.181 C 
ENDBRANCH  11  16
ENDBRANCH   1  10
TORSDOF 4
ENDMDL
MODEL 3
REMARK VINA RESULT:      -2.4      1.266      3.649
REMARK  4 active torsions:
REMARK  status: ('A' for Active; 'I' for Inactive)
REMARK    1  A    between atoms: C_2  and  S_1 
REMARK    2  A    between atoms: N_3  and  S_1 
REMARK    3  A    between atoms: C_4  and  N_3 
REMARK    4  A    between atoms: O_12  and  C_10 
ROOT
ATOM      1  N   UNL d   1      31.046  16.532 -24.017  0.00  0.00    -0.156 NA
ENDROOT
BRANCH   1   2
ATOM      2  S   UNL d   1      31.674  17.105 -24.133  0.00  0.00     0.291 S 
ATOM      3  O   UNL d   1      31.589  17.349 -23.345  0.00  0.00    -0.198 OA
ATOM      4  O   UNL d   1      31.754  16.857 -24.920  0.00  0.00    -0.198 OA
BRANCH   2   5
ATOM      5  C   UNL d   1      32.280  17.659 -24.246  0.00  0.00     0.135 A 
ATOM      6  S   UNL d   1      32.741  17.821 -24.898  0.00  0.00    -0.073 SA
ATOM      7  C   UNL d   1      33.241  18.418 -24.686  0.00  0.00     0.036 A 
ATOM      8  C   UNL d   1      33.096  18.620 -23.931  0.00  0.00     0.008 A 
ATOM      9  C   UNL d   1      32.499  18.163 -23.626  0.00  0.00     0.020 A 
ENDBRANCH   2   5
ENDBRANCH   1   2
BRANCH   1  10
ATOM     10  C   UNL d   1      30.240  16.741 -24.222  0.00  0.00     0.116 A 
ATOM     11  C   UNL d   1      29.581  16.326 -23.846  0.00  0.00     0.112 A 
ATOM     12  C   UNL d   1      28.842  16.497 -24.015  0.00  0.00     0.026 A 
ATOM     13  C   UNL d   1      28.655  17.091 -24.567  0.00  0.00     0.002 A 
ATOM     14  C   UNL d   1      29.265  17.502 -24.938  0.00  0.00     0.002 A 
ATOM     15  C   UNL d   1      30.064  17.318 -24.758  0.00  0.00     0.022 A 
BRANCH  11  16
ATOM     16  O   UNL d   1      29.722  15.715 -23.280  0.00  0.00    -0.327 OA
ATOM     17  C   UNL d   1      29.129  15.453 -22.802  0.00  0.00     0.181 C 
ENDBRANCH  11  16
ENDBRANCH   1  10
TORSDOF 4
ENDMDL
MODEL 4
REMARK VINA RESULT:      -2.0      6.621      7.634
REMARK  4 active torsions:
REMARK  status: ('A' for Active; 'I' for Inactive)
REMARK    1  A    between atoms: C_2  and  S_1 
REMARK    2  A    between atoms: N_3  and  S_1 
REMARK    3  A    between atoms: C_4  and  N_3 
REMARK    4  A    between atoms: O_12  and  C_10 
ROOT
ATOM      1  N   UNL d   1      32.303  23.212 -20.393  0.00  0.00    -0.156 NA
ENDROOT
BRANCH   1   2
ATOM      2  S   UNL d   1      32.463  23.252 -19.552  0.00  0.00     0.291 S 
ATOM      3  O   UNL d   1      33.227  23.529 -19.716  0.00  0.00    -0.198 OA
ATOM      4  O   UNL d   1      31.698  22.976 -19.393  0.00  0.00    -0.198 OA
BRANCH   2   5
ATOM      5  C   UNL d   1      32.618  23.291 -18.738  0.00  0.00     0.135 A 
ATOM      6  S   UNL d   1      33.241  23.004 -18.298  0.00  0.00    -0.073 SA
ATOM      7  C   UNL d   1      33.095  23.207 -17.531  0.00  0.00     0.036 A 
ATOM      8  C   UNL d   1      32.408  23.605 -17.494  0.00  0.00     0.008 A 
ATOM      9  C   UNL d   1      32.083  23.675 -18.234  0.00  0.00     0.020 A 
ENDBRANCH   2   5
ENDBRANCH   1   2
BRANCH   1  10
ATOM     10  C   UNL d   1      32.478  22.490 -20.822  0.00  0.00     0.116 A 
ATOM     11  C   UNL d   1      32.757  22.534 -21.639  0.00  0.00     0.112 A 
ATOM     12  C   UNL d   1      32.923  21.895 -22.049  0.00  0.00     0.026 A 
ATOM     13  C   UNL d   1      32.838  21.137 -21.714  0.00  0.00     0.002 A 
ATOM     14  C   UNL d   1      32.574  21.069 -20.936  0.00  0.00     0.002 A 
ATOM     15  C   UNL d   1      32.394  21.758 -20.493  0.00  0.00     0.022 A 
BRANCH  11  16
ATOM     16  O   UNL d   1      32.858  23.280 -22.021  0.00  0.00    -0.327 OA
ATOM     17  C   UNL d   1      32.809  23.343 -22.824  0.00  0.00     0.181 C 
ENDBRANCH  11  16
ENDBRANCH   1  10
TORSDOF 4
ENDMDL
MODEL 5
REMARK VINA RESULT:      -1.8      4.992      6.252
REMARK  4 active torsions:
REMARK  status: ('A' for Active; 'I' for Inactive)
REMARK    1  A    between atoms: C_2  and  S_1 
REMARK    2  A    between atoms: N_3  and  S_1 
REMARK    3  A    between atoms: C_4  and  N_3 
REMARK    4  A    between atoms: O_12  and  C_10 
ROOT
ATOM      1  N   UNL d   1      32.450  21.020 -21.198  0.00  0.00    -0.156 NA
ENDROOT
BRANCH   1   2
ATOM      2  S   UNL d   1      32.530  21.721 -20.711  0.00  0.00     0.291 S 
ATOM      3  O   UNL d   1      31.819  22.013 -21.022  0.00  0.00    -0.198 OA
ATOM      4  O   UNL d   1      33.241  21.425 -20.403  0.00  0.00    -0.198 OA
BRANCH   2   5
ATOM      5  C   UNL d   1      32.609  22.399 -20.240  0.00  0.00     0.135 A 
ATOM      6  S   UNL d   1      33.240  22.678 -19.806  0.00  0.00    -0.073 SA
ATOM      7  C   UNL d   1      32.996  23.364 -19.459  0.00  0.00     0.036 A 
ATOM      8  C   UNL d   1      32.243  23.508 -19.669  0.00  0.00     0.008 A 
ATOM      9  C   UNL d   1      31.971  22.922 -20.159  0.00  0.00     0.020 A 
ENDBRANCH   2   5
ENDBRANCH   1   2
BRANCH   1  10
ATOM     10  C   UNL d   1      32.717  21.039 -22.013  0.00  0.00     0.116 A 
ATOM     11  C   UNL d   1      32.921  20.301 -22.414  0.00  0.00     0.112 A 
ATOM     12  C   UNL d   1      33.166  20.292 -23.152  0.00  0.00     0.026 A 
ATOM     13  C   UNL d   1      33.241  20.998 -23.587  0.00  0.00     0.002 A 
ATOM     14  C   UNL d   1      33.052  21.714 -23.227  0.00  0.00     0.002 A 
ATOM     15  C   UNL d   1      32.788  21.726 -22.430  0.00  0.00     0.022 A 
BRANCH  11  16
ATOM     16  O   UNL d   1      32.861  19.561 -22.013  0.00  0.00    -0.327 OA
ATOM     17  C   UNL d   1      33.056  18.873 -22.386  0.00  0.00     0.181 C 
ENDBRANCH  11  16
ENDBRANCH   1  10
TORSDOF 4
ENDMDL
MODEL 6
REMARK VINA RESULT:      -1.2      5.001      6.051
REMARK  4 active torsions:
REMARK  status: ('A' for Active; 'I' for Inactive)
REMARK    1  A    between atoms: C_2  and  S_1 
REMARK    2  A    between atoms: N_3  and  S_1 
REMARK    3  A    between atoms: C_4  and  N_3 
REMARK    4  A    between atoms: O_12  and  C_10 
ROOT
ATOM      1  N   UNL d   1      32.306  21.271 -20.739  0.00  0.00    -0.156 NA
ENDROOT
BRANCH   1   2
ATOM      2  S   UNL d   1      32.565  20.726 -21.348  0.00  0.00     0.291 S 
ATOM      3  O   UNL d   1      33.184  20.477 -20.855  0.00  0.00    -0.198 OA
ATOM      4  O   UNL d   1      31.945  20.978 -21.837  0.00  0.00    -0.198 OA
BRANCH   2   5
ATOM      5  C   UNL d   1      32.816  20.199 -21.937  0.00  0.00     0.135 A 
ATOM      6  S   UNL d   1      32.899  20.298 -22.742  0.00  0.00    -0.073 SA
ATOM      7  C   UNL d   1      33.163  19.594 -23.035  0.00  0.00     0.036 A 
ATOM      8  C   UNL d   1      33.241  19.077 -22.436  0.00  0.00     0.008 A 
ATOM      9  C   UNL d   1      33.031  19.425 -21.734  0.00  0.00     0.020 A 
ENDBRANCH   2   5
ENDBRANCH   1   2
BRANCH   1  10
ATOM     10  C   UNL d   1      32.553  22.092 -20.775  0.00  0.00     0.116 A 
ATOM     11  C   UNL d   1      32.889  22.470 -20.073  0.00  0.00     0.112 A 
ATOM     12  C   UNL d   1      33.120  23.212 -20.080  0.00  0.00     0.026 A 
ATOM     13  C   UNL d   1      33.052  23.675 -20.768  0.00  0.00     0.002 A 
ATOM     14  C   UNL d   1      32.735  23.338 -21.451  0.00  0.00     0.002 A 
ATOM     15  C   UNL d   1      32.486  22.537 -21.445  0.00  0.00     0.022 A 
BRANCH  11  16
ATOM     16  O   UNL d   1      32.977  22.040 -19.352  0.00  0.00    -0.327 OA
ATOM     17  C   UNL d   1      33.158  22.421 -18.664  0.00  0.00     0.181 C 
ENDBRANCH  11  16
ENDBRANCH   1  10
TORSDOF 4
ENDMDL
MODEL 7
REMARK VINA RESULT:      -0.4      3.457      4.808
REMARK  4 active torsions:
REMARK  status: ('A' for Active; 'I' for Inactive)
REMARK    1  A    between atoms: C_2  and  S_1 
REMARK    2  A    between atoms: N_3  and  S_1 
REMARK    3  A    between atoms: C_4  and  N_3 
REMARK    4  A    between atoms: O_12  and  C_10 
ROOT
ATOM      1  N   UNL d   1      32.379  20.262 -22.876  0.00  0.00    -0.156 NA
ENDROOT
BRANCH   1   2
ATOM      2  S   UNL d   1      32.523  20.799 -22.223  0.00  0.00     0.291 S 
ATOM      3  O   UNL d   1      33.241  21.024 -22.573  0.00  0.00    -0.198 OA
ATOM      4  O   UNL d   1      31.805  20.571 -21.878  0.00  0.00    -0.198 OA
BRANCH   2   5
ATOM      5  C   UNL d   1      32.662  21.318 -21.592  0.00  0.00     0.135 A 
ATOM      6  S   UNL d   1      32.524  21.236 -20.793  0.00  0.00    -0.073 SA
ATOM      7  C   UNL d   1      32.769  21.921 -20.444  0.00  0.00     0.036 A 
ATOM      8  C   UNL d   1      33.050  22.411 -21.005  0.00  0.00     0.008 A 
ATOM      9  C   UNL d   1      32.996  22.063 -21.735  0.00  0.00     0.020 A 
ENDBRANCH   2   5
ENDBRANCH   1   2
BRANCH   1  10
ATOM     10  C   UNL d   1      32.677  19.458 -22.834  0.00  0.00     0.116 A 
ATOM     11  C   UNL d   1      32.683  18.967 -23.546  0.00  0.00     0.112 A 
ATOM     12  C   UNL d   1      32.948  18.235 -23.534  0.00  0.00     0.026 A 
ATOM     13  C   UNL d   1      33.237  17.896 -22.831  0.00  0.00     0.002 A 
ATOM     14  C   UNL d   1      33.241  18.344 -22.140  0.00  0.00     0.002 A 
ATOM     15  C   UNL d   1      32.956  19.133 -22.150  0.00  0.00     0.022 A 
BRANCH  11  16
ATOM     16  O   UNL d   1      32.400  19.268 -24.281  0.00  0.00    -0.327 OA
ATOM     17  C   UNL d   1      32.481  18.841 -24.961  0.00  0.00     0.181 C 
ENDBRANCH  11  16
ENDBRANCH   1  10
TORSDOF 4
ENDMDL
MODEL 8
REMARK VINA RESULT:      -0.4      2.483      4.076
REMARK  4 active torsions:
REMARK  status: ('A' for Active; 'I' for Inactive)
REMARK    1  A    between atoms: C_2  and  S_1 
REMARK    2  A    between atoms: N_3  and  S_1 
REMARK    3  A    between atoms: C_4  and  N_3 
REMARK    4  A    between atoms: O_12  and  C_10 
ROOT
ATOM      1  N   UNL d   1      32.171  18.381 -22.944  0.00  0.00    -0.156 NA
ENDROOT
BRANCH   1   2
ATOM      2  S   UNL d   1      32.477  19.122 -22.639  0.00  0.00     0.291 S 
ATOM      3  O   UNL d   1      31.872  19.529 -23.034  0.00  0.00    -0.198 OA
ATOM      4  O   UNL d   1      33.080  18.709 -22.246  0.00  0.00    -0.198 OA
BRANCH   2   5
ATOM      5  C   UNL d   1      32.774  19.837 -22.343  0.00  0.00     0.135 A 
ATOM      6  S   UNL d   1      32.993  20.523 -22.725  0.00  0.00    -0.073 SA
ATOM      7  C   UNL d   1      33.241  21.036 -22.154  0.00  0.00     0.036 A 
ATOM      8  C   UNL d   1      33.178  20.684 -21.444  0.00  0.00     0.008 A 
ATOM      9  C   UNL d   1      32.888  19.931 -21.528  0.00  0.00     0.020 A 
ENDBRANCH   2   5
ENDBRANCH   1   2
BRANCH   1  10
ATOM     10  C   UNL d   1      32.475  18.072 -23.685  0.00  0.00     0.116 A 
ATOM     11  C   UNL d   1      32.356  17.239 -23.882  0.00  0.00     0.112 A 
ATOM     12  C   UNL d   1      32.623  16.935 -24.547  0.00  0.00     0.026 A 
ATOM     13  C   UNL d   1      33.035  17.404 -25.097  0.00  0.00     0.002 A 
ATOM     14  C   UNL d   1      33.161  18.201 -24.932  0.00  0.00     0.002 A 
ATOM     15  C   UNL d   1      32.874  18.531 -24.215  0.00  0.00     0.022 A 
BRANCH  11  16
ATOM     16  O   UNL d   1      31.944  16.725 -23.355  0.00  0.00    -0.327 OA
ATOM     17  C   UNL d   1      31.981  15.924 -23.446  0.00  0.00     0.181 C 
ENDBRANCH  11  16
ENDBRANCH   1  10
TORSDOF 4
ENDMDL
MODEL 9
REMARK VINA RESULT:      -0.2      2.862      4.032
REMARK  4 active torsions:
REMARK  status: ('A' for Active; 'I' for Inactive)
REMARK    1  A    between atoms: C_2  and  S_1 
REMARK    2  A    between atoms: N_3  and  S_1 
REMARK    3  A    between atoms: C_4  and  N_3 
REMARK    4  A    between atoms: O_12  and  C_10 
ROOT
ATOM      1  N   UNL d   1      32.274  19.488 -22.425  0.00  0.00    -0.156 NA
ENDROOT
BRANCH   1   2
ATOM      2  S   UNL d   1      32.508  18.839 -22.934  0.00  0.00     0.291 S 
ATOM      3  O   UNL d   1      31.944  19.079 -23.492  0.00  0.00    -0.198 OA
ATOM      4  O   UNL d   1      33.071  18.603 -22.372  0.00  0.00    -0.198 OA
BRANCH   2   5
ATOM      5  C   UNL d   1      32.735  18.210 -23.425  0.00  0.00     0.135 A 
ATOM      6  S   UNL d   1      32.666  18.111 -24.231  0.00  0.00    -0.073 SA
ATOM      7  C   UNL d   1      32.984  17.389 -24.402  0.00  0.00     0.036 A 
ATOM      8  C   UNL d   1      33.241  17.053 -23.730  0.00  0.00     0.008 A 
ATOM      9  C   UNL d   1      33.100  17.542 -23.098  0.00  0.00     0.020 A 
ENDBRANCH   2   5
ENDBRANCH   1   2
BRANCH   1  10
ATOM     10  C   UNL d   1      32.608  20.268 -22.555  0.00  0.00     0.116 A 
ATOM     11  C   UNL d   1      32.640  20.834 -21.902  0.00  0.00     0.112 A 
ATOM     12  C   UNL d   1      32.938  21.546 -21.994  0.00  0.00     0.026 A 
ATOM     13  C   UNL d   1      33.241  21.792 -22.730  0.00  0.00     0.002 A 
ATOM     14  C   UNL d   1      33.222  21.270 -23.368  0.00  0.00     0.002 A 
ATOM     15  C   UNL d   1      32.901  20.501 -23.270  0.00  0.00     0.022 A 
BRANCH  11  16
ATOM     16  O   UNL d   1      32.345  20.630 -21.139  0.00  0.00    -0.327 OA
ATOM     17  C   UNL d   1      32.079  21.199 -20.634  0.00  0.00     0.181 C 
ENDBRANCH  11  16
ENDBRANCH   1  10
TORSDOF 4
ENDMDL
