MODEL 1
REMARK VINA RESULT:      20.6      0.000      0.000
REMARK  2 active torsions:
REMARK  status: ('A' for Active; 'I' for Inactive)
REMARK    1  A    between atoms: N_2  and  S_1 
REMARK    2  A    between atoms: C_3  and  S_1 
ROOT
ATOM      1  N   UNL d   1     -57.888 -98.789 -44.474  0.00  0.00    -0.231 N 
ATOM      2  C   UNL d   1     -58.505 -98.779 -45.030  0.00  0.00     0.075 A 
ATOM      3  C   UNL d   1     -58.261 -98.781 -43.717  0.00  0.00     0.092 A 
ATOM      4  C   UNL d   1     -59.236 -98.766 -44.604  0.00  0.00     0.018 A 
ATOM      5  C   UNL d   1     -59.052 -98.768 -43.801  0.00  0.00     0.021 A 
ATOM      6  C   UNL d   1     -58.522 -98.780 -45.844  0.00  0.00     0.018 A 
ATOM      7  C   UNL d   1     -59.943 -98.755 -45.006  0.00  0.00     0.002 A 
ATOM      8  C   UNL d   1     -59.237 -98.769 -46.256  0.00  0.00     0.002 A 
ATOM      9  C   UNL d   1     -59.950 -98.756 -45.831  0.00  0.00     0.000 A 
ENDROOT
BRANCH   1  10
ATOM     10  S   UNL d   1     -57.074 -98.803 -44.541  0.00  0.00     0.277 S 
ATOM     11  O   UNL d   1     -56.995 -98.850 -43.703  0.00  0.00    -0.199 OA
ATOM     12  O   UNL d   1     -57.129 -98.756 -45.385  0.00  0.00    -0.199 OA
BRANCH  10  13
ATOM     13  C   UNL d   1     -56.255 -98.817 -44.594  0.00  0.00     0.133 A 
ATOM     14  S   UNL d   1     -55.700 -98.883 -43.964  0.00  0.00    -0.074 SA
ATOM     15  C   UNL d   1     -54.947 -98.874 -44.278  0.00  0.00     0.036 A 
ATOM     16  C   UNL d   1     -54.980 -98.805 -45.097  0.00  0.00     0.008 A 
ATOM     17  C   UNL d   1     -55.787 -98.769 -45.294  0.00  0.00     0.020 A 
ENDBRANCH  10  13
ENDBRANCH   1  10
TORSDOF 2
ENDMDL
