MODEL 1
REMARK VINA RESULT:      64.1      0.000      0.000
REMARK  1 active torsions:
REMARK  status: ('A' for Active; 'I' for Inactive)
REMARK    1  A    between atoms: C_14  and  C_7 
ROOT
ATOM      1  C   UNL d   1      59.468  49.433  51.811  0.00  0.00     0.121 A 
ATOM      2  C   UNL d   1      58.941  49.442  51.176  0.00  0.00     0.058 A 
ATOM      3  N   UNL d   1      60.230  49.364  51.502  0.00  0.00    -0.195 NA
ATOM      4  S   UNL d   1      59.186  49.488  52.581  0.00  0.00    -0.068 SA
ATOM      5  C   UNL d   1      58.383  49.552  52.713  0.00  0.00     0.027 A 
ATOM      6  C   UNL d   1      57.856  49.561  52.078  0.00  0.00     0.003 A 
ATOM      7  C   UNL d   1      58.132  49.506  51.313  0.00  0.00     0.010 A 
ATOM      8  C   UNL d   1      60.177  49.330  50.684  0.00  0.00     0.311 A 
ATOM      9  S   UNL d   1      59.379  49.378  50.476  0.00  0.00    -0.024 SA
ATOM     10  C   UNL d   1      57.120  49.644  52.723  0.00  0.00    -0.017 A 
ATOM     11  C   UNL d   1      57.603  49.643  53.482  0.00  0.00    -0.012 A 
ATOM     12  C   UNL d   1      57.661  49.684  54.467  0.00  0.00     0.053 A 
ATOM     13  O   UNL d   1      60.809  49.261  50.159  0.00  0.00    -0.258 OA
ATOM     14  C   UNL d   1      56.107  49.706  52.499  0.00  0.00    -0.004 A 
ATOM     15  C   UNL d   1      56.730  49.691  53.151  0.00  0.00    -0.004 A 
ENDROOT
BRANCH   7  16
ATOM     16  C   UNL d   1      57.605  49.515  50.678  0.00  0.00     0.020 A 
ATOM     17  C   UNL d   1      56.804  49.339  50.806  0.00  0.00     0.099 A 
ATOM     18  N   UNL d   1      56.283  49.350  50.165  0.00  0.00    -0.242 NA
ATOM     19  C   UNL d   1      56.552  49.533  49.410  0.00  0.00     0.099 A 
ATOM     20  C   UNL d   1      57.350  49.708  49.292  0.00  0.00     0.021 A 
ATOM     21  C   UNL d   1      57.873  49.699  49.922  0.00  0.00     0.003 A 
ENDBRANCH   7  16
TORSDOF 1
ENDMDL
