MODEL 1
REMARK VINA RESULT:      -9.5      0.000      0.000
REMARK  5 active torsions:
REMARK  status: ('A' for Active; 'I' for Inactive)
REMARK    1  A    between atoms: C_2  and  S_1 
REMARK    2  A    between atoms: N_3  and  S_1 
REMARK    3  A    between atoms: C_5  and  C_6 
REMARK       I    between atoms: N_10  and  C_5 
REMARK    4  A    between atoms: C_25  and  N_10 
REMARK    5  A    between atoms: C_24  and  C_25 
ROOT
ATOM      1  C   UNL d   1      52.747  34.016  53.602  0.00  0.00     0.104 A 
ATOM      2  C   UNL d   1      53.291  33.466  53.326  0.00  0.00     0.018 A 
ATOM      3  C   UNL d   1      53.994  33.339  53.739  0.00  0.00     0.059 A 
ATOM      4  C   UNL d   1      52.899  34.445  54.294  0.00  0.00     0.012 A 
ATOM      5  C   UNL d   1      54.154  33.763  54.430  0.00  0.00     0.005 A 
ATOM      6  C   UNL d   1      53.603  34.318  54.706  0.00  0.00     0.001 A 
ATOM      7  C   UNL d   1      52.342  35.006  54.574  0.00  0.00     0.001 C 
ENDROOT
BRANCH   3   8
ATOM      8  C   UNL d   1      54.540  32.791  53.467  0.00  0.00     0.279 C 
ATOM      9  N   UNL d   1      54.369  31.982  53.514  0.00  0.00    -0.206 NA
ATOM     10  O   UNL d   1      55.251  33.045  53.149  0.00  0.00    -0.265 OA
BRANCH   9  11
ATOM     11  C   UNL d   1      53.659  31.728  53.831  0.00  0.00     0.102 C 
BRANCH  11  12
ATOM     12  C   UNL d   1      53.492  30.908  53.878  0.00  0.00     0.021 A 
ATOM     13  C   UNL d   1      53.595  30.494  54.586  0.00  0.00     0.028 A 
ATOM     14  C   UNL d   1      53.428  29.692  54.616  0.00  0.00     0.119 A 
ATOM     15  O   UNL d   1      53.475  29.136  55.231  0.00  0.00    -0.300 OA
ATOM     16  C   UNL d   1      53.154  29.293  53.941  0.00  0.00     0.119 A 
ATOM     17  C   UNL d   1      53.235  28.412  54.939  0.00  0.00     0.304 A 
ATOM     18  O   UNL d   1      53.036  28.509  54.139  0.00  0.00    -0.300 OA
ATOM     19  C   UNL d   1      53.054  29.714  53.241  0.00  0.00     0.026 A 
ATOM     20  C   UNL d   1      53.222  30.515  53.211  0.00  0.00     0.004 A 
ENDBRANCH  11  12
ENDBRANCH   9  11
ENDBRANCH   3   8
BRANCH   1  21
ATOM     21  S   UNL d   1      52.044  34.138  53.182  0.00  0.00     0.272 S 
ATOM     22  O   UNL d   1      51.650  33.633  53.703  0.00  0.00    -0.200 OA
ATOM     23  O   UNL d   1      52.442  34.642  52.666  0.00  0.00    -0.200 OA
BRANCH  21  24
ATOM     24  N   UNL d   1      51.345  34.258  52.767  0.00  0.00    -0.225 N 
ATOM     25  C   UNL d   1      51.355  34.274  51.948  0.00  0.00     0.118 A 
ATOM     26  C   UNL d   1      50.658  34.394  51.522  0.00  0.00     0.142 A 
ATOM     27  O   UNL d   1      49.945  34.500  51.932  0.00  0.00    -0.300 OA
ATOM     28  C   UNL d   1      49.935  34.485  52.750  0.00  0.00     0.142 A 
ATOM     29  C   UNL d   1      50.632  34.364  53.176  0.00  0.00     0.118 A 
ENDBRANCH  21  24
ENDBRANCH   1  21
TORSDOF 5
ENDMDL
MODEL 2
REMARK VINA RESULT:      -9.1      1.218      4.712
REMARK  5 active torsions:
REMARK  status: ('A' for Active; 'I' for Inactive)
REMARK    1  A    between atoms: C_2  and  S_1 
REMARK    2  A    between atoms: N_3  and  S_1 
REMARK    3  A    between atoms: C_5  and  C_6 
REMARK       I    between atoms: N_10  and  C_5 
REMARK    4  A    between atoms: C_25  and  N_10 
REMARK    5  A    between atoms: C_24  and  C_25 
ROOT
ATOM      1  C   UNL d   1      53.641  32.293  53.736  0.00  0.00     0.104 A 
ATOM      2  C   UNL d   1      53.110  32.830  54.058  0.00  0.00     0.018 A 
ATOM      3  C   UNL d   1      53.293  33.635  54.073  0.00  0.00     0.059 A 
ATOM      4  C   UNL d   1      54.363  32.554  53.425  0.00  0.00     0.012 A 
ATOM      5  C   UNL d   1      54.011  33.904  53.764  0.00  0.00     0.005 A 
ATOM      6  C   UNL d   1      54.546  33.359  53.439  0.00  0.00     0.001 A 
ATOM      7  C   UNL d   1      54.904  32.005  53.096  0.00  0.00     0.001 C 
ENDROOT
BRANCH   3   8
ATOM      8  C   UNL d   1      52.765  34.174  54.394  0.00  0.00     0.279 C 
ATOM      9  N   UNL d   1      52.114  34.426  53.949  0.00  0.00    -0.206 NA
ATOM     10  O   UNL d   1      52.884  34.460  55.152  0.00  0.00    -0.265 OA
BRANCH   9  11
ATOM     11  C   UNL d   1      51.996  34.140  53.192  0.00  0.00     0.102 C 
BRANCH  11  12
ATOM     12  C   UNL d   1      51.273  34.292  52.796  0.00  0.00     0.021 A 
ATOM     13  C   UNL d   1      50.625  34.607  53.200  0.00  0.00     0.028 A 
ATOM     14  C   UNL d   1      49.924  34.750  52.799  0.00  0.00     0.119 A 
ATOM     15  O   UNL d   1      49.193  35.056  53.046  0.00  0.00    -0.300 OA
ATOM     16  C   UNL d   1      49.861  34.580  51.988  0.00  0.00     0.119 A 
ATOM     17  C   UNL d   1      48.693  35.073  52.401  0.00  0.00     0.304 A 
ATOM     18  O   UNL d   1      49.107  34.779  51.745  0.00  0.00    -0.300 OA
ATOM     19  C   UNL d   1      50.512  34.267  51.594  0.00  0.00     0.026 A 
ATOM     20  C   UNL d   1      51.212  34.124  51.995  0.00  0.00     0.004 A 
ENDBRANCH  11  12
ENDBRANCH   9  11
ENDBRANCH   3   8
BRANCH   1  21
ATOM     21  S   UNL d   1      53.449  31.488  53.725  0.00  0.00     0.272 S 
ATOM     22  O   UNL d   1      53.219  31.558  52.935  0.00  0.00    -0.200 OA
ATOM     23  O   UNL d   1      53.681  31.425  54.513  0.00  0.00    -0.200 OA
BRANCH  21  24
ATOM     24  N   UNL d   1      53.259  30.689  53.713  0.00  0.00    -0.225 N 
ATOM     25  C   UNL d   1      52.811  30.385  53.098  0.00  0.00     0.118 A 
ATOM     26  C   UNL d   1      52.615  29.584  53.078  0.00  0.00     0.142 A 
ATOM     27  O   UNL d   1      52.876  29.086  53.688  0.00  0.00    -0.300 OA
ATOM     28  C   UNL d   1      53.323  29.390  54.302  0.00  0.00     0.142 A 
ATOM     29  C   UNL d   1      53.519  30.191  54.322  0.00  0.00     0.118 A 
ENDBRANCH  21  24
ENDBRANCH   1  21
TORSDOF 5
ENDMDL
MODEL 3
REMARK VINA RESULT:      -8.3      1.627      5.322
REMARK  5 active torsions:
REMARK  status: ('A' for Active; 'I' for Inactive)
REMARK    1  A    between atoms: C_2  and  S_1 
REMARK    2  A    between atoms: N_3  and  S_1 
REMARK    3  A    between atoms: C_5  and  C_6 
REMARK       I    between atoms: N_10  and  C_5 
REMARK    4  A    between atoms: C_25  and  N_10 
REMARK    5  A    between atoms: C_24  and  C_25 
ROOT
ATOM      1  C   UNL d   1      52.422  33.055  53.172  0.00  0.00     0.104 A 
ATOM      2  C   UNL d   1      52.010  33.297  52.504  0.00  0.00     0.018 A 
ATOM      3  C   UNL d   1      51.771  34.084  52.428  0.00  0.00     0.059 A 
ATOM      4  C   UNL d   1      52.601  33.597  53.772  0.00  0.00     0.012 A 
ATOM      5  C   UNL d   1      51.946  34.631  53.023  0.00  0.00     0.005 A 
ATOM      6  C   UNL d   1      52.362  34.384  53.696  0.00  0.00     0.001 A 
ATOM      7  C   UNL d   1      53.022  33.349  54.454  0.00  0.00     0.001 C 
ENDROOT
BRANCH   3   8
ATOM      8  C   UNL d   1      51.360  34.329  51.763  0.00  0.00     0.279 C 
ATOM      9  N   UNL d   1      50.573  34.576  51.834  0.00  0.00    -0.206 NA
ATOM     10  O   UNL d   1      51.728  34.328  51.031  0.00  0.00    -0.265 OA
BRANCH   9  11
ATOM     11  C   UNL d   1      50.205  34.576  52.565  0.00  0.00     0.102 C 
BRANCH  11  12
ATOM     12  C   UNL d   1      49.446  34.922  52.650  0.00  0.00     0.021 A 
ATOM     13  C   UNL d   1      49.250  35.354  53.326  0.00  0.00     0.028 A 
ATOM     14  C   UNL d   1      48.503  35.686  53.395  0.00  0.00     0.119 A 
ATOM     15  O   UNL d   1      48.148  36.140  53.993  0.00  0.00    -0.300 OA
ATOM     16  C   UNL d   1      47.943  35.591  52.790  0.00  0.00     0.119 A 
ATOM     17  C   UNL d   1      47.387  36.319  53.759  0.00  0.00     0.304 A 
ATOM     18  O   UNL d   1      47.259  35.979  53.013  0.00  0.00    -0.300 OA
ATOM     19  C   UNL d   1      48.147  35.159  52.120  0.00  0.00     0.026 A 
ATOM     20  C   UNL d   1      48.894  34.827  52.051  0.00  0.00     0.004 A 
ENDBRANCH  11  12
ENDBRANCH   9  11
ENDBRANCH   3   8
BRANCH   1  21
ATOM     21  S   UNL d   1      52.657  32.265  53.241  0.00  0.00     0.272 S 
ATOM     22  O   UNL d   1      51.914  32.073  53.544  0.00  0.00    -0.200 OA
ATOM     23  O   UNL d   1      53.398  32.461  52.937  0.00  0.00    -0.200 OA
BRANCH  21  24
ATOM     24  N   UNL d   1      52.890  31.480  53.310  0.00  0.00    -0.225 N 
ATOM     25  C   UNL d   1      52.366  30.880  53.120  0.00  0.00     0.118 A 
ATOM     26  C   UNL d   1      52.590  30.089  53.186  0.00  0.00     0.142 A 
ATOM     27  O   UNL d   1      53.355  29.905  53.447  0.00  0.00    -0.300 OA
ATOM     28  C   UNL d   1      53.880  30.504  53.637  0.00  0.00     0.142 A 
ATOM     29  C   UNL d   1      53.655  31.295  53.571  0.00  0.00     0.118 A 
ENDBRANCH  21  24
ENDBRANCH   1  21
TORSDOF 5
ENDMDL
MODEL 4
REMARK VINA RESULT:      -7.8      2.293      5.710
REMARK  5 active torsions:
REMARK  status: ('A' for Active; 'I' for Inactive)
REMARK    1  A    between atoms: C_2  and  S_1 
REMARK    2  A    between atoms: N_3  and  S_1 
REMARK    3  A    between atoms: C_5  and  C_6 
REMARK       I    between atoms: N_10  and  C_5 
REMARK    4  A    between atoms: C_25  and  N_10 
REMARK    5  A    between atoms: C_24  and  C_25 
ROOT
ATOM      1  C   UNL d   1      52.429  33.974  53.406  0.00  0.00     0.104 A 
ATOM      2  C   UNL d   1      51.684  33.634  53.471  0.00  0.00     0.018 A 
ATOM      3  C   UNL d   1      51.107  33.791  52.902  0.00  0.00     0.059 A 
ATOM      4  C   UNL d   1      52.605  34.476  52.771  0.00  0.00     0.012 A 
ATOM      5  C   UNL d   1      51.275  34.291  52.266  0.00  0.00     0.005 A 
ATOM      6  C   UNL d   1      52.028  34.633  52.203  0.00  0.00     0.001 A 
ATOM      7  C   UNL d   1      53.366  34.822  52.706  0.00  0.00     0.001 C 
ENDROOT
BRANCH   3   8
ATOM      8  C   UNL d   1      50.363  33.453  52.964  0.00  0.00     0.279 C 
ATOM      9  N   UNL d   1      49.690  33.936  52.963  0.00  0.00    -0.206 NA
ATOM     10  O   UNL d   1      50.287  32.640  53.026  0.00  0.00    -0.265 OA
BRANCH   9  11
ATOM     11  C   UNL d   1      49.766  34.749  52.901  0.00  0.00     0.102 C 
BRANCH  11  12
ATOM     12  C   UNL d   1      49.082  35.233  52.904  0.00  0.00     0.021 A 
ATOM     13  C   UNL d   1      48.595  35.286  52.239  0.00  0.00     0.028 A 
ATOM     14  C   UNL d   1      47.930  35.765  52.258  0.00  0.00     0.119 A 
ATOM     15  O   UNL d   1      47.346  35.930  51.691  0.00  0.00    -0.300 OA
ATOM     16  C   UNL d   1      47.742  36.198  52.941  0.00  0.00     0.119 A 
ATOM     17  C   UNL d   1      46.812  36.452  52.021  0.00  0.00     0.304 A 
ATOM     18  O   UNL d   1      47.057  36.618  52.796  0.00  0.00    -0.300 OA
ATOM     19  C   UNL d   1      48.233  36.139  53.599  0.00  0.00     0.026 A 
ATOM     20  C   UNL d   1      48.898  35.660  53.580  0.00  0.00     0.004 A 
ENDBRANCH  11  12
ENDBRANCH   9  11
ENDBRANCH   3   8
BRANCH   1  21
ATOM     21  S   UNL d   1      53.002  33.811  53.980  0.00  0.00     0.272 S 
ATOM     22  O   UNL d   1      53.263  33.168  53.532  0.00  0.00    -0.200 OA
ATOM     23  O   UNL d   1      52.738  34.454  54.423  0.00  0.00    -0.200 OA
BRANCH  21  24
ATOM     24  N   UNL d   1      53.572  33.648  54.549  0.00  0.00    -0.225 N 
ATOM     25  C   UNL d   1      53.820  32.877  54.670  0.00  0.00     0.118 A 
ATOM     26  C   UNL d   1      54.392  32.705  55.240  0.00  0.00     0.142 A 
ATOM     27  O   UNL d   1      54.715  33.321  55.691  0.00  0.00    -0.300 OA
ATOM     28  C   UNL d   1      54.467  34.091  55.570  0.00  0.00     0.142 A 
ATOM     29  C   UNL d   1      53.895  34.264  55.001  0.00  0.00     0.118 A 
ENDBRANCH  21  24
ENDBRANCH   1  21
TORSDOF 5
ENDMDL
MODEL 5
REMARK VINA RESULT:      -6.6      1.807      3.141
REMARK  5 active torsions:
REMARK  status: ('A' for Active; 'I' for Inactive)
REMARK    1  A    between atoms: C_2  and  S_1 
REMARK    2  A    between atoms: N_3  and  S_1 
REMARK    3  A    between atoms: C_5  and  C_6 
REMARK       I    between atoms: N_10  and  C_5 
REMARK    4  A    between atoms: C_25  and  N_10 
REMARK    5  A    between atoms: C_24  and  C_25 
ROOT
ATOM      1  C   UNL d   1      49.833  34.835  52.577  0.00  0.00     0.104 A 
ATOM      2  C   UNL d   1      50.507  34.854  53.047  0.00  0.00     0.018 A 
ATOM      3  C   UNL d   1      51.203  34.496  52.785  0.00  0.00     0.059 A 
ATOM      4  C   UNL d   1      49.848  34.459  51.839  0.00  0.00     0.012 A 
ATOM      5  C   UNL d   1      51.226  34.119  52.050  0.00  0.00     0.005 A 
ATOM      6  C   UNL d   1      50.545  34.102  51.578  0.00  0.00     0.001 A 
ATOM      7  C   UNL d   1      49.160  34.441  51.361  0.00  0.00     0.001 C 
ENDROOT
BRANCH   3   8
ATOM      8  C   UNL d   1      51.877  34.513  53.251  0.00  0.00     0.279 C 
ATOM      9  N   UNL d   1      52.301  33.815  53.386  0.00  0.00    -0.206 NA
ATOM     10  O   UNL d   1      52.128  35.219  53.582  0.00  0.00    -0.265 OA
BRANCH   9  11
ATOM     11  C   UNL d   1      52.051  33.109  53.056  0.00  0.00     0.102 C 
BRANCH  11  12
ATOM     12  C   UNL d   1      52.487  32.406  53.190  0.00  0.00     0.021 A 
ATOM     13  C   UNL d   1      52.152  31.665  53.046  0.00  0.00     0.028 A 
ATOM     14  C   UNL d   1      52.592  30.986  53.183  0.00  0.00     0.119 A 
ATOM     15  O   UNL d   1      52.415  30.180  53.092  0.00  0.00    -0.300 OA
ATOM     16  C   UNL d   1      53.371  31.039  53.466  0.00  0.00     0.119 A 
ATOM     17  C   UNL d   1      53.071  29.748  53.316  0.00  0.00     0.304 A 
ATOM     18  O   UNL d   1      53.664  30.281  53.547  0.00  0.00    -0.300 OA
ATOM     19  C   UNL d   1      53.695  31.782  53.607  0.00  0.00     0.026 A 
ATOM     20  C   UNL d   1      53.256  32.460  53.470  0.00  0.00     0.004 A 
ENDBRANCH  11  12
ENDBRANCH   9  11
ENDBRANCH   3   8
BRANCH   1  21
ATOM     21  S   UNL d   1      49.139  35.196  52.847  0.00  0.00     0.272 S 
ATOM     22  O   UNL d   1      48.978  34.532  53.309  0.00  0.00    -0.200 OA
ATOM     23  O   UNL d   1      49.305  35.857  52.384  0.00  0.00    -0.200 OA
BRANCH  21  24
ATOM     24  N   UNL d   1      48.449  35.554  53.116  0.00  0.00    -0.225 N 
ATOM     25  C   UNL d   1      48.359  35.718  53.912  0.00  0.00     0.118 A 
ATOM     26  C   UNL d   1      47.669  36.077  54.191  0.00  0.00     0.142 A 
ATOM     27  O   UNL d   1      47.067  36.270  53.655  0.00  0.00    -0.300 OA
ATOM     28  C   UNL d   1      47.158  36.106  52.858  0.00  0.00     0.142 A 
ATOM     29  C   UNL d   1      47.847  35.747  52.580  0.00  0.00     0.118 A 
ENDBRANCH  21  24
ENDBRANCH   1  21
TORSDOF 5
ENDMDL
