MODEL 1
REMARK VINA RESULT:      71.5      0.000      0.000
REMARK  3 active torsions:
REMARK  status: ('A' for Active; 'I' for Inactive)
REMARK    1  A    between atoms: C_4  and  S_1 
REMARK    2  A    between atoms: N_7  and  S_1 
REMARK    3  A    between atoms: C_14  and  N_7 
ROOT
ATOM      1  S   UNL d   1     -56.126 -99.337 -44.289  0.00  0.00     0.285 S 
ATOM      2  O   UNL d   1     -56.699 -99.188 -44.844  0.00  0.00    -0.198 OA
ATOM      3  O   UNL d   1     -55.529 -99.483 -43.696  0.00  0.00    -0.198 OA
ENDROOT
BRANCH   1   4
ATOM      4  C   UNL d   1     -55.785 -99.924 -44.779  0.00  0.00     0.105 A 
ATOM      5  C   UNL d   1     -55.152-100.348 -44.513  0.00  0.00     0.012 A 
ATOM      6  C   UNL d   1     -54.811-100.942 -45.016  0.00  0.00     0.001 A 
ATOM      7  C   UNL d   1     -54.821-100.213 -43.740  0.00  0.00     0.001 C 
ATOM      8  C   UNL d   1     -55.097-101.094 -45.744  0.00  0.00     0.000 A 
ATOM      9  C   UNL d   1     -55.782-100.635 -46.032  0.00  0.00     0.001 A 
ATOM     10  C   UNL d   1     -54.712-101.685 -46.171  0.00  0.00     0.000 C 
ATOM     11  C   UNL d   1     -56.094-100.082 -45.555  0.00  0.00     0.013 A 
ENDBRANCH   1   4
BRANCH   1  12
ATOM     12  N   UNL d   1     -56.442 -98.768 -43.792  0.00  0.00    -0.158 NA
BRANCH  12  13
ATOM     13  C   UNL d   1     -57.260 -98.798 -43.536  0.00  0.00     0.094 A 
ATOM     14  C   UNL d   1     -57.464 -98.758 -42.744  0.00  0.00     0.029 A 
ATOM     15  C   UNL d   1     -58.233 -98.787 -42.503  0.00  0.00     0.059 A 
ATOM     16  S   UNL d   1     -58.574 -98.757 -41.736  0.00  0.00    -0.018 SA
ATOM     17  C   UNL d   1     -58.835 -98.856 -43.044  0.00  0.00     0.110 A 
ATOM     18  C   UNL d   1     -59.388 -98.813 -41.884  0.00  0.00     0.332 A 
ATOM     19  O   UNL d   1     -59.949 -98.804 -41.238  0.00  0.00    -0.251 OA
ATOM     20  O   UNL d   1     -59.553 -98.871 -42.637  0.00  0.00    -0.268 OA
ATOM     21  C   UNL d   1     -58.672 -98.897 -43.824  0.00  0.00     0.027 A 
ATOM     22  C   UNL d   1     -57.886 -98.871 -44.108  0.00  0.00     0.022 A 
ENDBRANCH  12  13
ENDBRANCH   1  12
TORSDOF 3
ENDMDL
