MODEL 1
REMARK VINA RESULT:      -8.4      0.000      0.000
REMARK  4 active torsions:
REMARK  status: ('A' for Active; 'I' for Inactive)
REMARK    1  A    between atoms: C_2  and  S_1 
REMARK    2  A    between atoms: N_3  and  S_1 
REMARK    3  A    between atoms: C_18  and  N_8 
REMARK    4  A    between atoms: C_21  and  C_18 
ROOT
ATOM      1  S   UNL d   1      52.452  33.874  53.505  0.00  0.00     0.271 S 
ATOM      2  O   UNL d   1      52.887  34.269  52.926  0.00  0.00    -0.200 OA
ATOM      3  O   UNL d   1      52.020  33.479  54.087  0.00  0.00    -0.200 OA
ENDROOT
BRANCH   1   4
ATOM      4  C   UNL d   1      53.130  33.787  53.966  0.00  0.00     0.104 A 
ATOM      5  C   UNL d   1      53.362  34.402  54.479  0.00  0.00     0.012 A 
ATOM      6  C   UNL d   1      54.039  34.322  54.944  0.00  0.00     0.001 A 
ATOM      7  C   UNL d   1      52.911  35.094  54.522  0.00  0.00     0.001 C 
ATOM      8  C   UNL d   1      54.484  33.631  54.897  0.00  0.00     0.000 A 
ATOM      9  C   UNL d   1      54.255  33.019  54.388  0.00  0.00     0.001 A 
ATOM     10  C   UNL d   1      55.162  33.547  55.360  0.00  0.00     0.000 C 
ATOM     11  C   UNL d   1      53.576  33.102  53.924  0.00  0.00     0.012 A 
ATOM     12  C   UNL d   1      53.350  32.490  53.418  0.00  0.00     0.001 C 
ENDBRANCH   1   4
BRANCH   1  13
ATOM     13  N   UNL d   1      51.766  33.955  53.053  0.00  0.00    -0.226 N 
ATOM     14  C   UNL d   1      51.819  34.237  52.276  0.00  0.00     0.111 A 
ATOM     15  C   UNL d   1      51.134  34.318  51.824  0.00  0.00     0.100 A 
ATOM     16  N   UNL d   1      50.401  34.121  52.142  0.00  0.00    -0.297 N 
ATOM     17  C   UNL d   1      50.352  33.839  52.920  0.00  0.00     0.100 A 
ATOM     18  C   UNL d   1      51.032  33.755  53.379  0.00  0.00     0.111 A 
BRANCH  16  19
ATOM     19  C   UNL d   1      49.718  34.204  51.686  0.00  0.00     0.126 C 
BRANCH  19  20
ATOM     20  C   UNL d   1      49.170  34.792  51.864  0.00  0.00     0.253 C 
ATOM     21  O   UNL d   1      48.507  34.900  51.385  0.00  0.00    -0.281 OA
ENDBRANCH  19  20
ENDBRANCH  16  19
ENDBRANCH   1  13
TORSDOF 4
ENDMDL
MODEL 2
REMARK VINA RESULT:      -7.6      1.963      3.407
REMARK  4 active torsions:
REMARK  status: ('A' for Active; 'I' for Inactive)
REMARK    1  A    between atoms: C_2  and  S_1 
REMARK    2  A    between atoms: N_3  and  S_1 
REMARK    3  A    between atoms: C_18  and  N_8 
REMARK    4  A    between atoms: C_21  and  C_18 
ROOT
ATOM      1  S   UNL d   1      53.090  33.243  53.759  0.00  0.00     0.271 S 
ATOM      2  O   UNL d   1      53.817  33.328  53.377  0.00  0.00    -0.200 OA
ATOM      3  O   UNL d   1      52.364  33.162  54.142  0.00  0.00    -0.200 OA
ENDROOT
BRANCH   1   4
ATOM      4  C   UNL d   1      53.104  34.038  53.980  0.00  0.00     0.104 A 
ATOM      5  C   UNL d   1      53.469  34.260  54.696  0.00  0.00     0.012 A 
ATOM      6  C   UNL d   1      53.487  35.053  54.924  0.00  0.00     0.001 A 
ATOM      7  C   UNL d   1      53.814  33.684  55.178  0.00  0.00     0.001 C 
ATOM      8  C   UNL d   1      53.142  35.622  54.439  0.00  0.00     0.000 A 
ATOM      9  C   UNL d   1      52.779  35.403  53.728  0.00  0.00     0.001 A 
ATOM     10  C   UNL d   1      53.158  36.416  54.664  0.00  0.00     0.000 C 
ATOM     11  C   UNL d   1      52.762  34.608  53.503  0.00  0.00     0.012 A 
ATOM     12  C   UNL d   1      52.400  34.392  52.793  0.00  0.00     0.001 C 
ENDBRANCH   1   4
BRANCH   1  13
ATOM     13  N   UNL d   1      53.065  32.447  53.544  0.00  0.00    -0.226 N 
ATOM     14  C   UNL d   1      53.725  31.965  53.678  0.00  0.00     0.111 A 
ATOM     15  C   UNL d   1      53.700  31.169  53.463  0.00  0.00     0.100 A 
ATOM     16  N   UNL d   1      53.023  30.853  53.118  0.00  0.00    -0.297 N 
ATOM     17  C   UNL d   1      52.364  31.339  52.985  0.00  0.00     0.100 A 
ATOM     18  C   UNL d   1      52.381  32.136  53.197  0.00  0.00     0.111 A 
BRANCH  16  19
ATOM     19  C   UNL d   1      53.002  30.057  52.904  0.00  0.00     0.126 C 
BRANCH  19  20
ATOM     20  C   UNL d   1      52.979  29.473  53.485  0.00  0.00     0.253 C 
ATOM     21  O   UNL d   1      52.671  28.728  53.312  0.00  0.00    -0.281 OA
ENDBRANCH  19  20
ENDBRANCH  16  19
ENDBRANCH   1  13
TORSDOF 4
ENDMDL
