MODEL 1
REMARK VINA RESULT:      63.6      0.000      0.000
REMARK  6 active torsions:
REMARK  status: ('A' for Active; 'I' for Inactive)
REMARK    1  A    between atoms: C_6  and  C_1 
REMARK    2  A    between atoms: C_9  and  C_2 
REMARK    3  A    between atoms: N_8  and  C_3 
REMARK       I    between atoms: N_7  and  C_6 
REMARK    4  A    between atoms: C_13  and  N_7 
REMARK    5  A    between atoms: C_12  and  N_8 
REMARK    6  A    between atoms: O_19  and  C_14 
ROOT
ATOM      1  C   UNL d   1      13.516  15.344  -4.747  0.00  0.00     0.108 A 
ATOM      2  C   UNL d   1      13.953  15.977  -4.441  0.00  0.00     0.094 A 
ATOM      3  C   UNL d   1      13.561  16.283  -5.669  0.00  0.00     0.194 A 
ATOM      4  N   UNL d   1      13.980  16.564  -5.020  0.00  0.00    -0.221 NA
ATOM      5  S   UNL d   1      13.283  15.554  -5.508  0.00  0.00    -0.042 SA
ENDROOT
BRANCH   1   6
ATOM      6  C   UNL d   1      13.341  14.634  -4.371  0.00  0.00     0.287 C 
ATOM      7  N   UNL d   1      13.584  13.915  -4.697  0.00  0.00    -0.206 NA
ATOM      8  O   UNL d   1      12.916  14.625  -3.654  0.00  0.00    -0.265 OA
BRANCH   7   9
ATOM      9  C   UNL d   1      13.412  13.206  -4.326  0.00  0.00     0.104 A 
ATOM     10  C   UNL d   1      13.719  13.072  -3.590  0.00  0.00     0.118 A 
ATOM     11  N   UNL d   1      13.544  12.359  -3.220  0.00  0.00    -0.241 NA
ATOM     12  C   UNL d   1      13.086  11.822  -3.581  0.00  0.00     0.099 A 
ATOM     13  C   UNL d   1      12.779  11.957  -4.317  0.00  0.00     0.022 A 
ATOM     14  C   UNL d   1      12.941  12.667  -4.710  0.00  0.00     0.022 A 
ENDBRANCH   7   9
ENDBRANCH   1   6
BRANCH   2  15
ATOM     15  C   UNL d   1      14.261  15.937  -3.695  0.00  0.00     0.018 A 
ATOM     16  C   UNL d   1      14.056  15.313  -3.190  0.00  0.00     0.002 A 
ATOM     17  C   UNL d   1      14.378  15.283  -2.428  0.00  0.00     0.000 A 
ATOM     18  C   UNL d   1      14.904  15.878  -2.177  0.00  0.00     0.000 A 
ATOM     19  C   UNL d   1      15.099  16.470  -2.656  0.00  0.00     0.000 A 
ATOM     20  C   UNL d   1      14.786  16.521  -3.429  0.00  0.00     0.002 A 
ENDBRANCH   2  15
BRANCH   3  21
ATOM     21  N   UNL d   1      13.453  16.692  -6.360  0.00  0.00    -0.221 NA
BRANCH  21  22
ATOM     22  C   UNL d   1      13.538  17.515  -6.363  0.00  0.00     0.084 A 
ATOM     23  C   UNL d   1      14.297  17.847  -6.344  0.00  0.00     0.021 A 
ATOM     24  C   UNL d   1      14.390  18.650  -6.347  0.00  0.00     0.026 A 
ATOM     25  C   UNL d   1      13.710  19.134  -6.370  0.00  0.00     0.094 A 
ATOM     26  C   UNL d   1      12.989  18.818  -6.389  0.00  0.00     0.026 A 
ATOM     27  C   UNL d   1      12.885  17.992  -6.386  0.00  0.00     0.021 A 
BRANCH  25  28
ATOM     28  O   UNL d   1      13.785  19.978  -6.374  0.00  0.00    -0.328 OA
ATOM     29  C   UNL d   1      14.412  20.360  -5.990  0.00  0.00     0.181 C 
ENDBRANCH  25  28
ENDBRANCH  21  22
ENDBRANCH   3  21
TORSDOF 6
ENDMDL
