MODEL 1
REMARK VINA RESULT:      49.8      0.000      0.000
REMARK  5 active torsions:
REMARK  status: ('A' for Active; 'I' for Inactive)
REMARK    1  A    between atoms: C_10  and  C_3 
REMARK    2  A    between atoms: S_9  and  C_4 
REMARK       I    between atoms: N_6  and  C_7 
REMARK    3  A    between atoms: C_8  and  N_6 
REMARK    4  A    between atoms: C_7  and  C_14 
REMARK    5  A    between atoms: C_14  and  S_9 
ROOT
ATOM      1  S   UNL d   1     -50.026  27.176  34.426  0.00  0.00    -0.036 SA
ENDROOT
BRANCH   1   2
ATOM      2  C   UNL d   1     -49.282  27.576  34.434  0.00  0.00     0.236 A 
ATOM      3  O   UNL d   1     -49.156  28.223  34.935  0.00  0.00    -0.263 OA
ATOM      4  C   UNL d   1     -48.397  28.477  34.811  0.00  0.00     0.205 A 
ATOM      5  N   UNL d   1     -48.058  28.013  34.257  0.00  0.00    -0.120 NA
ATOM      6  N   UNL d   1     -48.586  27.445  34.007  0.00  0.00    -0.114 NA
BRANCH   4   7
ATOM      7  C   UNL d   1     -48.030  29.098  35.181  0.00  0.00     0.046 A 
ATOM      8  C   UNL d   1     -47.680  29.704  34.751  0.00  0.00     0.024 A 
ATOM      9  C   UNL d   1     -47.311  30.329  35.174  0.00  0.00     0.099 A 
ATOM     10  N   UNL d   1     -47.294  30.343  35.991  0.00  0.00    -0.242 NA
ATOM     11  C   UNL d   1     -47.651  29.724  36.426  0.00  0.00     0.099 A 
ATOM     12  C   UNL d   1     -48.019  29.101  36.031  0.00  0.00     0.024 A 
ENDBRANCH   4   7
ENDBRANCH   1   2
BRANCH   1  13
ATOM     13  C   UNL d   1     -50.389  27.029  33.719  0.00  0.00     0.101 C 
BRANCH  13  14
ATOM     14  C   UNL d   1     -50.972  26.453  33.687  0.00  0.00     0.286 C 
ATOM     15  N   UNL d   1     -50.782  25.687  33.413  0.00  0.00    -0.207 NA
ATOM     16  O   UNL d   1     -51.749  26.614  33.921  0.00  0.00    -0.265 OA
BRANCH  15  17
ATOM     17  C   UNL d   1     -51.371  25.094  33.377  0.00  0.00     0.095 A 
ATOM     18  C   UNL d   1     -51.156  24.310  33.345  0.00  0.00     0.075 A 
ATOM     19 CL   UNL d   1     -50.346  24.080  33.346  0.00  0.00    -0.081 Cl
ATOM     20  C   UNL d   1     -51.750  23.724  33.309  0.00  0.00     0.013 A 
ATOM     21  C   UNL d   1     -52.530  23.924  33.307  0.00  0.00     0.001 A 
ATOM     22  C   UNL d   1     -52.763  24.713  33.339  0.00  0.00     0.002 A 
ATOM     23  C   UNL d   1     -52.168  25.313  33.376  0.00  0.00     0.020 A 
ENDBRANCH  15  17
ENDBRANCH  13  14
ENDBRANCH   1  13
TORSDOF 5
ENDMDL
