MODEL 1
REMARK VINA RESULT:      40.8      0.000      0.000
REMARK  5 active torsions:
REMARK  status: ('A' for Active; 'I' for Inactive)
REMARK    1  A    between atoms: C_12  and  N_1 
REMARK    2  A    between atoms: N_7  and  C_5 
REMARK    3  A    between atoms: C_10  and  N_7 
REMARK    4  A    between atoms: O_14  and  C_13 
REMARK    5  A    between atoms: C_19  and  O_14 
ROOT
ATOM      1  N   UNL d   1      13.317  12.422  -3.816  0.00  0.00    -0.212 N 
ATOM      2  C   UNL d   1      13.611  13.025  -3.335  0.00  0.00     0.170 A 
ATOM      3  C   UNL d   1      13.595  12.758  -2.554  0.00  0.00     0.093 A 
ATOM      4  N   UNL d   1      13.118  11.780  -3.330  0.00  0.00    -0.162 NA
ATOM      5  C   UNL d   1      13.860  13.249  -1.940  0.00  0.00     0.169 A 
ATOM      6  C   UNL d   1      13.292  11.993  -2.550  0.00  0.00     0.127 A 
ATOM      7  N   UNL d   1      13.892  13.785  -3.513  0.00  0.00    -0.205 NA
ATOM      8  N   UNL d   1      14.141  14.009  -2.119  0.00  0.00    -0.205 NA
ATOM      9  C   UNL d   1      14.154  14.269  -2.902  0.00  0.00     0.202 A 
ENDROOT
BRANCH   5  10
ATOM     10  N   UNL d   1      13.847  12.992  -1.165  0.00  0.00    -0.225 NA
BRANCH  10  11
ATOM     11  C   UNL d   1      14.540  12.778  -0.792  0.00  0.00     0.106 A 
ATOM     12  C   UNL d   1      14.994  13.344  -0.389  0.00  0.00     0.118 A 
ATOM     13  C   UNL d   1      15.687  13.133  -0.015  0.00  0.00     0.026 A 
ATOM     14  C   UNL d   1      15.942  12.336  -0.040  0.00  0.00     0.002 A 
ATOM     15  C   UNL d   1      15.504  11.779  -0.431  0.00  0.00     0.002 A 
ATOM     16  C   UNL d   1      14.798  11.995  -0.812  0.00  0.00     0.021 A 
BRANCH  12  17
ATOM     17  O   UNL d   1      14.736  14.127  -0.369  0.00  0.00    -0.304 OA
BRANCH  17  18
ATOM     18  C   UNL d   1      15.277  14.744  -0.495  0.00  0.00     0.123 C 
ATOM     19  C   UNL d   1      15.201  15.446  -0.075  0.00  0.00     0.029 C 
ENDBRANCH  17  18
ENDBRANCH  12  17
ENDBRANCH  10  11
ENDBRANCH   5  10
BRANCH   1  20
ATOM     20  C   UNL d   1      13.234  12.452  -4.638  0.00  0.00     0.085 A 
ATOM     21  C   UNL d   1      12.980  11.780  -5.051  0.00  0.00     0.019 A 
ATOM     22  C   UNL d   1      12.897  11.808  -5.868  0.00  0.00     0.002 A 
ATOM     23  C   UNL d   1      13.069  12.510  -6.281  0.00  0.00     0.000 A 
ATOM     24  C   UNL d   1      13.321  13.175  -5.871  0.00  0.00     0.002 A 
ATOM     25  C   UNL d   1      13.406  13.155  -5.051  0.00  0.00     0.019 A 
ENDBRANCH   1  20
TORSDOF 5
ENDMDL
MODEL 2
REMARK VINA RESULT:      43.0      1.564      4.398
REMARK  5 active torsions:
REMARK  status: ('A' for Active; 'I' for Inactive)
REMARK    1  A    between atoms: C_12  and  N_1 
REMARK    2  A    between atoms: N_7  and  C_5 
REMARK    3  A    between atoms: C_10  and  N_7 
REMARK    4  A    between atoms: O_14  and  C_13 
REMARK    5  A    between atoms: C_19  and  O_14 
ROOT
ATOM      1  N   UNL d   1      13.875  12.301  -2.148  0.00  0.00    -0.212 N 
ATOM      2  C   UNL d   1      13.912  13.007  -2.574  0.00  0.00     0.170 A 
ATOM      3  C   UNL d   1      13.441  12.924  -3.246  0.00  0.00     0.093 A 
ATOM      4  N   UNL d   1      13.377  11.780  -2.559  0.00  0.00    -0.162 NA
ATOM      5  C   UNL d   1      13.370  13.551  -3.785  0.00  0.00     0.169 A 
ATOM      6  C   UNL d   1      13.111  12.170  -3.237  0.00  0.00     0.127 A 
ATOM      7  N   UNL d   1      14.320  13.716  -2.431  0.00  0.00    -0.205 NA
ATOM      8  N   UNL d   1      13.777  14.259  -3.642  0.00  0.00    -0.205 NA
ATOM      9  C   UNL d   1      14.247  14.335  -2.968  0.00  0.00     0.202 A 
ENDROOT
BRANCH   5  10
ATOM     10  N   UNL d   1      12.905  13.476  -4.452  0.00  0.00    -0.225 NA
BRANCH  10  11
ATOM     11  C   UNL d   1      13.167  13.038  -5.089  0.00  0.00     0.106 A 
ATOM     12  C   UNL d   1      13.574  13.402  -5.713  0.00  0.00     0.118 A 
ATOM     13  C   UNL d   1      13.837  12.966  -6.349  0.00  0.00     0.026 A 
ATOM     14  C   UNL d   1      13.694  12.142  -6.371  0.00  0.00     0.002 A 
ATOM     15  C   UNL d   1      13.298  11.780  -5.765  0.00  0.00     0.002 A 
ATOM     16  C   UNL d   1      13.030  12.225  -5.117  0.00  0.00     0.021 A 
BRANCH  12  17
ATOM     17  O   UNL d   1      13.711  14.215  -5.685  0.00  0.00    -0.304 OA
BRANCH  17  18
ATOM     18  C   UNL d   1      14.086  14.594  -6.321  0.00  0.00     0.123 C 
ATOM     19  C   UNL d   1      14.446  15.324  -6.206  0.00  0.00     0.029 C 
ENDBRANCH  17  18
ENDBRANCH  12  17
ENDBRANCH  10  11
ENDBRANCH   5  10
BRANCH   1  20
ATOM     20  C   UNL d   1      14.264  12.140  -1.436  0.00  0.00     0.085 A 
ATOM     21  C   UNL d   1      13.843  12.163  -0.723  0.00  0.00     0.019 A 
ATOM     22  C   UNL d   1      14.228  12.003  -0.015  0.00  0.00     0.002 A 
ATOM     23  C   UNL d   1      15.040  11.820  -0.014  0.00  0.00     0.000 A 
ATOM     24  C   UNL d   1      15.456  11.798  -0.721  0.00  0.00     0.002 A 
ATOM     25  C   UNL d   1      15.076  11.957  -1.436  0.00  0.00     0.019 A 
ENDBRANCH   1  20
TORSDOF 5
ENDMDL
