MODEL 1
REMARK VINA RESULT:     101.4      0.000      0.000
REMARK  2 active torsions:
REMARK  status: ('A' for Active; 'I' for Inactive)
REMARK    1  A    between atoms: C_7  and  C_1 
REMARK       I    between atoms: N_13  and  C_7 
REMARK    2  A    between atoms: C_18  and  N_13 
ROOT
ATOM      1  N   UNL d   1     -55.007-100.482 -45.580  0.00  0.00    -0.191 NA
ATOM      2  C   UNL d   1     -54.995-100.705 -44.778  0.00  0.00     0.101 C 
ATOM      3  C   UNL d   1     -54.959-101.375 -42.377  0.00  0.00     0.085 A 
ATOM      4  C   UNL d   1     -54.983-100.927 -43.975  0.00  0.00     0.068 A 
ATOM      5  C   UNL d   1     -54.910-101.941 -42.970  0.00  0.00     0.020 A 
ATOM      6  C   UNL d   1     -55.022-100.562 -42.593  0.00  0.00     0.020 A 
ATOM      7  C   UNL d   1     -54.920-101.734 -43.769  0.00  0.00     0.012 A 
ATOM      8  C   UNL d   1     -55.033-100.355 -43.392  0.00  0.00     0.012 A 
ENDROOT
BRANCH   3   9
ATOM      9  N   UNL d   1     -54.949-101.574 -41.581  0.00  0.00    -0.208 NA
ATOM     10  C   UNL d   1     -55.088-100.962 -41.032  0.00  0.00     0.283 C 
ATOM     11  O   UNL d   1     -55.226-100.205 -41.264  0.00  0.00    -0.265 OA
BRANCH  10  12
ATOM     12  C   UNL d   1     -55.079-101.156 -40.230  0.00  0.00     0.101 A 
ATOM     13  C   UNL d   1     -55.010-101.933 -39.975  0.00  0.00     0.208 A 
ATOM     14  O   UNL d   1     -55.001-102.134 -39.179  0.00  0.00    -0.288 OA
ATOM     15  N   UNL d   1     -54.947-102.546 -40.550  0.00  0.00    -0.121 N 
ATOM     16  C   UNL d   1     -55.064-101.520 -38.604  0.00  0.00     0.103 A 
ATOM     17  C   UNL d   1     -55.134-100.733 -38.871  0.00  0.00     0.023 A 
ATOM     18  C   UNL d   1     -55.056-101.704 -37.826  0.00  0.00     0.039 A 
ATOM     19  C   UNL d   1     -55.142-100.542 -39.655  0.00  0.00     0.010 A 
ATOM     20  C   UNL d   1     -55.197-100.113 -38.303  0.00  0.00     0.003 A 
ATOM     21  C   UNL d   1     -55.188-100.314 -37.506  0.00  0.00     0.016 A 
ATOM     22  C   UNL d   1     -55.119-101.091 -37.251  0.00  0.00     0.066 A 
ATOM     23  C   UNL d   1     -55.250 -99.718 -36.913  0.00  0.00     0.003 A 
ATOM     24  N   UNL d   1     -55.111-101.269 -36.479  0.00  0.00    -0.304 N 
ATOM     25  C   UNL d   1     -55.043-102.047 -36.224  0.00  0.00     0.080 A 
ATOM     26  C   UNL d   1     -55.174-100.657 -35.905  0.00  0.00     0.080 A 
ATOM     27  C   UNL d   1     -54.979-102.660 -36.799  0.00  0.00     0.019 A 
ATOM     28  C   UNL d   1     -54.987-102.476 -37.577  0.00  0.00     0.005 A 
ATOM     29  C   UNL d   1     -55.242 -99.890 -36.148  0.00  0.00     0.019 A 
ENDBRANCH  10  12
ENDBRANCH   3   9
TORSDOF 2
ENDMDL
