MODEL 1
REMARK VINA RESULT:      -7.8      0.000      0.000
REMARK  4 active torsions:
REMARK  status: ('A' for Active; 'I' for Inactive)
REMARK    1  A    between atoms: C_5  and  C_3 
REMARK    2  A    between atoms: S_8  and  C_4 
REMARK    3  A    between atoms: C_12  and  S_8 
REMARK    4  A    between atoms: C_10  and  C_12 
ROOT
ATOM      1  N   UNL d   1      51.522  33.243  53.666  0.00  0.00    -0.146 NA
ATOM      2  N   UNL d   1      50.820  33.518  53.331  0.00  0.00    -0.141 NA
ATOM      3  C   UNL d   1      52.246  33.592  53.460  0.00  0.00     0.121 A 
ATOM      4  C   UNL d   1      50.829  34.136  52.793  0.00  0.00     0.133 A 
ATOM      5  C   UNL d   1      52.258  34.216  52.917  0.00  0.00     0.025 A 
ATOM      6  C   UNL d   1      51.556  34.488  52.585  0.00  0.00     0.029 A 
ENDROOT
BRANCH   4   7
ATOM      7  S   UNL d   1      50.127  34.411  52.458  0.00  0.00    -0.064 SA
BRANCH   7   8
ATOM      8  C   UNL d   1      49.599  34.853  52.905  0.00  0.00     0.056 C 
BRANCH   8   9
ATOM      9  C   UNL d   1      48.916  35.154  52.549  0.00  0.00     0.088 A 
ATOM     10  N   UNL d   1      48.711  34.920  51.785  0.00  0.00    -0.243 NA
ATOM     11  C   UNL d   1      48.029  35.224  51.438  0.00  0.00     0.099 A 
ATOM     12  C   UNL d   1      47.559  35.756  51.850  0.00  0.00     0.021 A 
ATOM     13  C   UNL d   1      47.759  35.988  52.603  0.00  0.00     0.003 A 
ATOM     14  C   UNL d   1      48.439  35.688  52.957  0.00  0.00     0.020 A 
ENDBRANCH   8   9
ENDBRANCH   7   8
ENDBRANCH   4   7
BRANCH   3  15
ATOM     15  C   UNL d   1      52.947  33.317  53.795  0.00  0.00     0.101 A 
ATOM     16  N   UNL d   1      53.230  33.659  54.477  0.00  0.00    -0.242 NA
ATOM     17  C   UNL d   1      53.926  33.390  54.813  0.00  0.00     0.099 A 
ATOM     18  C   UNL d   1      54.343  32.765  54.455  0.00  0.00     0.021 A 
ATOM     19  C   UNL d   1      54.055  32.424  53.770  0.00  0.00     0.003 A 
ATOM     20  C   UNL d   1      53.353  32.693  53.427  0.00  0.00     0.021 A 
ENDBRANCH   3  15
TORSDOF 4
ENDMDL
MODEL 2
REMARK VINA RESULT:      -7.5      0.998      5.060
REMARK  4 active torsions:
REMARK  status: ('A' for Active; 'I' for Inactive)
REMARK    1  A    between atoms: C_5  and  C_3 
REMARK    2  A    between atoms: S_8  and  C_4 
REMARK    3  A    between atoms: C_12  and  S_8 
REMARK    4  A    between atoms: C_10  and  C_12 
ROOT
ATOM      1  N   UNL d   1      50.288  33.875  53.073  0.00  0.00    -0.146 NA
ATOM      2  N   UNL d   1      50.989  33.635  53.435  0.00  0.00    -0.141 NA
ATOM      3  C   UNL d   1      50.312  34.292  52.357  0.00  0.00     0.121 A 
ATOM      4  C   UNL d   1      51.714  33.805  53.094  0.00  0.00     0.133 A 
ATOM      5  C   UNL d   1      51.042  34.465  52.010  0.00  0.00     0.025 A 
ATOM      6  C   UNL d   1      51.740  34.224  52.374  0.00  0.00     0.029 A 
ENDROOT
BRANCH   4   7
ATOM      7  S   UNL d   1      52.415  33.565  53.456  0.00  0.00    -0.064 SA
BRANCH   7   8
ATOM      8  C   UNL d   1      52.604  33.827  54.211  0.00  0.00     0.056 C 
BRANCH   8   9
ATOM      9  C   UNL d   1      53.359  33.684  54.516  0.00  0.00     0.088 A 
ATOM     10  N   UNL d   1      53.834  34.314  54.756  0.00  0.00    -0.243 NA
ATOM     11  C   UNL d   1      54.584  34.163  55.058  0.00  0.00     0.099 A 
ATOM     12  C   UNL d   1      54.857  33.391  55.120  0.00  0.00     0.021 A 
ATOM     13  C   UNL d   1      54.390  32.768  54.884  0.00  0.00     0.003 A 
ATOM     14  C   UNL d   1      53.639  32.911  54.581  0.00  0.00     0.020 A 
ENDBRANCH   8   9
ENDBRANCH   7   8
ENDBRANCH   4   7
BRANCH   3  15
ATOM     15  C   UNL d   1      49.611  34.532  51.995  0.00  0.00     0.101 A 
ATOM     16  N   UNL d   1      49.088  35.006  52.402  0.00  0.00    -0.242 NA
ATOM     17  C   UNL d   1      48.392  35.247  52.046  0.00  0.00     0.099 A 
ATOM     18  C   UNL d   1      48.219  35.005  51.269  0.00  0.00     0.021 A 
ATOM     19  C   UNL d   1      48.747  34.529  50.864  0.00  0.00     0.003 A 
ATOM     20  C   UNL d   1      49.452  34.284  51.218  0.00  0.00     0.021 A 
ENDBRANCH   3  15
TORSDOF 4
ENDMDL
MODEL 3
REMARK VINA RESULT:      -5.4      9.935     10.685
REMARK  4 active torsions:
REMARK  status: ('A' for Active; 'I' for Inactive)
REMARK    1  A    between atoms: C_5  and  C_3 
REMARK    2  A    between atoms: S_8  and  C_4 
REMARK    3  A    between atoms: C_12  and  S_8 
REMARK    4  A    between atoms: C_10  and  C_12 
ROOT
ATOM      1  N   UNL d   1      45.535  28.267  58.180  0.00  0.00    -0.146 NA
ATOM      2  N   UNL d   1      45.585  27.527  57.820  0.00  0.00    -0.141 NA
ATOM      3  C   UNL d   1      45.084  28.869  57.832  0.00  0.00     0.121 A 
ATOM      4  C   UNL d   1      45.191  27.378  57.117  0.00  0.00     0.133 A 
ATOM      5  C   UNL d   1      44.685  28.722  57.122  0.00  0.00     0.025 A 
ATOM      6  C   UNL d   1      44.736  27.982  56.766  0.00  0.00     0.029 A 
ENDROOT
BRANCH   4   7
ATOM      7  S   UNL d   1      45.240  26.637  56.757  0.00  0.00    -0.064 SA
BRANCH   7   8
ATOM      8  C   UNL d   1      44.590  26.136  56.748  0.00  0.00     0.056 C 
BRANCH   8   9
ATOM      9  C   UNL d   1      44.673  25.365  56.459  0.00  0.00     0.088 A 
ATOM     10  N   UNL d   1      44.961  25.238  55.697  0.00  0.00    -0.243 NA
ATOM     11  C   UNL d   1      45.041  24.468  55.418  0.00  0.00     0.099 A 
ATOM     12  C   UNL d   1      44.836  23.833  55.895  0.00  0.00     0.021 A 
ATOM     13  C   UNL d   1      44.551  23.955  56.647  0.00  0.00     0.003 A 
ATOM     14  C   UNL d   1      44.469  24.722  56.934  0.00  0.00     0.020 A 
ENDBRANCH   8   9
ENDBRANCH   7   8
ENDBRANCH   4   7
BRANCH   3  15
ATOM     15  C   UNL d   1      45.035  29.610  58.192  0.00  0.00     0.101 A 
ATOM     16  N   UNL d   1      45.068  29.667  59.003  0.00  0.00    -0.242 NA
ATOM     17  C   UNL d   1      45.020  30.399  59.365  0.00  0.00     0.099 A 
ATOM     18  C   UNL d   1      44.936  31.085  58.900  0.00  0.00     0.021 A 
ATOM     19  C   UNL d   1      44.902  31.023  58.086  0.00  0.00     0.003 A 
ATOM     20  C   UNL d   1      44.951  30.286  57.716  0.00  0.00     0.021 A 
ENDBRANCH   3  15
TORSDOF 4
ENDMDL
MODEL 4
REMARK VINA RESULT:      -5.3     10.183     10.720
REMARK  4 active torsions:
REMARK  status: ('A' for Active; 'I' for Inactive)
REMARK    1  A    between atoms: C_5  and  C_3 
REMARK    2  A    between atoms: S_8  and  C_4 
REMARK    3  A    between atoms: C_12  and  S_8 
REMARK    4  A    between atoms: C_10  and  C_12 
ROOT
ATOM      1  N   UNL d   1      45.365  26.429  56.300  0.00  0.00    -0.146 NA
ATOM      2  N   UNL d   1      45.479  27.125  56.728  0.00  0.00    -0.141 NA
ATOM      3  C   UNL d   1      44.809  25.870  56.556  0.00  0.00     0.121 A 
ATOM      4  C   UNL d   1      45.046  27.272  57.407  0.00  0.00     0.133 A 
ATOM      5  C   UNL d   1      44.370  26.016  57.242  0.00  0.00     0.025 A 
ATOM      6  C   UNL d   1      44.486  26.712  57.666  0.00  0.00     0.029 A 
ENDROOT
BRANCH   4   7
ATOM      7  S   UNL d   1      45.160  27.968  57.835  0.00  0.00    -0.064 SA
BRANCH   7   8
ATOM      8  C   UNL d   1      44.769  28.657  57.619  0.00  0.00     0.056 C 
BRANCH   8   9
ATOM      9  C   UNL d   1      44.904  29.354  58.044  0.00  0.00     0.088 A 
ATOM     10  N   UNL d   1      45.045  29.321  58.856  0.00  0.00    -0.243 NA
ATOM     11  C   UNL d   1      45.179  30.019  59.271  0.00  0.00     0.099 A 
ATOM     12  C   UNL d   1      45.172  30.740  58.879  0.00  0.00     0.021 A 
ATOM     13  C   UNL d   1      45.033  30.775  58.079  0.00  0.00     0.003 A 
ATOM     14  C   UNL d   1      44.898  30.082  57.656  0.00  0.00     0.020 A 
ENDBRANCH   8   9
ENDBRANCH   7   8
ENDBRANCH   4   7
BRANCH   3  15
ATOM     15  C   UNL d   1      44.695  25.174  56.129  0.00  0.00     0.101 A 
ATOM     16  N   UNL d   1      44.848  24.455  56.480  0.00  0.00    -0.242 NA
ATOM     17  C   UNL d   1      44.736  23.762  56.059  0.00  0.00     0.099 A 
ATOM     18  C   UNL d   1      44.467  23.794  55.273  0.00  0.00     0.021 A 
ATOM     19  C   UNL d   1      44.315  24.519  54.924  0.00  0.00     0.003 A 
ATOM     20  C   UNL d   1      44.426  25.221  55.344  0.00  0.00     0.021 A 
ENDBRANCH   3  15
TORSDOF 4
ENDMDL
MODEL 5
REMARK VINA RESULT:      -5.2     10.256     10.999
REMARK  4 active torsions:
REMARK  status: ('A' for Active; 'I' for Inactive)
REMARK    1  A    between atoms: C_5  and  C_3 
REMARK    2  A    between atoms: S_8  and  C_4 
REMARK    3  A    between atoms: C_12  and  S_8 
REMARK    4  A    between atoms: C_10  and  C_12 
ROOT
ATOM      1  N   UNL d   1      44.674  31.050  60.716  0.00  0.00    -0.146 NA
ATOM      2  N   UNL d   1      44.706  30.753  59.947  0.00  0.00    -0.141 NA
ATOM      3  C   UNL d   1      44.478  30.550  61.347  0.00  0.00     0.121 A 
ATOM      4  C   UNL d   1      44.544  29.965  59.798  0.00  0.00     0.133 A 
ATOM      5  C   UNL d   1      44.314  29.753  61.200  0.00  0.00     0.025 A 
ATOM      6  C   UNL d   1      44.346  29.460  60.431  0.00  0.00     0.029 A 
ENDROOT
BRANCH   4   7
ATOM      7  S   UNL d   1      44.575  29.668  59.029  0.00  0.00    -0.064 SA
BRANCH   7   8
ATOM      8  C   UNL d   1      45.265  29.330  58.742  0.00  0.00     0.056 C 
BRANCH   8   9
ATOM      9  C   UNL d   1      45.240  28.872  58.054  0.00  0.00     0.088 A 
ATOM     10  N   UNL d   1      45.045  29.221  57.332  0.00  0.00    -0.243 NA
ATOM     11  C   UNL d   1      45.022  28.758  56.652  0.00  0.00     0.099 A 
ATOM     12  C   UNL d   1      45.192  27.956  56.693  0.00  0.00     0.021 A 
ATOM     13  C   UNL d   1      45.385  27.610  57.403  0.00  0.00     0.003 A 
ATOM     14  C   UNL d   1      45.410  28.065  58.088  0.00  0.00     0.020 A 
ENDBRANCH   8   9
ENDBRANCH   7   8
ENDBRANCH   4   7
BRANCH   3  15
ATOM     15  C   UNL d   1      44.447  30.846  62.116  0.00  0.00     0.101 A 
ATOM     16  N   UNL d   1      44.469  30.333  62.748  0.00  0.00    -0.242 NA
ATOM     17  C   UNL d   1      44.438  30.623  63.513  0.00  0.00     0.099 A 
ATOM     18  C   UNL d   1      44.385  31.444  63.642  0.00  0.00     0.021 A 
ATOM     19  C   UNL d   1      44.364  31.955  63.004  0.00  0.00     0.003 A 
ATOM     20  C   UNL d   1      44.394  31.667  62.231  0.00  0.00     0.021 A 
ENDBRANCH   3  15
TORSDOF 4
ENDMDL
