MODEL 1
REMARK VINA RESULT:      -9.5      0.000      0.000
REMARK  6 active torsions:
REMARK  status: ('A' for Active; 'I' for Inactive)
REMARK    1  A    between atoms: N_5  and  S_1 
REMARK    2  A    between atoms: C_6  and  S_1 
REMARK    3  A    between atoms: C_2  and  C_11 
REMARK    4  A    between atoms: C_9  and  N_5 
REMARK    5  A    between atoms: C_10  and  C_9 
REMARK       I    between atoms: N_15  and  C_10 
REMARK    6  A    between atoms: C_19  and  N_15 
ROOT
ATOM      1  C   UNL d   1      51.750  33.838  53.165  0.00  0.00     0.024 A 
ATOM      2  C   UNL d   1      51.694  34.279  52.470  0.00  0.00     0.004 A 
ATOM      3  C   UNL d   1      51.067  33.602  53.557  0.00  0.00     0.004 A 
ATOM      4  C   UNL d   1      50.262  34.250  52.557  0.00  0.00     0.085 A 
ATOM      5  C   UNL d   1      50.320  33.810  53.250  0.00  0.00     0.019 A 
ATOM      6  C   UNL d   1      50.957  34.488  52.162  0.00  0.00     0.019 A 
ENDROOT
BRANCH   4   7
ATOM      7  N   UNL d   1      49.516  34.448  52.266  0.00  0.00    -0.207 NA
ATOM      8  C   UNL d   1      49.100  35.069  52.604  0.00  0.00     0.299 C 
ATOM      9  O   UNL d   1      49.422  35.493  53.231  0.00  0.00    -0.263 OA
BRANCH   8  10
ATOM     10  C   UNL d   1      48.346  35.268  52.308  0.00  0.00     0.174 C 
BRANCH  10  11
ATOM     11  N   UNL d   1      47.948  35.924  52.604  0.00  0.00    -0.152 NA
BRANCH  11  12
ATOM     12  S   UNL d   1      47.151  36.038  52.425  0.00  0.00     0.285 S 
ATOM     13  O   UNL d   1      46.942  35.610  53.099  0.00  0.00    -0.198 OA
ATOM     14  O   UNL d   1      47.368  36.466  51.754  0.00  0.00    -0.198 OA
BRANCH  12  15
ATOM     15  C   UNL d   1      46.363  36.153  52.245  0.00  0.00     0.106 A 
ATOM     16  C   UNL d   1      46.047  35.825  51.554  0.00  0.00     0.024 A 
ATOM     17  C   UNL d   1      45.251  35.941  51.372  0.00  0.00     0.059 A 
ATOM     18 CL   UNL d   1      44.924  35.609  50.672  0.00  0.00    -0.082 Cl
ATOM     19  C   UNL d   1      44.764  36.380  51.869  0.00  0.00     0.011 A 
ATOM     20  C   UNL d   1      45.080  36.709  52.560  0.00  0.00     0.002 A 
ATOM     21  C   UNL d   1      45.884  36.592  52.743  0.00  0.00     0.013 A 
ENDBRANCH  12  15
ENDBRANCH  11  12
ENDBRANCH  10  11
ENDBRANCH   8  10
ENDBRANCH   4   7
BRANCH   1  22
ATOM     22  C   UNL d   1      52.488  33.625  53.481  0.00  0.00     0.111 A 
ATOM     23  N   UNL d   1      52.819  33.996  54.133  0.00  0.00    -0.239 NA
ATOM     24  C   UNL d   1      53.549  33.645  54.292  0.00  0.00     0.088 A 
ATOM     25  C   UNL d   1      54.117  33.788  54.870  0.00  0.00     0.020 A 
ATOM     26  C   UNL d   1      53.668  33.052  53.733  0.00  0.00     0.049 A 
ATOM     27  C   UNL d   1      54.806  33.336  54.888  0.00  0.00     0.002 A 
ATOM     28  C   UNL d   1      54.925  32.743  54.329  0.00  0.00     0.001 A 
ATOM     29  C   UNL d   1      54.356  32.600  53.750  0.00  0.00     0.008 A 
ATOM     30  S   UNL d   1      53.011  33.040  53.230  0.00  0.00    -0.066 SA
ENDBRANCH   1  22
TORSDOF 6
ENDMDL
MODEL 2
REMARK VINA RESULT:      -8.8      2.405      7.253
REMARK  6 active torsions:
REMARK  status: ('A' for Active; 'I' for Inactive)
REMARK    1  A    between atoms: N_5  and  S_1 
REMARK    2  A    between atoms: C_6  and  S_1 
REMARK    3  A    between atoms: C_2  and  C_11 
REMARK    4  A    between atoms: C_9  and  N_5 
REMARK    5  A    between atoms: C_10  and  C_9 
REMARK       I    between atoms: N_15  and  C_10 
REMARK    6  A    between atoms: C_19  and  N_15 
ROOT
ATOM      1  C   UNL d   1      48.053  35.270  51.847  0.00  0.00     0.024 A 
ATOM      2  C   UNL d   1      48.453  35.472  52.540  0.00  0.00     0.004 A 
ATOM      3  C   UNL d   1      48.435  34.832  51.266  0.00  0.00     0.004 A 
ATOM      4  C   UNL d   1      49.627  34.794  52.068  0.00  0.00     0.085 A 
ATOM      5  C   UNL d   1      49.226  34.594  51.379  0.00  0.00     0.019 A 
ATOM      6  C   UNL d   1      49.236  35.238  52.657  0.00  0.00     0.019 A 
ENDROOT
BRANCH   4   7
ATOM      7  N   UNL d   1      50.410  34.552  52.165  0.00  0.00    -0.207 NA
ATOM      8  C   UNL d   1      50.605  34.053  52.786  0.00  0.00     0.299 C 
ATOM      9  O   UNL d   1      50.027  33.794  53.311  0.00  0.00    -0.263 OA
BRANCH   8  10
ATOM     10  C   UNL d   1      51.397  33.808  52.884  0.00  0.00     0.174 C 
BRANCH  10  11
ATOM     11  N   UNL d   1      51.643  33.486  53.599  0.00  0.00    -0.152 NA
BRANCH  11  12
ATOM     12  S   UNL d   1      52.442  33.327  53.726  0.00  0.00     0.285 S 
ATOM     13  O   UNL d   1      52.338  32.571  53.412  0.00  0.00    -0.198 OA
ATOM     14  O   UNL d   1      52.538  34.084  54.039  0.00  0.00    -0.198 OA
BRANCH  12  15
ATOM     15  C   UNL d   1      53.234  33.173  53.853  0.00  0.00     0.106 A 
ATOM     16  C   UNL d   1      53.576  33.354  54.584  0.00  0.00     0.024 A 
ATOM     17  C   UNL d   1      54.376  33.199  54.712  0.00  0.00     0.059 A 
ATOM     18 CL   UNL d   1      54.730  33.381  55.453  0.00  0.00    -0.082 Cl
ATOM     19  C   UNL d   1      54.841  32.865  54.121  0.00  0.00     0.011 A 
ATOM     20  C   UNL d   1      54.499  32.683  53.389  0.00  0.00     0.002 A 
ATOM     21  C   UNL d   1      53.691  32.840  53.261  0.00  0.00     0.013 A 
ENDBRANCH  12  15
ENDBRANCH  11  12
ENDBRANCH  10  11
ENDBRANCH   8  10
ENDBRANCH   4   7
BRANCH   1  22
ATOM     22  C   UNL d   1      47.265  35.501  51.723  0.00  0.00     0.111 A 
ATOM     23  N   UNL d   1      46.814  35.230  51.094  0.00  0.00    -0.239 NA
ATOM     24  C   UNL d   1      46.063  35.571  51.144  0.00  0.00     0.088 A 
ATOM     25  C   UNL d   1      45.392  35.503  50.672  0.00  0.00     0.020 A 
ATOM     26  C   UNL d   1      46.053  36.056  51.809  0.00  0.00     0.049 A 
ATOM     27  C   UNL d   1      44.710  35.922  50.867  0.00  0.00     0.002 A 
ATOM     28  C   UNL d   1      44.700  36.407  51.533  0.00  0.00     0.001 A 
ATOM     29  C   UNL d   1      45.371  36.475  52.005  0.00  0.00     0.008 A 
ATOM     30  S   UNL d   1      46.797  36.013  52.168  0.00  0.00    -0.066 SA
ENDBRANCH   1  22
TORSDOF 6
ENDMDL
MODEL 3
REMARK VINA RESULT:      -8.3      1.175      1.492
REMARK  6 active torsions:
REMARK  status: ('A' for Active; 'I' for Inactive)
REMARK    1  A    between atoms: N_5  and  S_1 
REMARK    2  A    between atoms: C_6  and  S_1 
REMARK    3  A    between atoms: C_2  and  C_11 
REMARK    4  A    between atoms: C_9  and  N_5 
REMARK    5  A    between atoms: C_10  and  C_9 
REMARK       I    between atoms: N_15  and  C_10 
REMARK    6  A    between atoms: C_19  and  N_15 
ROOT
ATOM      1  C   UNL d   1      51.451  33.443  53.046  0.00  0.00     0.024 A 
ATOM      2  C   UNL d   1      51.550  34.170  52.669  0.00  0.00     0.004 A 
ATOM      3  C   UNL d   1      50.712  33.228  53.335  0.00  0.00     0.004 A 
ATOM      4  C   UNL d   1      50.162  34.473  52.872  0.00  0.00     0.085 A 
ATOM      5  C   UNL d   1      50.066  33.747  53.247  0.00  0.00     0.019 A 
ATOM      6  C   UNL d   1      50.913  34.688  52.579  0.00  0.00     0.019 A 
ENDROOT
BRANCH   4   7
ATOM      7  N   UNL d   1      49.513  34.976  52.792  0.00  0.00    -0.207 NA
ATOM      8  C   UNL d   1      49.073  34.963  52.100  0.00  0.00     0.299 C 
ATOM      9  O   UNL d   1      49.275  34.453  51.487  0.00  0.00    -0.263 OA
BRANCH   8  10
ATOM     10  C   UNL d   1      48.417  35.472  52.020  0.00  0.00     0.174 C 
BRANCH  10  11
ATOM     11  N   UNL d   1      47.806  35.278  51.504  0.00  0.00    -0.152 NA
BRANCH  11  12
ATOM     12  S   UNL d   1      47.055  35.602  51.615  0.00  0.00     0.285 S 
ATOM     13  O   UNL d   1      46.729  34.844  51.592  0.00  0.00    -0.198 OA
ATOM     14  O   UNL d   1      47.389  36.356  51.637  0.00  0.00    -0.198 OA
BRANCH  12  15
ATOM     15  C   UNL d   1      46.314  35.926  51.724  0.00  0.00     0.106 A 
ATOM     16  C   UNL d   1      46.071  36.151  52.482  0.00  0.00     0.024 A 
ATOM     17  C   UNL d   1      45.322  36.479  52.593  0.00  0.00     0.059 A 
ATOM     18 CL   UNL d   1      45.070  36.709  53.361  0.00  0.00    -0.082 Cl
ATOM     19  C   UNL d   1      44.810  36.586  51.957  0.00  0.00     0.011 A 
ATOM     20  C   UNL d   1      45.053  36.360  51.198  0.00  0.00     0.002 A 
ATOM     21  C   UNL d   1      45.810  36.030  51.088  0.00  0.00     0.013 A 
ENDBRANCH  12  15
ENDBRANCH  11  12
ENDBRANCH  10  11
ENDBRANCH   8  10
ENDBRANCH   4   7
BRANCH   1  22
ATOM     22  C   UNL d   1      52.087  32.917  53.140  0.00  0.00     0.111 A 
ATOM     23  N   UNL d   1      52.068  32.141  52.876  0.00  0.00    -0.239 NA
ATOM     24  C   UNL d   1      52.789  31.783  53.061  0.00  0.00     0.088 A 
ATOM     25  C   UNL d   1      53.079  31.024  52.932  0.00  0.00     0.020 A 
ATOM     26  C   UNL d   1      53.256  32.345  53.443  0.00  0.00     0.049 A 
ATOM     27  C   UNL d   1      53.838  30.827  53.186  0.00  0.00     0.002 A 
ATOM     28  C   UNL d   1      54.305  31.388  53.568  0.00  0.00     0.001 A 
ATOM     29  C   UNL d   1      54.014  32.149  53.696  0.00  0.00     0.008 A 
ATOM     30  S   UNL d   1      52.821  33.047  53.491  0.00  0.00    -0.066 SA
ENDBRANCH   1  22
TORSDOF 6
ENDMDL
