MODEL 1
REMARK VINA RESULT:      -6.8      0.000      0.000
REMARK  5 active torsions:
REMARK  status: ('A' for Active; 'I' for Inactive)
REMARK    1  A    between atoms: C_9  and  C_1 
REMARK    2  A    between atoms: N_4  and  C_2 
REMARK    3  A    between atoms: C_8  and  C_3 
REMARK       I    between atoms: C_7  and  N_4 
REMARK    4  A    between atoms: C_10  and  C_7 
REMARK    5  A    between atoms: O_18  and  C_9 
ROOT
ATOM      1  C   UNL d   1     -48.629  14.022  22.453  0.00  0.00     0.088 A 
ATOM      2  C   UNL d   1     -47.830  14.032  22.281  0.00  0.00     0.119 A 
ATOM      3  C   UNL d   1     -48.945  13.360  22.051  0.00  0.00     0.020 A 
ATOM      4  S   UNL d   1     -47.612  13.445  21.811  0.00  0.00    -0.067 SA
ATOM      5  C   UNL d   1     -48.314  12.992  21.645  0.00  0.00     0.038 A 
ENDROOT
BRANCH   2   6
ATOM      6  N   UNL d   1     -47.249  14.617  22.568  0.00  0.00    -0.201 NA
ATOM      7  C   UNL d   1     -46.512  14.341  22.895  0.00  0.00     0.281 C 
ATOM      8  O   UNL d   1     -45.970  14.915  23.164  0.00  0.00    -0.265 OA
BRANCH   7   9
ATOM      9  C   UNL d   1     -46.329  13.565  22.949  0.00  0.00     0.077 A 
ATOM     10  C   UNL d   1     -46.546  13.153  23.610  0.00  0.00     0.104 A 
ATOM     11  N   UNL d   1     -46.372  12.354  23.697  0.00  0.00    -0.242 NA
ATOM     12  C   UNL d   1     -45.961  11.951  23.090  0.00  0.00     0.099 A 
ATOM     13  C   UNL d   1     -45.738  12.379  22.408  0.00  0.00     0.021 A 
ATOM     14  C   UNL d   1     -45.919  13.172  22.339  0.00  0.00     0.008 A 
ENDBRANCH   7   9
ENDBRANCH   2   6
BRANCH   1  15
ATOM     15  C   UNL d   1     -49.057  14.557  22.933  0.00  0.00     0.298 C 
ATOM     16  O   UNL d   1     -49.317  14.318  23.698  0.00  0.00    -0.259 OA
BRANCH  15  17
ATOM     17  O   UNL d   1     -49.218  15.314  22.646  0.00  0.00    -0.296 OA
ATOM     18  C   UNL d   1     -49.620  15.869  23.133  0.00  0.00     0.185 C 
ENDBRANCH  15  17
ENDBRANCH   1  15
BRANCH   3  19
ATOM     19  C   UNL d   1     -49.749  13.176  22.100  0.00  0.00     0.030 A 
ATOM     20  S   UNL d   1     -50.457  13.250  22.486  0.00  0.00    -0.086 SA
ATOM     21  C   UNL d   1     -50.997  12.811  22.063  0.00  0.00     0.035 A 
ATOM     22  C   UNL d   1     -50.637  12.469  21.428  0.00  0.00     0.007 A 
ATOM     23  C   UNL d   1     -49.846  12.700  21.450  0.00  0.00     0.007 A 
ENDBRANCH   3  19
TORSDOF 5
ENDMDL
MODEL 2
REMARK VINA RESULT:      -5.9      8.074      9.477
REMARK  5 active torsions:
REMARK  status: ('A' for Active; 'I' for Inactive)
REMARK    1  A    between atoms: C_9  and  C_1 
REMARK    2  A    between atoms: N_4  and  C_2 
REMARK    3  A    between atoms: C_8  and  C_3 
REMARK       I    between atoms: C_7  and  N_4 
REMARK    4  A    between atoms: C_10  and  C_7 
REMARK    5  A    between atoms: O_18  and  C_9 
ROOT
ATOM      1  C   UNL d   1     -39.842  14.758  18.555  0.00  0.00     0.088 A 
ATOM      2  C   UNL d   1     -39.870  15.145  19.275  0.00  0.00     0.119 A 
ATOM      3  C   UNL d   1     -39.080  14.417  18.504  0.00  0.00     0.020 A 
ATOM      4  S   UNL d   1     -39.203  15.082  19.680  0.00  0.00    -0.067 SA
ATOM      5  C   UNL d   1     -38.672  14.615  19.205  0.00  0.00     0.038 A 
ENDROOT
BRANCH   2   6
ATOM      6  N   UNL d   1     -40.549  15.591  19.594  0.00  0.00    -0.201 NA
ATOM      7  C   UNL d   1     -40.765  15.486  20.411  0.00  0.00     0.281 C 
ATOM      8  O   UNL d   1     -41.417  15.921  20.696  0.00  0.00    -0.265 OA
BRANCH   7   9
ATOM      9  C   UNL d   1     -40.371  14.993  20.901  0.00  0.00     0.077 A 
ATOM     10  C   UNL d   1     -40.620  14.227  20.975  0.00  0.00     0.104 A 
ATOM     11  N   UNL d   1     -40.236  13.695  21.471  0.00  0.00    -0.242 NA
ATOM     12  C   UNL d   1     -39.571  13.945  21.912  0.00  0.00     0.099 A 
ATOM     13  C   UNL d   1     -39.316  14.738  21.833  0.00  0.00     0.021 A 
ATOM     14  C   UNL d   1     -39.709  15.252  21.336  0.00  0.00     0.008 A 
ENDBRANCH   7   9
ENDBRANCH   2   6
BRANCH   1  15
ATOM     15  C   UNL d   1     -40.446  14.705  17.978  0.00  0.00     0.298 C 
ATOM     16  O   UNL d   1     -40.941  14.024  17.950  0.00  0.00    -0.259 OA
BRANCH  15  17
ATOM     17  O   UNL d   1     -40.545  15.325  17.443  0.00  0.00    -0.296 OA
ATOM     18  C   UNL d   1     -41.249  15.373  16.984  0.00  0.00     0.185 C 
ENDBRANCH  15  17
ENDBRANCH   1  15
BRANCH   3  19
ATOM     19  C   UNL d   1     -38.854  13.978  17.841  0.00  0.00     0.030 A 
ATOM     20  S   UNL d   1     -38.950  13.805  17.056  0.00  0.00    -0.086 SA
ATOM     21  C   UNL d   1     -38.405  13.226  16.880  0.00  0.00     0.035 A 
ATOM     22  C   UNL d   1     -37.978  13.040  17.537  0.00  0.00     0.007 A 
ATOM     23  C   UNL d   1     -38.262  13.516  18.147  0.00  0.00     0.007 A 
ENDBRANCH   3  19
TORSDOF 5
ENDMDL
MODEL 3
REMARK VINA RESULT:      -5.6      7.958      9.940
REMARK  5 active torsions:
REMARK  status: ('A' for Active; 'I' for Inactive)
REMARK    1  A    between atoms: C_9  and  C_1 
REMARK    2  A    between atoms: N_4  and  C_2 
REMARK    3  A    between atoms: C_8  and  C_3 
REMARK       I    between atoms: C_7  and  N_4 
REMARK    4  A    between atoms: C_10  and  C_7 
REMARK    5  A    between atoms: O_18  and  C_9 
ROOT
ATOM      1  C   UNL d   1     -39.840  14.616  19.383  0.00  0.00     0.088 A 
ATOM      2  C   UNL d   1     -40.019  14.391  18.618  0.00  0.00     0.119 A 
ATOM      3  C   UNL d   1     -39.112  14.249  19.569  0.00  0.00     0.020 A 
ATOM      4  S   UNL d   1     -39.478  13.921  18.304  0.00  0.00    -0.067 SA
ATOM      5  C   UNL d   1     -38.877  13.810  18.898  0.00  0.00     0.038 A 
ENDROOT
BRANCH   2   6
ATOM      6  N   UNL d   1     -40.726  14.628  18.164  0.00  0.00    -0.201 NA
ATOM      7  C   UNL d   1     -40.628  14.929  17.373  0.00  0.00     0.281 C 
ATOM      8  O   UNL d   1     -41.316  15.151  16.956  0.00  0.00    -0.265 OA
BRANCH   7   9
ATOM      9  C   UNL d   1     -39.911  15.004  17.027  0.00  0.00     0.077 A 
ATOM     10  C   UNL d   1     -39.527  15.715  17.063  0.00  0.00     0.104 A 
ATOM     11  N   UNL d   1     -38.789  15.825  16.717  0.00  0.00    -0.242 NA
ATOM     12  C   UNL d   1     -38.421  15.189  16.316  0.00  0.00     0.099 A 
ATOM     13  C   UNL d   1     -38.820  14.456  16.280  0.00  0.00     0.021 A 
ATOM     14  C   UNL d   1     -39.553  14.365  16.630  0.00  0.00     0.008 A 
ENDBRANCH   7   9
ENDBRANCH   2   6
BRANCH   1  15
ATOM     15  C   UNL d   1     -40.285  15.112  19.890  0.00  0.00     0.298 C 
ATOM     16  O   UNL d   1     -40.066  15.920  19.984  0.00  0.00    -0.259 OA
BRANCH  15  17
ATOM     17  O   UNL d   1     -40.934  14.798  20.291  0.00  0.00    -0.296 OA
ATOM     18  C   UNL d   1     -41.468  15.311  20.689  0.00  0.00     0.185 C 
ENDBRANCH  15  17
ENDBRANCH   1  15
BRANCH   3  19
ATOM     19  C   UNL d   1     -38.758  14.354  20.309  0.00  0.00     0.030 A 
ATOM     20  S   UNL d   1     -38.648  14.811  20.968  0.00  0.00    -0.086 SA
ATOM     21  C   UNL d   1     -38.142  14.397  21.453  0.00  0.00     0.035 A 
ATOM     22  C   UNL d   1     -37.940  13.698  21.108  0.00  0.00     0.007 A 
ATOM     23  C   UNL d   1     -38.330  13.669  20.382  0.00  0.00     0.007 A 
ENDBRANCH   3  19
TORSDOF 5
ENDMDL
MODEL 4
REMARK VINA RESULT:      -5.3      8.868      9.783
REMARK  5 active torsions:
REMARK  status: ('A' for Active; 'I' for Inactive)
REMARK    1  A    between atoms: C_9  and  C_1 
REMARK    2  A    between atoms: N_4  and  C_2 
REMARK    3  A    between atoms: C_8  and  C_3 
REMARK       I    between atoms: C_7  and  N_4 
REMARK    4  A    between atoms: C_10  and  C_7 
REMARK    5  A    between atoms: O_18  and  C_9 
ROOT
ATOM      1  C   UNL d   1     -39.520  14.567  18.186  0.00  0.00     0.088 A 
ATOM      2  C   UNL d   1     -39.532  14.300  18.959  0.00  0.00     0.119 A 
ATOM      3  C   UNL d   1     -40.234  14.987  18.075  0.00  0.00     0.020 A 
ATOM      4  S   UNL d   1     -40.181  14.510  19.343  0.00  0.00    -0.067 SA
ATOM      5  C   UNL d   1     -40.655  14.957  18.795  0.00  0.00     0.038 A 
ENDROOT
BRANCH   2   6
ATOM      6  N   UNL d   1     -38.909  13.830  19.351  0.00  0.00    -0.201 NA
ATOM      7  C   UNL d   1     -38.709  14.002  20.160  0.00  0.00     0.281 C 
ATOM      8  O   UNL d   1     -38.112  13.542  20.517  0.00  0.00    -0.265 OA
BRANCH   7   9
ATOM      9  C   UNL d   1     -39.069  14.580  20.579  0.00  0.00     0.077 A 
ATOM     10  C   UNL d   1     -38.713  15.304  20.642  0.00  0.00     0.104 A 
ATOM     11  N   UNL d   1     -39.057  15.919  21.066  0.00  0.00    -0.242 NA
ATOM     12  C   UNL d   1     -39.793  15.800  21.444  0.00  0.00     0.099 A 
ATOM     13  C   UNL d   1     -40.159  15.051  21.378  0.00  0.00     0.021 A 
ATOM     14  C   UNL d   1     -39.803  14.452  20.953  0.00  0.00     0.008 A 
ENDBRANCH   7   9
ENDBRANCH   2   6
BRANCH   1  15
ATOM     15  C   UNL d   1     -38.922  14.451  17.612  0.00  0.00     0.298 C 
ATOM     16  O   UNL d   1     -38.372  15.067  17.450  0.00  0.00    -0.259 OA
BRANCH  15  17
ATOM     17  O   UNL d   1     -38.882  13.730  17.213  0.00  0.00    -0.296 OA
ATOM     18  C   UNL d   1     -38.196  13.535  16.769  0.00  0.00     0.185 C 
ENDBRANCH  15  17
ENDBRANCH   1  15
BRANCH   3  19
ATOM     19  C   UNL d   1     -40.413  15.339  17.348  0.00  0.00     0.030 A 
ATOM     20  S   UNL d   1     -40.173  15.568  16.609  0.00  0.00    -0.086 SA
ATOM     21  C   UNL d   1     -40.821  15.912  16.254  0.00  0.00     0.035 A 
ATOM     22  C   UNL d   1     -41.450  15.900  16.757  0.00  0.00     0.007 A 
ATOM     23  C   UNL d   1     -41.193  15.537  17.451  0.00  0.00     0.007 A 
ENDBRANCH   3  19
TORSDOF 5
ENDMDL
