MODEL 1
REMARK VINA RESULT:      42.2      0.000      0.000
REMARK  4 active torsions:
REMARK  status: ('A' for Active; 'I' for Inactive)
REMARK    1  A    between atoms: N_4  and  S_1 
REMARK    2  A    between atoms: C_5  and  S_1 
REMARK    3  A    between atoms: S_2  and  N_3 
REMARK    4  A    between atoms: C_6  and  S_2 
ROOT
ATOM      1  N   UNL d   1      57.902  49.447  50.189  0.00  0.00    -0.226 N 
ATOM      2  N   UNL d   1      59.381  49.500  50.919  0.00  0.00    -0.226 N 
ATOM      3  C   UNL d   1      58.585  49.683  49.750  0.00  0.00     0.111 A 
ATOM      4  C   UNL d   1      59.314  49.707  50.116  0.00  0.00     0.111 A 
ATOM      5  C   UNL d   1      58.711  49.269  51.350  0.00  0.00     0.111 A 
ATOM      6  C   UNL d   1      57.965  49.242  50.984  0.00  0.00     0.111 A 
ENDROOT
BRANCH   1   7
ATOM      7  S   UNL d   1      57.118  49.412  49.830  0.00  0.00     0.277 S 
ATOM      8  O   UNL d   1      57.440  49.550  49.072  0.00  0.00    -0.199 OA
ATOM      9  O   UNL d   1      56.345  49.373  49.498  0.00  0.00    -0.199 OA
BRANCH   7  10
ATOM     10  C   UNL d   1      56.779  49.270  50.598  0.00  0.00     0.133 A 
ATOM     11  S   UNL d   1      56.813  49.670  51.286  0.00  0.00    -0.074 SA
ATOM     12  C   UNL d   1      56.376  49.264  51.835  0.00  0.00     0.036 A 
ATOM     13  C   UNL d   1      56.057  48.593  51.497  0.00  0.00     0.008 A 
ATOM     14  C   UNL d   1      56.305  48.588  50.720  0.00  0.00     0.020 A 
ENDBRANCH   7  10
ENDBRANCH   1   7
BRANCH   2  15
ATOM     15  S   UNL d   1      60.132  49.527  51.290  0.00  0.00     0.277 S 
ATOM     16  O   UNL d   1      60.480  49.705  50.560  0.00  0.00    -0.199 OA
ATOM     17  O   UNL d   1      59.763  49.348  52.018  0.00  0.00    -0.199 OA
BRANCH  15  18
ATOM     18  C   UNL d   1      60.869  49.552  51.661  0.00  0.00     0.133 A 
ATOM     19  S   UNL d   1      61.636  49.635  51.370  0.00  0.00    -0.074 SA
ATOM     20  C   UNL d   1      62.153  49.620  52.016  0.00  0.00     0.036 A 
ATOM     21  C   UNL d   1      61.710  49.531  52.690  0.00  0.00     0.008 A 
ATOM     22  C   UNL d   1      60.915  49.487  52.487  0.00  0.00     0.020 A 
ENDBRANCH  15  18
ENDBRANCH   2  15
TORSDOF 4
ENDMDL
