MODEL 1
REMARK VINA RESULT:      50.6      0.000      0.000
REMARK  5 active torsions:
REMARK  status: ('A' for Active; 'I' for Inactive)
REMARK    1  A    between atoms: O_8  and  C_2 
REMARK    2  A    between atoms: C_11  and  C_5 
REMARK    3  A    between atoms: C_15  and  O_8 
REMARK    4  A    between atoms: N_14  and  C_11 
REMARK    5  A    between atoms: O_23  and  C_16 
ROOT
ATOM      1  C   UNL d   1     -51.449  25.319  33.324  0.00  0.00     0.108 A 
ATOM      2  C   UNL d   1     -50.549  26.716  33.312  0.00  0.00     0.161 A 
ATOM      3  C   UNL d   1     -50.613  25.279  33.320  0.00  0.00     0.064 A 
ATOM      4  C   UNL d   1     -50.167  25.970  33.314  0.00  0.00     0.222 A 
ATOM      5  C   UNL d   1     -51.899  24.621  33.330  0.00  0.00     0.079 A 
ATOM      6  O   UNL d   1     -51.836  26.052  33.322  0.00  0.00    -0.305 OA
ATOM      7  C   UNL d   1     -51.377  26.755  33.316  0.00  0.00     0.126 A 
ATOM      8  C   UNL d   1     -50.242  24.534  33.322  0.00  0.00     0.009 A 
ATOM      9  C   UNL d   1     -51.516  23.888  33.332  0.00  0.00     0.199 A 
ATOM     10  O   UNL d   1     -49.342  25.934  33.309  0.00  0.00    -0.284 OA
ATOM     11  C   UNL d   1     -50.692  23.844  33.328  0.00  0.00     0.042 A 
ATOM     12  O   UNL d   1     -51.974  23.198  33.338  0.00  0.00    -0.286 OA
ATOM     13  C   UNL d   1     -51.752  27.488  33.314  0.00  0.00     0.029 C 
ENDROOT
BRANCH   2  14
ATOM     14  O   UNL d   1     -50.100  27.405  33.306  0.00  0.00    -0.302 OA
BRANCH  14  15
ATOM     15  C   UNL d   1     -49.650  27.608  33.964  0.00  0.00     0.100 A 
ATOM     16  C   UNL d   1     -48.851  27.791  33.872  0.00  0.00     0.027 A 
ATOM     17  C   UNL d   1     -48.400  27.993  34.523  0.00  0.00     0.026 A 
ATOM     18  C   UNL d   1     -48.748  28.014  35.281  0.00  0.00     0.094 A 
ATOM     19  C   UNL d   1     -49.547  27.829  35.368  0.00  0.00     0.026 A 
ATOM     20  C   UNL d   1     -49.998  27.627  34.710  0.00  0.00     0.027 A 
BRANCH  18  21
ATOM     21  O   UNL d   1     -48.296  28.216  35.939  0.00  0.00    -0.328 OA
ATOM     22  C   UNL d   1     -47.901  28.940  35.958  0.00  0.00     0.181 C 
ENDBRANCH  18  21
ENDBRANCH  14  15
ENDBRANCH   2  14
BRANCH   5  23
ATOM     23  C   UNL d   1     -52.723  24.664  33.335  0.00  0.00     0.086 C 
BRANCH  23  24
ATOM     24  N   UNL d   1     -53.155  24.103  33.745  0.00  0.00    -0.300 N 
ATOM     25  C   UNL d   1     -52.996  23.963  34.542  0.00  0.00     0.100 C 
ATOM     26  C   UNL d   1     -53.751  23.672  33.365  0.00  0.00     0.100 C 
ENDBRANCH  23  24
ENDBRANCH   5  23
TORSDOF 5
ENDMDL
