MODEL 1
REMARK VINA RESULT:     -10.1      0.000      0.000
REMARK  2 active torsions:
REMARK  status: ('A' for Active; 'I' for Inactive)
REMARK    1  A    between atoms: C_7  and  N_1 
REMARK    2  A    between atoms: C_9  and  C_2 
ROOT
ATOM      1  N   UNL d   1      52.655  33.198  53.461  0.00  0.00    -0.273 N 
ATOM      2  C   UNL d   1      53.171  33.608  53.963  0.00  0.00     0.174 A 
ATOM      3  N   UNL d   1      53.683  33.060  54.297  0.00  0.00    -0.204 NA
ATOM      4  C   UNL d   1      52.854  32.403  53.491  0.00  0.00     0.185 A 
ATOM      5  C   UNL d   1      53.489  32.315  54.006  0.00  0.00     0.199 A 
ATOM      6  N   UNL d   1      52.538  31.738  53.111  0.00  0.00    -0.224 NA
ATOM      7  N   UNL d   1      53.809  31.569  54.146  0.00  0.00    -0.223 NA
ATOM      8  C   UNL d   1      52.858  30.997  53.251  0.00  0.00     0.101 A 
ATOM      9  C   UNL d   1      53.490  30.907  53.765  0.00  0.00     0.101 A 
ATOM     10  C   UNL d   1      52.543  30.335  52.874  0.00  0.00     0.021 A 
ATOM     11  C   UNL d   1      53.813  30.163  53.907  0.00  0.00     0.021 A 
ATOM     12  C   UNL d   1      53.501  29.498  53.531  0.00  0.00     0.002 A 
ATOM     13  C   UNL d   1      52.860  29.588  53.010  0.00  0.00     0.002 A 
ENDROOT
BRANCH   1  14
ATOM     14  C   UNL d   1      52.059  33.568  53.026  0.00  0.00     0.069 A 
ATOM     15  C   UNL d   1      51.308  33.665  53.361  0.00  0.00     0.044 A 
ATOM     16  C   UNL d   1      50.714  34.033  52.929  0.00  0.00     0.124 A 
ATOM     17  O   UNL d   1      49.972  34.128  53.262  0.00  0.00    -0.301 OA
ATOM     18  C   UNL d   1      50.870  34.304  52.161  0.00  0.00     0.123 A 
ATOM     19  C   UNL d   1      49.365  34.501  52.826  0.00  0.00     0.149 A 
ATOM     20  C   UNL d   1      49.516  34.776  52.053  0.00  0.00     0.149 A 
ATOM     21  O   UNL d   1      50.269  34.677  51.721  0.00  0.00    -0.301 OA
ATOM     22  C   UNL d   1      51.615  34.208  51.826  0.00  0.00     0.028 A 
ATOM     23  C   UNL d   1      52.209  33.840  52.258  0.00  0.00     0.020 A 
ENDBRANCH   1  14
BRANCH   2  24
ATOM     24  C   UNL d   1      53.167  34.420  54.100  0.00  0.00     0.135 A 
ATOM     25  O   UNL d   1      53.459  35.000  53.591  0.00  0.00    -0.302 OA
ATOM     26  C   UNL d   1      53.340  35.738  53.953  0.00  0.00     0.123 A 
ATOM     27  C   UNL d   1      52.974  35.605  54.685  0.00  0.00     0.029 A 
ATOM     28  C   UNL d   1      52.868  34.791  54.775  0.00  0.00     0.030 A 
ENDBRANCH   2  24
TORSDOF 2
ENDMDL
MODEL 2
REMARK VINA RESULT:      -8.3      1.735      3.935
REMARK  2 active torsions:
REMARK  status: ('A' for Active; 'I' for Inactive)
REMARK    1  A    between atoms: C_7  and  N_1 
REMARK    2  A    between atoms: C_9  and  C_2 
ROOT
ATOM      1  N   UNL d   1      52.858  33.266  53.804  0.00  0.00    -0.273 N 
ATOM      2  C   UNL d   1      53.207  33.807  54.326  0.00  0.00     0.174 A 
ATOM      3  N   UNL d   1      52.740  34.483  54.336  0.00  0.00    -0.204 NA
ATOM      4  C   UNL d   1      52.181  33.614  53.498  0.00  0.00     0.185 A 
ATOM      5  C   UNL d   1      52.106  34.364  53.825  0.00  0.00     0.199 A 
ATOM      6  N   UNL d   1      51.614  33.342  52.958  0.00  0.00    -0.224 NA
ATOM      7  N   UNL d   1      51.471  34.846  53.617  0.00  0.00    -0.223 NA
ATOM      8  C   UNL d   1      50.984  33.822  52.753  0.00  0.00     0.101 A 
ATOM      9  C   UNL d   1      50.906  34.571  53.077  0.00  0.00     0.101 A 
ATOM     10  C   UNL d   1      50.419  33.551  52.214  0.00  0.00     0.021 A 
ATOM     11  C   UNL d   1      50.273  35.055  52.871  0.00  0.00     0.021 A 
ATOM     12  C   UNL d   1      49.707  34.788  52.334  0.00  0.00     0.002 A 
ATOM     13  C   UNL d   1      49.783  34.029  52.004  0.00  0.00     0.002 A 
ENDROOT
BRANCH   1  14
ATOM     14  C   UNL d   1      53.173  32.519  53.650  0.00  0.00     0.069 A 
ATOM     15  C   UNL d   1      52.890  31.862  54.066  0.00  0.00     0.044 A 
ATOM     16  C   UNL d   1      53.203  31.117  53.913  0.00  0.00     0.124 A 
ATOM     17  O   UNL d   1      52.921  30.469  54.326  0.00  0.00    -0.301 OA
ATOM     18  C   UNL d   1      53.799  31.030  53.344  0.00  0.00     0.123 A 
ATOM     19  C   UNL d   1      53.236  29.710  54.174  0.00  0.00     0.149 A 
ATOM     20  C   UNL d   1      53.837  29.615  53.602  0.00  0.00     0.149 A 
ATOM     21  O   UNL d   1      54.118  30.276  53.187  0.00  0.00    -0.301 OA
ATOM     22  C   UNL d   1      54.082  31.681  52.930  0.00  0.00     0.028 A 
ATOM     23  C   UNL d   1      53.769  32.426  53.082  0.00  0.00     0.020 A 
ENDBRANCH   1  14
BRANCH   2  24
ATOM     24  C   UNL d   1      53.899  33.685  54.756  0.00  0.00     0.135 A 
ATOM     25  O   UNL d   1      53.960  33.286  55.476  0.00  0.00    -0.302 OA
ATOM     26  C   UNL d   1      54.759  33.297  55.704  0.00  0.00     0.123 A 
ATOM     27  C   UNL d   1      55.184  33.703  55.120  0.00  0.00     0.029 A 
ATOM     28  C   UNL d   1      54.653  33.942  54.535  0.00  0.00     0.030 A 
ENDBRANCH   2  24
TORSDOF 2
ENDMDL
MODEL 3
REMARK VINA RESULT:      -7.9      1.447      3.263
REMARK  2 active torsions:
REMARK  status: ('A' for Active; 'I' for Inactive)
REMARK    1  A    between atoms: C_7  and  N_1 
REMARK    2  A    between atoms: C_9  and  C_2 
ROOT
ATOM      1  N   UNL d   1      53.055  32.216  53.586  0.00  0.00    -0.273 N 
ATOM      2  C   UNL d   1      52.555  32.456  52.970  0.00  0.00     0.174 A 
ATOM      3  N   UNL d   1      52.233  31.781  52.631  0.00  0.00    -0.204 NA
ATOM      4  C   UNL d   1      53.034  31.396  53.621  0.00  0.00     0.185 A 
ATOM      5  C   UNL d   1      52.528  31.125  53.032  0.00  0.00     0.199 A 
ATOM      6  N   UNL d   1      53.415  30.853  54.117  0.00  0.00    -0.224 NA
ATOM      7  N   UNL d   1      52.399  30.318  52.936  0.00  0.00    -0.223 NA
ATOM      8  C   UNL d   1      53.286  30.051  54.019  0.00  0.00     0.101 A 
ATOM      9  C   UNL d   1      52.781  29.778  53.434  0.00  0.00     0.101 A 
ATOM     10  C   UNL d   1      53.665  29.510  54.514  0.00  0.00     0.021 A 
ATOM     11  C   UNL d   1      52.650  28.972  53.334  0.00  0.00     0.021 A 
ATOM     12  C   UNL d   1      53.028  28.427  53.826  0.00  0.00     0.002 A 
ATOM     13  C   UNL d   1      53.539  28.702  54.421  0.00  0.00     0.002 A 
ENDROOT
BRANCH   1  14
ATOM     14  C   UNL d   1      53.479  32.745  54.057  0.00  0.00     0.069 A 
ATOM     15  C   UNL d   1      54.278  32.887  53.894  0.00  0.00     0.044 A 
ATOM     16  C   UNL d   1      54.701  33.414  54.362  0.00  0.00     0.124 A 
ATOM     17  O   UNL d   1      55.491  33.553  54.199  0.00  0.00    -0.301 OA
ATOM     18  C   UNL d   1      54.325  33.798  54.993  0.00  0.00     0.123 A 
ATOM     19  C   UNL d   1      55.925  34.087  54.672  0.00  0.00     0.149 A 
ATOM     20  C   UNL d   1      55.553  34.478  55.309  0.00  0.00     0.149 A 
ATOM     21  O   UNL d   1      54.753  34.333  55.469  0.00  0.00    -0.301 OA
ATOM     22  C   UNL d   1      53.532  33.658  55.156  0.00  0.00     0.028 A 
ATOM     23  C   UNL d   1      53.108  33.131  54.688  0.00  0.00     0.020 A 
ENDBRANCH   1  14
BRANCH   2  24
ATOM     24  C   UNL d   1      52.412  33.234  52.741  0.00  0.00     0.135 A 
ATOM     25  O   UNL d   1      52.893  33.695  52.255  0.00  0.00    -0.302 OA
ATOM     26  C   UNL d   1      52.533  34.439  52.174  0.00  0.00     0.123 A 
ATOM     27  C   UNL d   1      51.830  34.429  52.613  0.00  0.00     0.029 A 
ATOM     28  C   UNL d   1      51.755  33.685  52.963  0.00  0.00     0.030 A 
ENDBRANCH   2  24
TORSDOF 2
ENDMDL
MODEL 4
REMARK VINA RESULT:      -7.2      1.859      4.379
REMARK  2 active torsions:
REMARK  status: ('A' for Active; 'I' for Inactive)
REMARK    1  A    between atoms: C_7  and  N_1 
REMARK    2  A    between atoms: C_9  and  C_2 
ROOT
ATOM      1  N   UNL d   1      52.616  32.497  53.415  0.00  0.00    -0.273 N 
ATOM      2  C   UNL d   1      52.434  31.698  53.288  0.00  0.00     0.174 A 
ATOM      3  N   UNL d   1      51.658  31.657  53.023  0.00  0.00    -0.204 NA
ATOM      4  C   UNL d   1      51.950  32.939  53.228  0.00  0.00     0.185 A 
ATOM      5  C   UNL d   1      51.358  32.422  52.986  0.00  0.00     0.199 A 
ATOM      6  N   UNL d   1      51.803  33.753  53.246  0.00  0.00    -0.224 NA
ATOM      7  N   UNL d   1      50.620  32.713  52.761  0.00  0.00    -0.223 NA
ATOM      8  C   UNL d   1      51.069  34.041  53.023  0.00  0.00     0.101 A 
ATOM      9  C   UNL d   1      50.477  33.528  52.781  0.00  0.00     0.101 A 
ATOM     10  C   UNL d   1      50.923  34.853  53.040  0.00  0.00     0.021 A 
ATOM     11  C   UNL d   1      49.739  33.815  52.556  0.00  0.00     0.021 A 
ATOM     12  C   UNL d   1      49.588  34.627  52.572  0.00  0.00     0.002 A 
ATOM     13  C   UNL d   1      50.188  35.148  52.817  0.00  0.00     0.002 A 
ENDROOT
BRANCH   1  14
ATOM     14  C   UNL d   1      53.351  32.756  53.684  0.00  0.00     0.069 A 
ATOM     15  C   UNL d   1      53.453  32.936  54.486  0.00  0.00     0.044 A 
ATOM     16  C   UNL d   1      54.186  33.194  54.755  0.00  0.00     0.124 A 
ATOM     17  O   UNL d   1      54.284  33.372  55.548  0.00  0.00    -0.301 OA
ATOM     18  C   UNL d   1      54.816  33.272  54.223  0.00  0.00     0.123 A 
ATOM     19  C   UNL d   1      55.027  33.635  55.826  0.00  0.00     0.149 A 
ATOM     20  C   UNL d   1      55.666  33.715  55.296  0.00  0.00     0.149 A 
ATOM     21  O   UNL d   1      55.560  33.534  54.494  0.00  0.00    -0.301 OA
ATOM     22  C   UNL d   1      54.717  33.094  53.427  0.00  0.00     0.028 A 
ATOM     23  C   UNL d   1      53.985  32.836  53.157  0.00  0.00     0.020 A 
ENDBRANCH   1  14
BRANCH   2  24
ATOM     24  C   UNL d   1      52.944  31.063  53.407  0.00  0.00     0.135 A 
ATOM     25  O   UNL d   1      53.128  30.716  54.133  0.00  0.00    -0.302 OA
ATOM     26  C   UNL d   1      53.663  30.097  53.990  0.00  0.00     0.123 A 
ATOM     27  C   UNL d   1      53.804  30.068  53.174  0.00  0.00     0.029 A 
ATOM     28  C   UNL d   1      53.361  30.665  52.814  0.00  0.00     0.030 A 
ENDBRANCH   2  24
TORSDOF 2
ENDMDL
