MODEL 1
REMARK VINA RESULT:       0.7      0.000      0.000
REMARK  6 active torsions:
REMARK  status: ('A' for Active; 'I' for Inactive)
REMARK    1  A    between atoms: C_2  and  C_1 
REMARK       I    between atoms: N_5  and  C_2 
REMARK    2  A    between atoms: C_13  and  N_5 
REMARK    3  A    between atoms: C_14  and  C_6 
REMARK       I    between atoms: C_8  and  N_9 
REMARK    4  A    between atoms: N_9  and  C_15 
REMARK    5  A    between atoms: S_11  and  C_14 
REMARK    6  A    between atoms: C_16  and  S_11 
ROOT
ATOM      1  C   UNL d   1     -41.982-121.328 -51.139  0.00  0.00     0.158 A 
ATOM      2  O   UNL d   1     -41.880-121.876 -50.531  0.00  0.00    -0.302 OA
ATOM      3  C   UNL d   1     -42.753-121.418 -51.426  0.00  0.00     0.032 A 
ATOM      4  C   UNL d   1     -42.573-122.299 -50.442  0.00  0.00     0.107 A 
ATOM      5  C   UNL d   1     -43.119-122.019 -50.995  0.00  0.00     0.027 A 
ENDROOT
BRANCH   1   6
ATOM      6  C   UNL d   1     -41.424-120.786 -51.416  0.00  0.00     0.302 C 
ATOM      7  N   UNL d   1     -41.123-120.851 -52.179  0.00  0.00    -0.206 NA
ATOM      8  O   UNL d   1     -41.172-120.180 -50.922  0.00  0.00    -0.263 OA
BRANCH   7   9
ATOM      9  C   UNL d   1     -41.386-121.470 -52.669  0.00  0.00     0.085 A 
ATOM     10  C   UNL d   1     -41.123-122.242 -52.543  0.00  0.00     0.021 A 
ATOM     11  C   UNL d   1     -41.392-122.846 -53.037  0.00  0.00     0.021 A 
ATOM     12  C   UNL d   1     -41.919-122.679 -53.647  0.00  0.00     0.085 A 
ATOM     13  C   UNL d   1     -42.180-121.902 -53.767  0.00  0.00     0.021 A 
ATOM     14  C   UNL d   1     -41.915-121.294 -53.279  0.00  0.00     0.021 A 
BRANCH  12  15
ATOM     15  N   UNL d   1     -42.189-123.288 -54.142  0.00  0.00    -0.208 NA
ATOM     16  C   UNL d   1     -42.109-123.213 -54.960  0.00  0.00     0.279 C 
ATOM     17  O   UNL d   1     -41.766-122.543 -55.288  0.00  0.00    -0.265 OA
ATOM     18  C   UNL d   1     -42.376-123.817 -55.448  0.00  0.00     0.068 C 
ENDBRANCH  12  15
ENDBRANCH   7   9
ENDBRANCH   1   6
BRANCH   4  19
ATOM     19  C   UNL d   1     -42.714-122.903 -49.897  0.00  0.00     0.060 C 
BRANCH  19  20
ATOM     20  S   UNL d   1     -42.084-123.245 -49.493  0.00  0.00    -0.084 SA
BRANCH  20  21
ATOM     21  C   UNL d   1     -42.143-123.412 -48.692  0.00  0.00     0.029 A 
ATOM     22  C   UNL d   1     -41.473-123.338 -48.216  0.00  0.00     0.006 A 
ATOM     23  C   UNL d   1     -41.532-123.504 -47.414  0.00  0.00     0.001 A 
ATOM     24  C   UNL d   1     -42.249-123.742 -47.087  0.00  0.00     0.000 A 
ATOM     25  C   UNL d   1     -42.920-123.816 -47.567  0.00  0.00     0.001 A 
ATOM     26  C   UNL d   1     -42.861-123.649 -48.369  0.00  0.00     0.006 A 
ENDBRANCH  20  21
ENDBRANCH  19  20
ENDBRANCH   4  19
TORSDOF 6
ENDMDL
MODEL 2
REMARK VINA RESULT:       2.4      1.823      5.172
REMARK  6 active torsions:
REMARK  status: ('A' for Active; 'I' for Inactive)
REMARK    1  A    between atoms: C_2  and  C_1 
REMARK       I    between atoms: N_5  and  C_2 
REMARK    2  A    between atoms: C_13  and  N_5 
REMARK    3  A    between atoms: C_14  and  C_6 
REMARK       I    between atoms: C_8  and  N_9 
REMARK    4  A    between atoms: N_9  and  C_15 
REMARK    5  A    between atoms: S_11  and  C_14 
REMARK    6  A    between atoms: C_16  and  S_11 
ROOT
ATOM      1  C   UNL d   1     -43.150-121.952 -51.111  0.00  0.00     0.158 A 
ATOM      2  O   UNL d   1     -42.725-122.329 -51.708  0.00  0.00    -0.302 OA
ATOM      3  C   UNL d   1     -42.645-121.397 -50.760  0.00  0.00     0.032 A 
ATOM      4  C   UNL d   1     -41.971-122.015 -51.729  0.00  0.00     0.107 A 
ATOM      5  C   UNL d   1     -41.915-121.436 -51.143  0.00  0.00     0.027 A 
ENDROOT
BRANCH   1   6
ATOM      6  C   UNL d   1     -43.935-122.095 -50.895  0.00  0.00     0.302 C 
ATOM      7  N   UNL d   1     -44.109-122.487 -50.193  0.00  0.00    -0.206 NA
ATOM      8  O   UNL d   1     -44.540-121.841 -51.388  0.00  0.00    -0.263 OA
BRANCH   7   9
ATOM      9  C   UNL d   1     -43.485-122.739 -49.702  0.00  0.00     0.085 A 
ATOM     10  C   UNL d   1     -43.120-122.208 -49.187  0.00  0.00     0.021 A 
ATOM     11  C   UNL d   1     -42.503-122.471 -48.706  0.00  0.00     0.021 A 
ATOM     12  C   UNL d   1     -42.256-123.256 -48.742  0.00  0.00     0.085 A 
ATOM     13  C   UNL d   1     -42.627-123.783 -49.261  0.00  0.00     0.021 A 
ATOM     14  C   UNL d   1     -43.242-123.529 -49.744  0.00  0.00     0.021 A 
BRANCH  12  15
ATOM     15  N   UNL d   1     -41.635-123.518 -48.257  0.00  0.00    -0.208 NA
ATOM     16  C   UNL d   1     -41.741-123.543 -47.439  0.00  0.00     0.279 C 
ATOM     17  O   UNL d   1     -42.453-123.312 -47.101  0.00  0.00    -0.265 OA
ATOM     18  C   UNL d   1     -41.125-123.803 -46.961  0.00  0.00     0.068 C 
ENDBRANCH  12  15
ENDBRANCH   7   9
ENDBRANCH   1   6
BRANCH   4  19
ATOM     19  C   UNL d   1     -41.363-122.232 -52.244  0.00  0.00     0.060 C 
BRANCH  19  20
ATOM     20  S   UNL d   1     -41.481-122.842 -52.784  0.00  0.00    -0.084 SA
BRANCH  20  21
ATOM     21  C   UNL d   1     -41.417-122.704 -53.590  0.00  0.00     0.029 A 
ATOM     22  C   UNL d   1     -41.562-123.323 -54.117  0.00  0.00     0.006 A 
ATOM     23  C   UNL d   1     -41.499-123.184 -54.923  0.00  0.00     0.001 A 
ATOM     24  C   UNL d   1     -41.293-122.439 -55.205  0.00  0.00     0.000 A 
ATOM     25  C   UNL d   1     -41.149-121.820 -54.675  0.00  0.00     0.001 A 
ATOM     26  C   UNL d   1     -41.212-121.958 -53.869  0.00  0.00     0.006 A 
ENDBRANCH  20  21
ENDBRANCH  19  20
ENDBRANCH   4  19
TORSDOF 6
ENDMDL
MODEL 3
REMARK VINA RESULT:       2.8      1.691      5.095
REMARK  6 active torsions:
REMARK  status: ('A' for Active; 'I' for Inactive)
REMARK    1  A    between atoms: C_2  and  C_1 
REMARK       I    between atoms: N_5  and  C_2 
REMARK    2  A    between atoms: C_13  and  N_5 
REMARK    3  A    between atoms: C_14  and  C_6 
REMARK       I    between atoms: C_8  and  N_9 
REMARK    4  A    between atoms: N_9  and  C_15 
REMARK    5  A    between atoms: S_11  and  C_14 
REMARK    6  A    between atoms: C_16  and  S_11 
ROOT
ATOM      1  C   UNL d   1     -41.403-121.587 -51.874  0.00  0.00     0.158 A 
ATOM      2  O   UNL d   1     -41.665-121.811 -52.623  0.00  0.00    -0.302 OA
ATOM      3  C   UNL d   1     -41.123-122.269 -51.496  0.00  0.00     0.032 A 
ATOM      4  C   UNL d   1     -41.550-122.615 -52.709  0.00  0.00     0.107 A 
ATOM      5  C   UNL d   1     -41.214-122.905 -52.013  0.00  0.00     0.027 A 
ENDROOT
BRANCH   1   6
ATOM      6  C   UNL d   1     -41.415-120.827 -51.552  0.00  0.00     0.302 C 
ATOM      7  N   UNL d   1     -41.715-120.699 -50.796  0.00  0.00    -0.206 NA
ATOM      8  O   UNL d   1     -41.123-120.199 -51.992  0.00  0.00    -0.263 OA
BRANCH   7   9
ATOM      9  C   UNL d   1     -42.008-121.344 -50.360  0.00  0.00     0.085 A 
ATOM     10  C   UNL d   1     -42.821-121.439 -50.252  0.00  0.00     0.021 A 
ATOM     11  C   UNL d   1     -43.098-122.084 -49.817  0.00  0.00     0.021 A 
ATOM     12  C   UNL d   1     -42.567-122.625 -49.496  0.00  0.00     0.085 A 
ATOM     13  C   UNL d   1     -41.753-122.524 -49.609  0.00  0.00     0.021 A 
ATOM     14  C   UNL d   1     -41.469-121.884 -50.041  0.00  0.00     0.021 A 
BRANCH  12  15
ATOM     15  N   UNL d   1     -42.849-123.273 -49.059  0.00  0.00    -0.208 NA
ATOM     16  C   UNL d   1     -43.041-123.173 -48.262  0.00  0.00     0.279 C 
ATOM     17  O   UNL d   1     -42.957-122.442 -47.899  0.00  0.00    -0.265 OA
ATOM     18  C   UNL d   1     -43.319-123.815 -47.832  0.00  0.00     0.068 C 
ENDBRANCH  12  15
ENDBRANCH   7   9
ENDBRANCH   1   6
BRANCH   4  19
ATOM     19  C   UNL d   1     -41.734-123.069 -53.374  0.00  0.00     0.060 C 
BRANCH  19  20
ATOM     20  S   UNL d   1     -41.372-122.907 -54.095  0.00  0.00    -0.084 SA
BRANCH  20  21
ATOM     21  C   UNL d   1     -41.819-122.701 -54.751  0.00  0.00     0.029 A 
ATOM     22  C   UNL d   1     -41.625-122.017 -55.170  0.00  0.00     0.006 A 
ATOM     23  C   UNL d   1     -42.073-121.811 -55.826  0.00  0.00     0.001 A 
ATOM     24  C   UNL d   1     -42.707-122.278 -56.065  0.00  0.00     0.000 A 
ATOM     25  C   UNL d   1     -42.900-122.963 -55.642  0.00  0.00     0.001 A 
ATOM     26  C   UNL d   1     -42.452-123.170 -54.986  0.00  0.00     0.006 A 
ENDBRANCH  20  21
ENDBRANCH  19  20
ENDBRANCH   4  19
TORSDOF 6
ENDMDL
