MODEL 1
REMARK VINA RESULT:      -7.4      0.000      0.000
REMARK  4 active torsions:
REMARK  status: ('A' for Active; 'I' for Inactive)
REMARK    1  A    between atoms: S_6  and  C_2 
REMARK    2  A    between atoms: C_8  and  C_3 
REMARK    3  A    between atoms: C_10  and  S_6 
REMARK    4  A    between atoms: C_7  and  C_10 
ROOT
ATOM      1  N   UNL d   1      52.460  34.085  53.525  0.00  0.00    -0.282 N 
ATOM      2  C   UNL d   1      51.752  33.836  53.179  0.00  0.00     0.180 A 
ATOM      3  C   UNL d   1      52.874  33.418  53.763  0.00  0.00     0.085 A 
ATOM      4  N   UNL d   1      51.730  33.008  53.204  0.00  0.00    -0.219 NA
ATOM      5  C   UNL d   1      52.431  32.752  53.569  0.00  0.00     0.119 A 
ATOM      6  C   UNL d   1      52.707  34.891  53.614  0.00  0.00     0.101 C 
ENDROOT
BRANCH   3   7
ATOM      7  C   UNL d   1      53.609  33.379  54.136  0.00  0.00     0.018 A 
ATOM      8  C   UNL d   1      54.282  33.235  53.686  0.00  0.00     0.002 A 
ATOM      9  C   UNL d   1      55.021  33.196  54.057  0.00  0.00     0.000 A 
ATOM     10  C   UNL d   1      55.071  33.304  54.884  0.00  0.00     0.000 A 
ATOM     11  C   UNL d   1      54.402  33.446  55.318  0.00  0.00     0.000 A 
ATOM     12  C   UNL d   1      53.659  33.486  54.949  0.00  0.00     0.002 A 
ENDBRANCH   3   7
BRANCH   2  13
ATOM     13  S   UNL d   1      51.158  34.329  52.857  0.00  0.00    -0.044 SA
BRANCH  13  14
ATOM     14  C   UNL d   1      50.382  34.042  52.782  0.00  0.00     0.102 C 
BRANCH  14  15
ATOM     15  C   UNL d   1      49.793  34.531  52.484  0.00  0.00     0.303 C 
ATOM     16  O   UNL d   1      49.406  35.060  53.001  0.00  0.00    -0.263 OA
ATOM     17  N   UNL d   1      49.591  34.496  51.689  0.00  0.00    -0.102 N 
ENDBRANCH  14  15
ENDBRANCH  13  14
ENDBRANCH   2  13
TORSDOF 4
ENDMDL
MODEL 2
REMARK VINA RESULT:      -7.4      2.543      3.666
REMARK  4 active torsions:
REMARK  status: ('A' for Active; 'I' for Inactive)
REMARK    1  A    between atoms: S_6  and  C_2 
REMARK    2  A    between atoms: C_8  and  C_3 
REMARK    3  A    between atoms: C_10  and  S_6 
REMARK    4  A    between atoms: C_7  and  C_10 
ROOT
ATOM      1  N   UNL d   1      52.898  32.439  53.585  0.00  0.00    -0.282 N 
ATOM      2  C   UNL d   1      53.336  31.743  53.517  0.00  0.00     0.180 A 
ATOM      3  C   UNL d   1      53.418  33.052  53.750  0.00  0.00     0.085 A 
ATOM      4  N   UNL d   1      54.135  31.927  53.642  0.00  0.00    -0.219 NA
ATOM      5  C   UNL d   1      54.181  32.745  53.787  0.00  0.00     0.119 A 
ATOM      6  C   UNL d   1      52.057  32.501  53.497  0.00  0.00     0.101 C 
ENDROOT
BRANCH   3   7
ATOM      7  C   UNL d   1      53.246  33.850  53.867  0.00  0.00     0.018 A 
ATOM      8  C   UNL d   1      53.325  34.174  54.619  0.00  0.00     0.002 A 
ATOM      9  C   UNL d   1      53.153  34.975  54.739  0.00  0.00     0.000 A 
ATOM     10  C   UNL d   1      52.901  35.442  54.093  0.00  0.00     0.000 A 
ATOM     11  C   UNL d   1      52.826  35.113  53.356  0.00  0.00     0.000 A 
ATOM     12  C   UNL d   1      52.998  34.309  53.233  0.00  0.00     0.002 A 
ENDBRANCH   3   7
BRANCH   2  13
ATOM     13  S   UNL d   1      53.034  30.981  53.351  0.00  0.00    -0.044 SA
BRANCH  13  14
ATOM     14  C   UNL d   1      53.490  30.310  53.531  0.00  0.00     0.102 C 
BRANCH  14  15
ATOM     15  C   UNL d   1      53.122  29.583  53.635  0.00  0.00     0.303 C 
ATOM     16  O   UNL d   1      52.616  29.295  53.037  0.00  0.00    -0.263 OA
ATOM     17  N   UNL d   1      53.254  29.149  54.320  0.00  0.00    -0.102 N 
ENDBRANCH  14  15
ENDBRANCH  13  14
ENDBRANCH   2  13
TORSDOF 4
ENDMDL
MODEL 3
REMARK VINA RESULT:      -7.0      2.136      3.092
REMARK  4 active torsions:
REMARK  status: ('A' for Active; 'I' for Inactive)
REMARK    1  A    between atoms: S_6  and  C_2 
REMARK    2  A    between atoms: C_8  and  C_3 
REMARK    3  A    between atoms: C_10  and  S_6 
REMARK    4  A    between atoms: C_7  and  C_10 
ROOT
ATOM      1  N   UNL d   1      53.271  32.655  53.964  0.00  0.00    -0.282 N 
ATOM      2  C   UNL d   1      53.074  33.426  53.741  0.00  0.00     0.180 A 
ATOM      3  C   UNL d   1      53.003  32.146  53.378  0.00  0.00     0.085 A 
ATOM      4  N   UNL d   1      52.682  33.393  53.012  0.00  0.00    -0.219 NA
ATOM      5  C   UNL d   1      52.640  32.592  52.790  0.00  0.00     0.119 A 
ATOM      6  C   UNL d   1      53.678  32.438  54.675  0.00  0.00     0.101 C 
ENDROOT
BRANCH   3   7
ATOM      7  C   UNL d   1      53.067  31.325  53.348  0.00  0.00     0.018 A 
ATOM      8  C   UNL d   1      52.387  30.870  53.263  0.00  0.00     0.002 A 
ATOM      9  C   UNL d   1      52.448  30.045  53.233  0.00  0.00     0.000 A 
ATOM     10  C   UNL d   1      53.202  29.687  53.289  0.00  0.00     0.000 A 
ATOM     11  C   UNL d   1      53.866  30.144  53.373  0.00  0.00     0.000 A 
ATOM     12  C   UNL d   1      53.807  30.972  53.404  0.00  0.00     0.002 A 
ENDBRANCH   3   7
BRANCH   2  13
ATOM     13  S   UNL d   1      53.240  34.123  54.172  0.00  0.00    -0.044 SA
BRANCH  13  14
ATOM     14  C   UNL d   1      52.924  34.849  53.918  0.00  0.00     0.102 C 
BRANCH  14  15
ATOM     15  C   UNL d   1      53.048  35.527  54.364  0.00  0.00     0.303 C 
ATOM     16  O   UNL d   1      53.776  35.929  54.297  0.00  0.00    -0.263 OA
ATOM     17  N   UNL d   1      52.460  35.802  54.867  0.00  0.00    -0.102 N 
ENDBRANCH  14  15
ENDBRANCH  13  14
ENDBRANCH   2  13
TORSDOF 4
ENDMDL
MODEL 4
REMARK VINA RESULT:      -7.0      2.026      4.041
REMARK  4 active torsions:
REMARK  status: ('A' for Active; 'I' for Inactive)
REMARK    1  A    between atoms: S_6  and  C_2 
REMARK    2  A    between atoms: C_8  and  C_3 
REMARK    3  A    between atoms: C_10  and  S_6 
REMARK    4  A    between atoms: C_7  and  C_10 
ROOT
ATOM      1  N   UNL d   1      52.527  34.138  53.643  0.00  0.00    -0.282 N 
ATOM      2  C   UNL d   1      53.108  33.635  53.948  0.00  0.00     0.180 A 
ATOM      3  C   UNL d   1      52.012  33.688  53.191  0.00  0.00     0.085 A 
ATOM      4  N   UNL d   1      52.949  32.866  53.680  0.00  0.00    -0.219 NA
ATOM      5  C   UNL d   1      52.265  32.905  53.209  0.00  0.00     0.119 A 
ATOM      6  C   UNL d   1      52.481  34.974  53.781  0.00  0.00     0.101 C 
ENDROOT
BRANCH   3   7
ATOM      7  C   UNL d   1      51.345  33.939  52.776  0.00  0.00     0.018 A 
ATOM      8  C   UNL d   1      51.408  34.098  51.971  0.00  0.00     0.002 A 
ATOM      9  C   UNL d   1      50.741  34.350  51.551  0.00  0.00     0.000 A 
ATOM     10  C   UNL d   1      50.013  34.438  51.952  0.00  0.00     0.000 A 
ATOM     11  C   UNL d   1      49.962  34.279  52.745  0.00  0.00     0.000 A 
ATOM     12  C   UNL d   1      50.630  34.026  53.169  0.00  0.00     0.002 A 
ENDBRANCH   3   7
BRANCH   2  13
ATOM     13  S   UNL d   1      53.747  33.855  54.439  0.00  0.00    -0.044 SA
BRANCH  13  14
ATOM     14  C   UNL d   1      54.321  33.291  54.645  0.00  0.00     0.102 C 
BRANCH  14  15
ATOM     15  C   UNL d   1      54.921  33.492  55.169  0.00  0.00     0.303 C 
ATOM     16  O   UNL d   1      54.824  33.321  55.980  0.00  0.00    -0.263 OA
ATOM     17  N   UNL d   1      55.605  33.855  54.894  0.00  0.00    -0.102 N 
ENDBRANCH  14  15
ENDBRANCH  13  14
ENDBRANCH   2  13
TORSDOF 4
ENDMDL
