MODEL 1
REMARK VINA RESULT:      -2.9      0.000      0.000
REMARK  4 active torsions:
REMARK  status: ('A' for Active; 'I' for Inactive)
REMARK    1  A    between atoms: C_15  and  O_20 
REMARK    2  A    between atoms: C_16  and  O_21 
REMARK    3  A    between atoms: O_20  and  C_18 
REMARK    4  A    between atoms: O_21  and  C_19 
ROOT
ATOM      1  C   UNL d   1      58.092   0.660  32.213  0.00  0.00     0.161 A 
ATOM      2  O   UNL d   1      58.322   0.665  32.937  0.00  0.00    -0.291 OA
ATOM      3  C   UNL d   1      57.344   0.654  32.571  0.00  0.00     0.033 A 
ATOM      4  C   UNL d   1      58.152   0.657  31.390  0.00  0.00     0.033 A 
ATOM      5  C   UNL d   1      58.797   0.665  31.734  0.00  0.00     0.016 A 
ATOM      6  C   UNL d   1      58.958   0.671  32.944  0.00  0.00     0.296 A 
ATOM      7  C   UNL d   1      56.658   0.646  32.102  0.00  0.00     0.101 A 
ATOM      8  C   UNL d   1      57.466   0.649  30.921  0.00  0.00     0.101 A 
ATOM      9  O   UNL d   1      56.721   0.643  31.276  0.00  0.00    -0.307 OA
ATOM     10  C   UNL d   1      59.244   0.671  32.324  0.00  0.00     0.062 A 
ATOM     11  C   UNL d   1      57.527   0.646  30.096  0.00  0.00     0.049 A 
ATOM     12  C   UNL d   1      55.916   0.640  32.453  0.00  0.00     0.049 A 
ATOM     13  C   UNL d   1      57.287   0.657  33.390  0.00  0.00     0.003 A 
ATOM     14  C   UNL d   1      58.898   0.663  31.034  0.00  0.00     0.003 A 
ATOM     15  O   UNL d   1      59.255   0.676  33.557  0.00  0.00    -0.259 OA
ATOM     16  C   UNL d   1      58.275   0.652  29.738  0.00  0.00     0.105 A 
ATOM     17  C   UNL d   1      55.854   0.643  33.279  0.00  0.00     0.105 A 
ATOM     18  C   UNL d   1      56.539   0.652  33.748  0.00  0.00     0.025 A 
ATOM     19  C   UNL d   1      58.960   0.660  30.207  0.00  0.00     0.025 A 
ATOM     20  C   UNL d   1      59.091   0.664  30.986  0.00  0.00    -0.001 A 
ATOM     21  C   UNL d   1      60.047   0.679  32.269  0.00  0.00     0.005 A 
ATOM     22  C   UNL d   1      59.890   0.672  30.878  0.00  0.00    -0.000 A 
ATOM     23  C   UNL d   1      60.365   0.679  31.524  0.00  0.00     0.000 A 
ENDROOT
BRANCH  17  24
ATOM     24  O   UNL d   1      55.343   0.639  33.504  0.00  0.00    -0.273 OA
BRANCH  24  25
ATOM     25  C   UNL d   1      55.146   0.321  34.016  0.00  0.00     0.300 C 
ATOM     26  O   UNL d   1      54.895  -0.153  33.818  0.00  0.00    -0.259 OA
ATOM     27  C   UNL d   1      55.218   0.508  34.686  0.00  0.00     0.074 C 
ENDBRANCH  24  25
ENDBRANCH  17  24
BRANCH  16  28
ATOM     28  O   UNL d   1      58.306   0.650  29.172  0.00  0.00    -0.273 OA
BRANCH  28  29
ATOM     29  C   UNL d   1      58.238   0.362  28.715  0.00  0.00     0.300 C 
ATOM     30  O   UNL d   1      57.693   0.576  28.487  0.00  0.00    -0.259 OA
ATOM     31  C   UNL d   1      58.622  -0.086  28.470  0.00  0.00     0.074 C 
ENDBRANCH  28  29
ENDBRANCH  16  28
TORSDOF 4
ENDMDL
MODEL 2
REMARK VINA RESULT:      -2.5     10.362     10.735
REMARK  4 active torsions:
REMARK  status: ('A' for Active; 'I' for Inactive)
REMARK    1  A    between atoms: C_15  and  O_20 
REMARK    2  A    between atoms: C_16  and  O_21 
REMARK    3  A    between atoms: O_20  and  C_18 
REMARK    4  A    between atoms: O_21  and  C_19 
ROOT
ATOM      1  C   UNL d   1      58.909  -9.802  32.281  0.00  0.00     0.161 A 
ATOM      2  O   UNL d   1      58.284  -9.799  32.712  0.00  0.00    -0.291 OA
ATOM      3  C   UNL d   1      59.281  -9.797  33.021  0.00  0.00     0.033 A 
ATOM      4  C   UNL d   1      59.365  -9.806  31.593  0.00  0.00     0.033 A 
ATOM      5  C   UNL d   1      58.644  -9.807  31.470  0.00  0.00     0.016 A 
ATOM      6  C   UNL d   1      57.776  -9.802  32.328  0.00  0.00     0.296 A 
ATOM      7  C   UNL d   1      60.111  -9.796  33.070  0.00  0.00     0.101 A 
ATOM      8  C   UNL d   1      60.195  -9.805  31.642  0.00  0.00     0.101 A 
ATOM      9  O   UNL d   1      60.567  -9.800  32.378  0.00  0.00    -0.307 OA
ATOM     10  C   UNL d   1      57.930  -9.806  31.663  0.00  0.00     0.062 A 
ATOM     11  C   UNL d   1      60.651  -9.810  30.952  0.00  0.00     0.049 A 
ATOM     12  C   UNL d   1      60.483  -9.791  33.802  0.00  0.00     0.049 A 
ATOM     13  C   UNL d   1      58.825  -9.792  33.704  0.00  0.00     0.003 A 
ATOM     14  C   UNL d   1      58.993  -9.811  30.854  0.00  0.00     0.003 A 
ATOM     15  O   UNL d   1      57.166  -9.800  32.631  0.00  0.00    -0.259 OA
ATOM     16  C   UNL d   1      60.279  -9.815  30.212  0.00  0.00     0.105 A 
ATOM     17  C   UNL d   1      60.027  -9.787  34.493  0.00  0.00     0.105 A 
ATOM     18  C   UNL d   1      59.197  -9.788  34.444  0.00  0.00     0.025 A 
ATOM     19  C   UNL d   1      59.449  -9.815  30.163  0.00  0.00     0.025 A 
ATOM     20  C   UNL d   1      58.870  -9.812  30.699  0.00  0.00    -0.001 A 
ATOM     21  C   UNL d   1      57.328  -9.810  31.128  0.00  0.00     0.005 A 
ATOM     22  C   UNL d   1      58.304  -9.816  30.124  0.00  0.00    -0.000 A 
ATOM     23  C   UNL d   1      57.532  -9.815  30.344  0.00  0.00     0.000 A 
ENDROOT
BRANCH  17  24
ATOM     24  O   UNL d   1      60.292  -9.784  34.984  0.00  0.00    -0.273 OA
BRANCH  24  25
ATOM     25  C   UNL d   1      60.206  -9.387  35.471  0.00  0.00     0.300 C 
ATOM     26  O   UNL d   1      59.819  -9.637  35.809  0.00  0.00    -0.259 OA
ATOM     27  C   UNL d   1      60.517  -8.770  35.577  0.00  0.00     0.074 C 
ENDBRANCH  24  25
ENDBRANCH  17  24
BRANCH  16  28
ATOM     28  O   UNL d   1      60.601  -9.817  29.745  0.00  0.00    -0.273 OA
BRANCH  28  29
ATOM     29  C   UNL d   1      60.920  -9.528  29.411  0.00  0.00     0.300 C 
ATOM     30  O   UNL d   1      61.073  -9.025  29.757  0.00  0.00    -0.259 OA
ATOM     31  C   UNL d   1      61.095  -9.666  28.813  0.00  0.00     0.074 C 
ENDBRANCH  28  29
ENDBRANCH  16  28
TORSDOF 4
ENDMDL
MODEL 3
REMARK VINA RESULT:      -1.8     10.148     10.926
REMARK  4 active torsions:
REMARK  status: ('A' for Active; 'I' for Inactive)
REMARK    1  A    between atoms: C_15  and  O_20 
REMARK    2  A    between atoms: C_16  and  O_21 
REMARK    3  A    between atoms: O_20  and  C_18 
REMARK    4  A    between atoms: O_21  and  C_19 
ROOT
ATOM      1  C   UNL d   1      59.032  -9.817  30.382  0.00  0.00     0.161 A 
ATOM      2  O   UNL d   1      59.397  -9.817  29.716  0.00  0.00    -0.291 OA
ATOM      3  C   UNL d   1      58.367  -9.817  29.889  0.00  0.00     0.033 A 
ATOM      4  C   UNL d   1      58.934  -9.817  31.201  0.00  0.00     0.033 A 
ATOM      5  C   UNL d   1      59.634  -9.817  30.987  0.00  0.00     0.016 A 
ATOM      6  C   UNL d   1      60.022  -9.817  29.830  0.00  0.00     0.296 A 
ATOM      7  C   UNL d   1      57.604  -9.817  30.218  0.00  0.00     0.101 A 
ATOM      8  C   UNL d   1      58.171  -9.817  31.531  0.00  0.00     0.101 A 
ATOM      9  O   UNL d   1      57.508  -9.817  31.041  0.00  0.00    -0.307 OA
ATOM     10  C   UNL d   1      60.185  -9.817  30.493  0.00  0.00     0.062 A 
ATOM     11  C   UNL d   1      58.075  -9.818  32.353  0.00  0.00     0.049 A 
ATOM     12  C   UNL d   1      56.942  -9.817  29.732  0.00  0.00     0.049 A 
ATOM     13  C   UNL d   1      58.466  -9.817  29.073  0.00  0.00     0.003 A 
ATOM     14  C   UNL d   1      59.599  -9.817  31.694  0.00  0.00     0.003 A 
ATOM     15  O   UNL d   1      60.431  -9.817  29.285  0.00  0.00    -0.259 OA
ATOM     16  C   UNL d   1      58.740  -9.818  32.846  0.00  0.00     0.105 A 
ATOM     17  C   UNL d   1      57.038  -9.817  28.909  0.00  0.00     0.105 A 
ATOM     18  C   UNL d   1      57.801  -9.817  28.580  0.00  0.00     0.025 A 
ATOM     19  C   UNL d   1      59.503  -9.817  32.517  0.00  0.00     0.025 A 
ATOM     20  C   UNL d   1      59.779  -9.817  31.777  0.00  0.00    -0.001 A 
ATOM     21  C   UNL d   1      60.963  -9.817  30.700  0.00  0.00     0.005 A 
ATOM     22  C   UNL d   1      60.543  -9.817  32.035  0.00  0.00    -0.000 A 
ATOM     23  C   UNL d   1      61.133  -9.817  31.492  0.00  0.00     0.000 A 
ENDROOT
BRANCH  17  24
ATOM     24  O   UNL d   1      56.580  -9.817  28.591  0.00  0.00    -0.273 OA
BRANCH  24  25
ATOM     25  C   UNL d   1      56.126  -9.376  28.562  0.00  0.00     0.300 C 
ATOM     26  O   UNL d   1      55.632  -9.655  28.630  0.00  0.00    -0.259 OA
ATOM     27  C   UNL d   1      56.207  -8.688  28.467  0.00  0.00     0.074 C 
ENDBRANCH  24  25
ENDBRANCH  17  24
BRANCH  16  28
ATOM     28  O   UNL d   1      58.663  -9.818  33.408  0.00  0.00    -0.273 OA
BRANCH  28  29
ATOM     29  C   UNL d   1      58.580  -9.518  33.855  0.00  0.00     0.300 C 
ATOM     30  O   UNL d   1      58.047  -9.753  34.092  0.00  0.00    -0.259 OA
ATOM     31  C   UNL d   1      58.938  -9.041  34.082  0.00  0.00     0.074 C 
ENDBRANCH  28  29
ENDBRANCH  16  28
TORSDOF 4
ENDMDL
MODEL 4
REMARK VINA RESULT:      -1.7      0.596      3.922
REMARK  4 active torsions:
REMARK  status: ('A' for Active; 'I' for Inactive)
REMARK    1  A    between atoms: C_15  and  O_20 
REMARK    2  A    between atoms: C_16  and  O_21 
REMARK    3  A    between atoms: O_20  and  C_18 
REMARK    4  A    between atoms: O_21  and  C_19 
ROOT
ATOM      1  C   UNL d   1      58.009   0.680  32.341  0.00  0.00     0.161 A 
ATOM      2  O   UNL d   1      58.768   0.680  32.322  0.00  0.00    -0.291 OA
ATOM      3  C   UNL d   1      58.102   0.679  31.518  0.00  0.00     0.033 A 
ATOM      4  C   UNL d   1      57.251   0.680  32.668  0.00  0.00     0.033 A 
ATOM      5  C   UNL d   1      57.788   0.680  33.165  0.00  0.00     0.016 A 
ATOM      6  C   UNL d   1      58.984   0.681  32.921  0.00  0.00     0.296 A 
ATOM      7  C   UNL d   1      57.434   0.678  31.024  0.00  0.00     0.101 A 
ATOM      8  C   UNL d   1      56.583   0.679  32.173  0.00  0.00     0.101 A 
ATOM      9  O   UNL d   1      56.674   0.678  31.353  0.00  0.00    -0.307 OA
ATOM     10  C   UNL d   1      58.492   0.681  33.394  0.00  0.00     0.062 A 
ATOM     11  C   UNL d   1      55.824   0.679  32.502  0.00  0.00     0.049 A 
ATOM     12  C   UNL d   1      57.522   0.678  30.207  0.00  0.00     0.049 A 
ATOM     13  C   UNL d   1      58.857   0.679  31.195  0.00  0.00     0.003 A 
ATOM     14  C   UNL d   1      57.159   0.680  33.490  0.00  0.00     0.003 A 
ATOM     15  O   UNL d   1      59.660   0.681  33.000  0.00  0.00    -0.259 OA
ATOM     16  C   UNL d   1      55.731   0.680  33.325  0.00  0.00     0.105 A 
ATOM     17  C   UNL d   1      58.282   0.678  29.877  0.00  0.00     0.105 A 
ATOM     18  C   UNL d   1      58.950   0.678  30.372  0.00  0.00     0.025 A 
ATOM     19  C   UNL d   1      56.399   0.680  33.819  0.00  0.00     0.025 A 
ATOM     20  C   UNL d   1      57.177   0.681  33.687  0.00  0.00    -0.001 A 
ATOM     21  C   UNL d   1      58.703   0.682  34.171  0.00  0.00     0.005 A 
ATOM     22  C   UNL d   1      57.337   0.681  34.478  0.00  0.00    -0.000 A 
ATOM     23  C   UNL d   1      58.104   0.682  34.715  0.00  0.00     0.000 A 
ENDROOT
BRANCH  17  24
ATOM     24  O   UNL d   1      58.328   0.677  29.322  0.00  0.00    -0.273 OA
BRANCH  24  25
ATOM     25  C   UNL d   1      58.684   0.296  28.960  0.00  0.00     0.300 C 
ATOM     26  O   UNL d   1      59.131   0.611  28.793  0.00  0.00    -0.259 OA
ATOM     27  C   UNL d   1      58.559  -0.372  28.797  0.00  0.00     0.074 C 
ENDBRANCH  24  25
ENDBRANCH  17  24
BRANCH  16  28
ATOM     28  O   UNL d   1      55.206   0.680  33.540  0.00  0.00    -0.273 OA
BRANCH  28  29
ATOM     29  C   UNL d   1      54.796   0.380  33.736  0.00  0.00     0.300 C 
ATOM     30  O   UNL d   1      54.706   0.615  34.312  0.00  0.00    -0.259 OA
ATOM     31  C   UNL d   1      54.482  -0.096  33.449  0.00  0.00     0.074 C 
ENDBRANCH  28  29
ENDBRANCH  16  28
TORSDOF 4
ENDMDL
MODEL 5
REMARK VINA RESULT:      -1.4      1.736      2.622
REMARK  4 active torsions:
REMARK  status: ('A' for Active; 'I' for Inactive)
REMARK    1  A    between atoms: C_15  and  O_20 
REMARK    2  A    between atoms: C_16  and  O_21 
REMARK    3  A    between atoms: O_20  and  C_18 
REMARK    4  A    between atoms: O_21  and  C_19 
ROOT
ATOM      1  C   UNL d   1      57.949  -0.975  30.501  0.00  0.00     0.161 A 
ATOM      2  O   UNL d   1      57.476  -1.545  30.672  0.00  0.00    -0.291 OA
ATOM      3  C   UNL d   1      57.521  -0.592  31.098  0.00  0.00     0.033 A 
ATOM      4  C   UNL d   1      58.559  -0.576  30.115  0.00  0.00     0.033 A 
ATOM      5  C   UNL d   1      58.456  -1.260  29.877  0.00  0.00     0.016 A 
ATOM      6  C   UNL d   1      57.614  -2.039  30.297  0.00  0.00     0.296 A 
ATOM      7  C   UNL d   1      57.706   0.191  31.306  0.00  0.00     0.101 A 
ATOM      8  C   UNL d   1      58.744   0.207  30.323  0.00  0.00     0.101 A 
ATOM      9  O   UNL d   1      58.319   0.590  30.917  0.00  0.00    -0.307 OA
ATOM     10  C   UNL d   1      58.128  -1.924  29.863  0.00  0.00     0.062 A 
ATOM     11  C   UNL d   1      59.356   0.605  29.934  0.00  0.00     0.049 A 
ATOM     12  C   UNL d   1      57.284   0.574  31.898  0.00  0.00     0.049 A 
ATOM     13  C   UNL d   1      56.913  -0.991  31.482  0.00  0.00     0.003 A 
ATOM     14  C   UNL d   1      58.986  -0.959  29.518  0.00  0.00     0.003 A 
ATOM     15  O   UNL d   1      57.237  -2.600  30.381  0.00  0.00    -0.259 OA
ATOM     16  C   UNL d   1      59.784   0.222  29.337  0.00  0.00     0.105 A 
ATOM     17  C   UNL d   1      56.671   0.175  32.287  0.00  0.00     0.105 A 
ATOM     18  C   UNL d   1      56.485  -0.608  32.079  0.00  0.00     0.025 A 
ATOM     19  C   UNL d   1      59.599  -0.561  29.129  0.00  0.00     0.025 A 
ATOM     20  C   UNL d   1      59.064  -1.082  29.384  0.00  0.00    -0.001 A 
ATOM     21  C   UNL d   1      58.350  -2.514  29.361  0.00  0.00     0.005 A 
ATOM     22  C   UNL d   1      59.323  -1.641  28.862  0.00  0.00    -0.000 A 
ATOM     23  C   UNL d   1      58.962  -2.357  28.855  0.00  0.00     0.000 A 
ENDROOT
BRANCH  17  24
ATOM     24  O   UNL d   1      56.392   0.447  32.686  0.00  0.00    -0.273 OA
BRANCH  24  25
ATOM     25  C   UNL d   1      56.083   0.200  33.183  0.00  0.00     0.300 C 
ATOM     26  O   UNL d   1      56.485   0.077  33.571  0.00  0.00    -0.259 OA
ATOM     27  C   UNL d   1      55.394   0.099  33.246  0.00  0.00     0.074 C 
ENDBRANCH  24  25
ENDBRANCH  17  24
BRANCH  16  28
ATOM     28  O   UNL d   1      60.202   0.505  29.077  0.00  0.00    -0.273 OA
BRANCH  28  29
ATOM     29  C   UNL d   1      60.734   0.621  29.068  0.00  0.00     0.300 C 
ATOM     30  O   UNL d   1      60.859   0.682  28.455  0.00  0.00    -0.259 OA
ATOM     31  C   UNL d   1      61.133   0.682  29.562  0.00  0.00     0.074 C 
ENDBRANCH  28  29
ENDBRANCH  16  28
TORSDOF 4
ENDMDL
MODEL 6
REMARK VINA RESULT:      -0.3     10.313     11.285
REMARK  4 active torsions:
REMARK  status: ('A' for Active; 'I' for Inactive)
REMARK    1  A    between atoms: C_15  and  O_20 
REMARK    2  A    between atoms: C_16  and  O_21 
REMARK    3  A    between atoms: O_20  and  C_18 
REMARK    4  A    between atoms: O_21  and  C_19 
ROOT
ATOM      1  C   UNL d   1      59.280  -9.730  32.535  0.00  0.00     0.161 A 
ATOM      2  O   UNL d   1      58.648  -9.774  32.116  0.00  0.00    -0.291 OA
ATOM      3  C   UNL d   1      59.640  -9.749  31.790  0.00  0.00     0.033 A 
ATOM      4  C   UNL d   1      59.746  -9.680  33.214  0.00  0.00     0.033 A 
ATOM      5  C   UNL d   1      59.028  -9.703  33.350  0.00  0.00     0.016 A 
ATOM      6  C   UNL d   1      58.147  -9.777  32.508  0.00  0.00     0.296 A 
ATOM      7  C   UNL d   1      60.468  -9.718  31.726  0.00  0.00     0.101 A 
ATOM      8  C   UNL d   1      60.574  -9.649  33.151  0.00  0.00     0.101 A 
ATOM      9  O   UNL d   1      60.935  -9.668  32.409  0.00  0.00    -0.307 OA
ATOM     10  C   UNL d   1      58.311  -9.740  33.170  0.00  0.00     0.062 A 
ATOM     11  C   UNL d   1      61.041  -9.599  33.832  0.00  0.00     0.049 A 
ATOM     12  C   UNL d   1      60.829  -9.737  30.989  0.00  0.00     0.049 A 
ATOM     13  C   UNL d   1      59.174  -9.799  31.115  0.00  0.00     0.003 A 
ATOM     14  C   UNL d   1      59.386  -9.660  33.959  0.00  0.00     0.003 A 
ATOM     15  O   UNL d   1      57.533  -9.815  32.216  0.00  0.00    -0.259 OA
ATOM     16  C   UNL d   1      60.681  -9.580  34.578  0.00  0.00     0.105 A 
ATOM     17  C   UNL d   1      60.362  -9.787  30.306  0.00  0.00     0.105 A 
ATOM     18  C   UNL d   1      59.534  -9.818  30.369  0.00  0.00     0.025 A 
ATOM     19  C   UNL d   1      59.853  -9.610  34.641  0.00  0.00     0.025 A 
ATOM     20  C   UNL d   1      59.265  -9.658  34.116  0.00  0.00    -0.001 A 
ATOM     21  C   UNL d   1      57.718  -9.739  33.715  0.00  0.00     0.005 A 
ATOM     22  C   UNL d   1      58.709  -9.654  34.700  0.00  0.00    -0.000 A 
ATOM     23  C   UNL d   1      57.935  -9.695  34.494  0.00  0.00     0.000 A 
ENDROOT
BRANCH  17  24
ATOM     24  O   UNL d   1      60.620  -9.799  29.811  0.00  0.00    -0.273 OA
BRANCH  24  25
ATOM     25  C   UNL d   1      60.585  -9.372  29.344  0.00  0.00     0.300 C 
ATOM     26  O   UNL d   1      60.176  -9.559  28.991  0.00  0.00    -0.259 OA
ATOM     27  C   UNL d   1      60.967  -8.791  29.271  0.00  0.00     0.074 C 
ENDBRANCH  24  25
ENDBRANCH  17  24
BRANCH  16  28
ATOM     28  O   UNL d   1      61.010  -9.545  35.039  0.00  0.00    -0.273 OA
BRANCH  28  29
ATOM     29  C   UNL d   1      61.085  -9.316  35.527  0.00  0.00     0.300 C 
ATOM     30  O   UNL d   1      61.115  -9.808  35.916  0.00  0.00    -0.259 OA
ATOM     31  C   UNL d   1      61.131  -8.695  35.668  0.00  0.00     0.074 C 
ENDBRANCH  28  29
ENDBRANCH  16  28
TORSDOF 4
ENDMDL
