MODEL 1
REMARK VINA RESULT:      42.2      0.000      0.000
REMARK  5 active torsions:
REMARK  status: ('A' for Active; 'I' for Inactive)
REMARK    1  A    between atoms: C_2  and  S_1 
REMARK    2  A    between atoms: N_3  and  S_1 
REMARK    3  A    between atoms: C_11  and  N_3 
REMARK    4  A    between atoms: O_13  and  C_5 
REMARK    5  A    between atoms: C_14  and  C_11 
ROOT
ATOM      1  S   UNL d   1      59.586  49.284  50.587  0.00  0.00     0.285 S 
ATOM      2  O   UNL d   1      59.697  49.276  49.770  0.00  0.00    -0.198 OA
ATOM      3  O   UNL d   1      59.473  49.293  51.403  0.00  0.00    -0.198 OA
ENDROOT
BRANCH   1   4
ATOM      4  C   UNL d   1      60.302  48.887  50.688  0.00  0.00     0.107 A 
ATOM      5  C   UNL d   1      60.417  48.151  50.334  0.00  0.00     0.039 A 
ATOM      6  C   UNL d   1      61.133  47.754  50.435  0.00  0.00     0.122 A 
ATOM      7  C   UNL d   1      61.734  48.093  50.891  0.00  0.00     0.162 A 
ATOM      8  C   UNL d   1      61.616  48.827  51.243  0.00  0.00     0.032 A 
ATOM      9  F   UNL d   1      62.447  47.694  50.989  0.00  0.00    -0.202 F 
ATOM     10  C   UNL d   1      60.903  49.226  51.144  0.00  0.00     0.015 A 
BRANCH   6  11
ATOM     11  O   UNL d   1      61.249  47.018  50.081  0.00  0.00    -0.326 OA
ATOM     12  C   UNL d   1      61.029  46.327  50.480  0.00  0.00     0.181 C 
ENDBRANCH   6  11
ENDBRANCH   1   4
BRANCH   1  13
ATOM     13  N   UNL d   1      58.867  49.683  50.485  0.00  0.00    -0.157 NA
BRANCH  13  14
ATOM     14  C   UNL d   1      58.509  49.702  49.741  0.00  0.00     0.112 C 
BRANCH  14  15
ATOM     15  C   UNL d   1      57.686  49.684  49.681  0.00  0.00     0.020 A 
ATOM     16  C   UNL d   1      57.325  49.648  48.939  0.00  0.00     0.002 A 
ATOM     17  C   UNL d   1      56.495  49.630  48.883  0.00  0.00     0.000 A 
ATOM     18  C   UNL d   1      56.034  49.649  49.567  0.00  0.00     0.000 A 
ATOM     19  C   UNL d   1      56.395  49.686  50.309  0.00  0.00     0.000 A 
ATOM     20  C   UNL d   1      57.218  49.703  50.369  0.00  0.00     0.002 A 
ENDBRANCH  14  15
ENDBRANCH  13  14
ENDBRANCH   1  13
TORSDOF 5
ENDMDL
