MODEL 1
REMARK VINA RESULT:      -0.2      0.000      0.000
REMARK  8 active torsions:
REMARK  status: ('A' for Active; 'I' for Inactive)
REMARK    1  A    between atoms: S_10  and  C_2 
REMARK    2  A    between atoms: C_7  and  C_4 
REMARK    3  A    between atoms: C_17  and  S_10 
REMARK    4  A    between atoms: C_14  and  C_17 
REMARK    5  A    between atoms: O_18  and  C_14 
REMARK    6  A    between atoms: O_19  and  C_15 
REMARK    7  A    between atoms: C_22  and  O_18 
REMARK    8  A    between atoms: C_24  and  C_22 
ROOT
ATOM      1  C   UNL d   1      58.623  -0.704  30.241  0.00  0.00     0.093 A 
ATOM      2  C   UNL d   1      57.889  -0.877  30.595  0.00  0.00     0.124 A 
ATOM      3  N   UNL d   1      57.498  -1.578  30.408  0.00  0.00    -0.200 NA
ATOM      4  C   UNL d   1      58.955  -1.235  29.705  0.00  0.00     0.028 A 
ATOM      5  C   UNL d   1      58.564  -1.934  29.520  0.00  0.00     0.127 A 
ATOM      6  C   UNL d   1      57.830  -2.107  29.874  0.00  0.00     0.289 A 
ATOM      7  C   UNL d   1      59.014  -0.008  30.425  0.00  0.00     0.103 C 
ATOM      8  C   UNL d   1      58.897  -2.465  28.983  0.00  0.00     0.106 C 
ATOM      9  N   UNL d   1      59.397   0.682  30.609  0.00  0.00    -0.191 NA
ATOM     10  N   UNL d   1      59.224  -2.988  28.456  0.00  0.00    -0.191 NA
ATOM     11  O   UNL d   1      57.446  -2.882  29.637  0.00  0.00    -0.264 OA
ENDROOT
BRANCH   2  12
ATOM     12  S   UNL d   1      57.588  -0.282  31.151  0.00  0.00    -0.061 SA
BRANCH  12  13
ATOM     13  C   UNL d   1      56.869  -0.311  31.641  0.00  0.00     0.105 C 
BRANCH  13  14
ATOM     14  C   UNL d   1      56.934  -0.190  32.498  0.00  0.00     0.307 C 
ATOM     15  O   UNL d   1      57.373  -0.012  32.732  0.00  0.00    -0.258 OA
BRANCH  14  16
ATOM     16  O   UNL d   1      56.200  -0.391  32.953  0.00  0.00    -0.271 OA
BRANCH  16  17
ATOM     17  C   UNL d   1      55.766   0.313  33.317  0.00  0.00     0.126 C 
BRANCH  17  18
ATOM     18  C   UNL d   1      54.983  -0.014  33.714  0.00  0.00     0.027 C 
ATOM     19  C   UNL d   1      54.751   0.558  34.370  0.00  0.00     0.002 C 
ENDBRANCH  17  18
ENDBRANCH  16  17
ENDBRANCH  14  16
ENDBRANCH  13  14
ENDBRANCH  12  13
ENDBRANCH   2  12
BRANCH   4  20
ATOM     20  C   UNL d   1      59.679  -1.064  29.356  0.00  0.00     0.024 A 
ATOM     21  C   UNL d   1      60.345  -1.503  29.555  0.00  0.00     0.094 A 
ATOM     22  C   UNL d   1      61.072  -1.332  29.204  0.00  0.00     0.024 A 
ATOM     23  C   UNL d   1      61.133  -0.721  28.654  0.00  0.00     0.002 A 
ATOM     24  C   UNL d   1      60.462  -0.281  28.455  0.00  0.00     0.000 A 
ATOM     25  C   UNL d   1      59.736  -0.452  28.806  0.00  0.00     0.002 A 
BRANCH  21  26
ATOM     26  O   UNL d   1      60.377  -2.033  30.009  0.00  0.00    -0.328 OA
ATOM     27  C   UNL d   1      61.124  -2.392  30.208  0.00  0.00     0.181 C 
ENDBRANCH  21  26
ENDBRANCH   4  20
TORSDOF 8
ENDMDL
MODEL 2
REMARK VINA RESULT:       1.4      1.047      2.052
REMARK  8 active torsions:
REMARK  status: ('A' for Active; 'I' for Inactive)
REMARK    1  A    between atoms: S_10  and  C_2 
REMARK    2  A    between atoms: C_7  and  C_4 
REMARK    3  A    between atoms: C_17  and  S_10 
REMARK    4  A    between atoms: C_14  and  C_17 
REMARK    5  A    between atoms: O_18  and  C_14 
REMARK    6  A    between atoms: O_19  and  C_15 
REMARK    7  A    between atoms: C_22  and  O_18 
REMARK    8  A    between atoms: C_24  and  C_22 
ROOT
ATOM      1  C   UNL d   1      58.339  -0.748  30.087  0.00  0.00     0.093 A 
ATOM      2  C   UNL d   1      58.381   0.038  30.361  0.00  0.00     0.124 A 
ATOM      3  N   UNL d   1      59.024   0.510  30.154  0.00  0.00    -0.200 NA
ATOM      4  C   UNL d   1      58.940  -1.049  29.609  0.00  0.00     0.028 A 
ATOM      5  C   UNL d   1      59.580  -0.576  29.404  0.00  0.00     0.127 A 
ATOM      6  C   UNL d   1      59.623   0.209  29.678  0.00  0.00     0.289 A 
ATOM      7  C   UNL d   1      57.702  -1.221  30.290  0.00  0.00     0.103 C 
ATOM      8  C   UNL d   1      60.182  -0.878  28.927  0.00  0.00     0.106 C 
ATOM      9  N   UNL d   1      57.069  -1.685  30.494  0.00  0.00    -0.191 NA
ATOM     10  N   UNL d   1      60.774  -1.173  28.457  0.00  0.00    -0.191 NA
ATOM     11  O   UNL d   1      60.341   0.682  29.426  0.00  0.00    -0.264 OA
ENDROOT
BRANCH   2  12
ATOM     12  S   UNL d   1      57.721   0.299  30.859  0.00  0.00    -0.061 SA
BRANCH  12  13
ATOM     13  C   UNL d   1      57.746   0.639  31.660  0.00  0.00     0.105 C 
BRANCH  13  14
ATOM     14  C   UNL d   1      57.048   0.575  32.171  0.00  0.00     0.307 C 
ATOM     15  O   UNL d   1      56.555   0.551  31.984  0.00  0.00    -0.258 OA
BRANCH  14  16
ATOM     16  O   UNL d   1      57.229   0.555  33.039  0.00  0.00    -0.271 OA
BRANCH  16  17
ATOM     17  C   UNL d   1      56.521   0.682  33.586  0.00  0.00     0.126 C 
BRANCH  17  18
ATOM     18  C   UNL d   1      56.369  -0.123  34.040  0.00  0.00     0.027 C 
ATOM     19  C   UNL d   1      55.816   0.054  34.730  0.00  0.00     0.002 C 
ENDBRANCH  17  18
ENDBRANCH  16  17
ENDBRANCH  14  16
ENDBRANCH  13  14
ENDBRANCH  12  13
ENDBRANCH   2  12
BRANCH   4  20
ATOM     20  C   UNL d   1      58.899  -1.823  29.339  0.00  0.00     0.024 A 
ATOM     21  C   UNL d   1      59.376  -2.402  29.675  0.00  0.00     0.094 A 
ATOM     22  C   UNL d   1      59.334  -3.180  29.403  0.00  0.00     0.024 A 
ATOM     23  C   UNL d   1      58.815  -3.380  28.795  0.00  0.00     0.002 A 
ATOM     24  C   UNL d   1      58.335  -2.797  28.459  0.00  0.00     0.000 A 
ATOM     25  C   UNL d   1      58.377  -2.019  28.730  0.00  0.00     0.002 A 
BRANCH  21  26
ATOM     26  O   UNL d   1      59.840  -2.316  30.190  0.00  0.00    -0.328 OA
ATOM     27  C   UNL d   1      60.431  -2.909  30.348  0.00  0.00     0.181 C 
ENDBRANCH  21  26
ENDBRANCH   4  20
TORSDOF 8
ENDMDL
