MODEL 1
REMARK VINA RESULT:      24.8      0.000      0.000
REMARK  2 active torsions:
REMARK  status: ('A' for Active; 'I' for Inactive)
REMARK    1  A    between atoms: C_2  and  C_1 
REMARK    2  A    between atoms: N_6  and  C_2 
ROOT
ATOM      1  C   UNL d   1     -57.518 -98.902 -44.444  0.00  0.00     0.047 A 
ATOM      2  C   UNL d   1     -57.521 -98.860 -45.271  0.00  0.00     0.101 A 
ATOM      3  C   UNL d   1     -58.301 -98.866 -44.189  0.00  0.00     0.021 A 
ATOM      4  N   UNL d   1     -58.305 -98.798 -45.522  0.00  0.00    -0.244 NA
ATOM      5  C   UNL d   1     -58.786 -98.802 -44.850  0.00  0.00     0.082 A 
ATOM      6  C   UNL d   1     -58.633 -98.882 -43.440  0.00  0.00     0.002 A 
ATOM      7  C   UNL d   1     -59.601 -98.755 -44.764  0.00  0.00     0.019 A 
ATOM      8  C   UNL d   1     -59.450 -98.835 -43.352  0.00  0.00     0.000 A 
ATOM      9  C   UNL d   1     -59.936 -98.771 -44.018  0.00  0.00     0.002 A 
ENDROOT
BRANCH   1  10
ATOM     10  C   UNL d   1     -56.855 -98.968 -43.958  0.00  0.00     0.122 C 
ATOM     11  S   UNL d   1     -56.901 -98.756 -43.163  0.00  0.00    -0.059 SA
BRANCH  10  12
ATOM     12  N   UNL d   1     -56.144 -99.249 -44.275  0.00  0.00    -0.292 N 
ATOM     13  C   UNL d   1     -55.681 -98.755 -44.753  0.00  0.00     0.108 A 
ATOM     14  C   UNL d   1     -54.971 -99.036 -45.070  0.00  0.00     0.142 A 
ATOM     15  O   UNL d   1     -54.726 -99.808 -44.908  0.00  0.00    -0.300 OA
ATOM     16  C   UNL d   1     -55.190-100.299 -44.429  0.00  0.00     0.142 A 
ATOM     17  C   UNL d   1     -55.899-100.018 -44.113  0.00  0.00     0.108 A 
ENDBRANCH  10  12
ENDBRANCH   1  10
TORSDOF 2
ENDMDL
