MODEL 1
REMARK VINA RESULT:       9.5      0.000      0.000
REMARK  3 active torsions:
REMARK  status: ('A' for Active; 'I' for Inactive)
REMARK    1  A    between atoms: C_2  and  C_1 
REMARK    2  A    between atoms: C_3  and  C_1 
REMARK    3  A    between atoms: C_5  and  C_2 
ROOT
ATOM      1  C   UNL d   1      45.961 -16.866  43.946  0.00  0.00     0.000 C 
ENDROOT
BRANCH   1   2
ATOM      2  C   UNL d   1      45.878 -16.501  44.680  0.00  0.00     0.000 C 
BRANCH   2   3
ATOM      3  C   UNL d   1      45.681 -15.699  44.715  0.00  0.00     0.000 A 
ATOM      4  C   UNL d   1      46.257 -15.129  44.548  0.00  0.00     0.000 A 
ATOM      5  C   UNL d   1      46.067 -14.328  44.581  0.00  0.00     0.000 A 
ATOM      6  C   UNL d   1      45.297 -14.092  44.781  0.00  0.00     0.000 A 
ATOM      7  C   UNL d   1      44.722 -14.657  44.947  0.00  0.00     0.000 A 
ATOM      8  C   UNL d   1      44.911 -15.462  44.915  0.00  0.00     0.000 A 
ENDBRANCH   2   3
ENDBRANCH   1   2
BRANCH   1   9
ATOM      9  C   UNL d   1      46.132 -17.669  43.905  0.00  0.00     0.000 A 
ATOM     10  C   UNL d   1      46.263 -18.023  43.171  0.00  0.00     0.002 A 
ATOM     11  C   UNL d   1      46.434 -18.827  43.129  0.00  0.00     0.021 A 
ATOM     12  C   UNL d   1      46.475 -19.280  43.817  0.00  0.00     0.103 A 
ATOM     13  C   UNL d   1      46.343 -18.922  44.550  0.00  0.00     0.021 A 
ATOM     14  N   UNL d   1      46.647 -20.088  43.769  0.00  0.00    -0.148 N 
ATOM     15  C   UNL d   1      46.171 -18.117  44.595  0.00  0.00     0.002 A 
ENDBRANCH   1   9
TORSDOF 3
ENDMDL
MODEL 2
REMARK VINA RESULT:       9.6      1.796      4.020
REMARK  3 active torsions:
REMARK  status: ('A' for Active; 'I' for Inactive)
REMARK    1  A    between atoms: C_2  and  C_1 
REMARK    2  A    between atoms: C_3  and  C_1 
REMARK    3  A    between atoms: C_5  and  C_2 
ROOT
ATOM      1  C   UNL d   1      45.806 -16.618  44.639  0.00  0.00     0.000 C 
ENDROOT
BRANCH   1   2
ATOM      2  C   UNL d   1      45.928 -16.973  43.907  0.00  0.00     0.000 C 
BRANCH   2   3
ATOM      3  C   UNL d   1      46.160 -17.766  43.873  0.00  0.00     0.000 A 
ATOM      4  C   UNL d   1      46.305 -18.118  43.139  0.00  0.00     0.000 A 
ATOM      5  C   UNL d   1      46.537 -18.907  43.098  0.00  0.00     0.000 A 
ATOM      6  C   UNL d   1      46.625 -19.351  43.794  0.00  0.00     0.000 A 
ATOM      7  C   UNL d   1      46.482 -19.002  44.526  0.00  0.00     0.000 A 
ATOM      8  C   UNL d   1      46.249 -18.209  44.569  0.00  0.00     0.000 A 
ENDBRANCH   2   3
ENDBRANCH   1   2
BRANCH   1   9
ATOM      9  C   UNL d   1      45.680 -15.806  44.686  0.00  0.00     0.000 A 
ATOM     10  C   UNL d   1      46.300 -15.286  44.525  0.00  0.00     0.002 A 
ATOM     11  C   UNL d   1      46.175 -14.474  44.572  0.00  0.00     0.021 A 
ATOM     12  C   UNL d   1      45.433 -14.179  44.778  0.00  0.00     0.103 A 
ATOM     13  C   UNL d   1      44.815 -14.703  44.939  0.00  0.00     0.021 A 
ATOM     14  N   UNL d   1      45.312 -13.361  44.823  0.00  0.00    -0.148 N 
ATOM     15  C   UNL d   1      44.938 -15.517  44.893  0.00  0.00     0.002 A 
ENDBRANCH   1   9
TORSDOF 3
ENDMDL
