MODEL 1
REMARK VINA RESULT:      80.2      0.000      0.000
REMARK  5 active torsions:
REMARK  status: ('A' for Active; 'I' for Inactive)
REMARK    1  A    between atoms: S_5  and  C_3 
REMARK    2  A    between atoms: C_13  and  S_5 
REMARK    3  A    between atoms: C_23  and  N_7 
REMARK    4  A    between atoms: C_30  and  C_23 
REMARK    5  A    between atoms: O_29  and  C_30 
ROOT
ATOM      1  C   UNL d   1      45.872 -14.538  43.084  0.00  0.00     0.155 A 
ATOM      2  C   UNL d   1      45.549 -14.971  43.695  0.00  0.00     0.092 A 
ATOM      3  C   UNL d   1      45.945 -16.169  43.057  0.00  0.00     0.124 A 
ATOM      4  N   UNL d   1      45.840 -13.723  43.092  0.00  0.00    -0.210 NA
ATOM      5  N   UNL d   1      45.156 -13.759  44.327  0.00  0.00    -0.258 N 
ATOM      6  N   UNL d   1      46.235 -14.916  42.455  0.00  0.00    -0.271 N 
ATOM      7  C   UNL d   1      45.482 -13.333  43.712  0.00  0.00     0.152 A 
ATOM      8  C   UNL d   1      46.268 -15.735  42.447  0.00  0.00     0.181 A 
ATOM      9  C   UNL d   1      45.189 -14.584  44.319  0.00  0.00     0.269 A 
ATOM     10  C   UNL d   1      45.581 -15.786  43.688  0.00  0.00     0.022 A 
ATOM     11  C   UNL d   1      45.450 -12.518  43.719  0.00  0.00     0.035 A 
ATOM     12  C   UNL d   1      44.796 -13.372  44.951  0.00  0.00     0.084 A 
ATOM     13  N   UNL d   1      46.639 -16.124  41.802  0.00  0.00    -0.128 N 
ATOM     14  O   UNL d   1      44.854 -15.022  44.951  0.00  0.00    -0.266 OA
ATOM     15  C   UNL d   1      44.766 -12.555  44.955  0.00  0.00     0.019 A 
ATOM     16  C   UNL d   1      45.092 -12.128  44.340  0.00  0.00     0.005 A 
ATOM     17  C   UNL d   1      45.785 -12.081  43.088  0.00  0.00     0.003 C 
ENDROOT
BRANCH   3  18
ATOM     18  S   UNL d   1      45.981 -16.999  43.042  0.00  0.00     0.213 S 
ATOM     19  O   UNL d   1      46.540 -16.977  42.423  0.00  0.00    -0.217 OA
ATOM     20  O   UNL d   1      45.426 -17.028  43.658  0.00  0.00    -0.217 OA
BRANCH  18  21
ATOM     21  C   UNL d   1      46.010 -17.833  43.038  0.00  0.00     0.088 A 
ATOM     22  C   UNL d   1      46.259 -18.245  43.711  0.00  0.00     0.014 A 
ATOM     23  C   UNL d   1      46.286 -19.075  43.703  0.00  0.00     0.030 A 
ATOM     24  C   UNL d   1      46.062 -19.492  43.017  0.00  0.00     0.140 A 
ATOM     25  C   UNL d   1      45.810 -19.068  42.337  0.00  0.00     0.030 A 
ATOM     26  F   UNL d   1      46.088 -20.330  43.004  0.00  0.00    -0.204 F 
ATOM     27  C   UNL d   1      45.786 -18.243  42.353  0.00  0.00     0.014 A 
ENDBRANCH  18  21
ENDBRANCH   3  18
BRANCH   6  28
ATOM     28  C   UNL d   1      46.563 -14.476  41.835  0.00  0.00     0.109 C 
BRANCH  28  29
ATOM     29  C   UNL d   1      46.093 -13.932  41.417  0.00  0.00     0.135 C 
BRANCH  29  30
ATOM     30  O   UNL d   1      46.404 -13.181  41.213  0.00  0.00    -0.325 OA
ATOM     31  C   UNL d   1      46.297 -12.882  40.444  0.00  0.00     0.182 C 
ENDBRANCH  29  30
ENDBRANCH  28  29
ENDBRANCH   6  28
TORSDOF 5
ENDMDL
MODEL 2
REMARK VINA RESULT:      82.1      2.616      4.831
REMARK  5 active torsions:
REMARK  status: ('A' for Active; 'I' for Inactive)
REMARK    1  A    between atoms: S_5  and  C_3 
REMARK    2  A    between atoms: C_13  and  S_5 
REMARK    3  A    between atoms: C_23  and  N_7 
REMARK    4  A    between atoms: C_30  and  C_23 
REMARK    5  A    between atoms: O_29  and  C_30 
ROOT
ATOM      1  C   UNL d   1      46.116 -17.884  42.589  0.00  0.00     0.155 A 
ATOM      2  C   UNL d   1      46.031 -18.502  42.063  0.00  0.00     0.092 A 
ATOM      3  C   UNL d   1      45.767 -17.580  41.024  0.00  0.00     0.124 A 
ATOM      4  N   UNL d   1      46.290 -18.030  43.373  0.00  0.00    -0.210 NA
ATOM      5  N   UNL d   1      46.298 -19.419  43.117  0.00  0.00    -0.258 N 
ATOM      6  N   UNL d   1      46.028 -17.111  42.338  0.00  0.00    -0.271 N 
ATOM      7  C   UNL d   1      46.381 -18.796  43.637  0.00  0.00     0.152 A 
ATOM      8  C   UNL d   1      45.853 -16.964  41.551  0.00  0.00     0.181 A 
ATOM      9  C   UNL d   1      46.121 -19.272  42.323  0.00  0.00     0.269 A 
ATOM     10  C   UNL d   1      45.857 -18.357  41.279  0.00  0.00     0.022 A 
ATOM     11  C   UNL d   1      46.555 -18.940  44.420  0.00  0.00     0.035 A 
ATOM     12  C   UNL d   1      46.388 -20.188  43.377  0.00  0.00     0.084 A 
ATOM     13  N   UNL d   1      45.762 -16.171  41.292  0.00  0.00    -0.128 N 
ATOM     14  O   UNL d   1      46.036 -19.911  41.789  0.00  0.00    -0.266 OA
ATOM     15  C   UNL d   1      46.563 -20.330  44.164  0.00  0.00     0.019 A 
ATOM     16  C   UNL d   1      46.646 -19.707  44.685  0.00  0.00     0.005 A 
ATOM     17  C   UNL d   1      46.641 -18.301  44.955  0.00  0.00     0.003 C 
ENDROOT
BRANCH   3  18
ATOM     18  S   UNL d   1      45.590 -17.425  40.227  0.00  0.00     0.213 S 
ATOM     19  O   UNL d   1      46.401 -17.352  40.046  0.00  0.00    -0.217 OA
ATOM     20  O   UNL d   1      44.782 -17.495  40.399  0.00  0.00    -0.217 OA
BRANCH  18  21
ATOM     21  C   UNL d   1      45.399 -17.270  39.429  0.00  0.00     0.088 A 
ATOM     22  C   UNL d   1      45.948 -16.897  38.935  0.00  0.00     0.014 A 
ATOM     23  C   UNL d   1      45.755 -16.744  38.141  0.00  0.00     0.030 A 
ATOM     24  C   UNL d   1      45.009 -16.967  37.845  0.00  0.00     0.140 A 
ATOM     25  C   UNL d   1      44.457 -17.345  38.352  0.00  0.00     0.030 A 
ATOM     26  F   UNL d   1      44.810 -16.814  37.045  0.00  0.00    -0.204 F 
ATOM     27  C   UNL d   1      44.655 -17.493  39.139  0.00  0.00     0.014 A 
ENDBRANCH  18  21
ENDBRANCH   3  18
BRANCH   6  28
ATOM     28  C   UNL d   1      46.114 -16.484  42.873  0.00  0.00     0.109 C 
BRANCH  28  29
ATOM     29  C   UNL d   1      45.444 -16.155  43.239  0.00  0.00     0.135 C 
BRANCH  29  30
ATOM     30  O   UNL d   1      45.531 -15.688  43.930  0.00  0.00    -0.325 OA
ATOM     31  C   UNL d   1      45.530 -14.858  43.873  0.00  0.00     0.182 C 
ENDBRANCH  29  30
ENDBRANCH  28  29
ENDBRANCH   6  28
TORSDOF 5
ENDMDL
