MODEL 1
REMARK VINA RESULT:      29.5      0.000      0.000
REMARK  3 active torsions:
REMARK  status: ('A' for Active; 'I' for Inactive)
REMARK    1  A    between atoms: C_7  and  C_1 
REMARK    2  A    between atoms: O_14  and  C_7 
REMARK    3  A    between atoms: C_17  and  O_14 
ROOT
ATOM      1  C   UNL d   1     -56.440 -99.052 -44.316  0.00  0.00     0.127 A 
ATOM      2  C   UNL d   1     -56.497 -98.976 -45.129  0.00  0.00     0.305 A 
ATOM      3  C   UNL d   1     -57.124 -99.034 -43.855  0.00  0.00     0.013 A 
ATOM      4  C   UNL d   1     -57.864 -98.941 -44.207  0.00  0.00     0.023 A 
ATOM      5  O   UNL d   1     -57.236 -98.882 -45.481  0.00  0.00    -0.273 OA
ATOM      6  C   UNL d   1     -57.920 -98.865 -45.021  0.00  0.00     0.103 A 
ATOM      7  C   UNL d   1     -58.532 -98.925 -43.748  0.00  0.00     0.002 A 
ATOM      8  O   UNL d   1     -55.795 -98.994 -45.591  0.00  0.00    -0.259 OA
ATOM      9  C   UNL d   1     -58.644 -98.773 -45.374  0.00  0.00     0.025 A 
ATOM     10  C   UNL d   1     -59.272 -98.832 -44.100  0.00  0.00     0.000 A 
ATOM     11  C   UNL d   1     -59.328 -98.756 -44.914  0.00  0.00     0.002 A 
ATOM     12  C   UNL d   1     -58.475 -99.002 -42.925  0.00  0.00     0.000 A 
ATOM     13  C   UNL d   1     -59.956 -98.815 -43.639  0.00  0.00     0.000 A 
ATOM     14  C   UNL d   1     -59.145 -98.987 -42.453  0.00  0.00     0.000 A 
ATOM     15  C   UNL d   1     -59.899 -98.892 -42.813  0.00  0.00     0.000 A 
ENDROOT
BRANCH   1  16
ATOM     16  C   UNL d   1     -55.681 -99.148 -43.943  0.00  0.00     0.305 C 
ATOM     17  O   UNL d   1     -55.512 -98.762 -43.242  0.00  0.00    -0.259 OA
BRANCH  16  18
ATOM     18  O   UNL d   1     -55.128 -99.627 -44.292  0.00  0.00    -0.271 OA
BRANCH  18  19
ATOM     19  C   UNL d   1     -54.915-100.338 -43.931  0.00  0.00     0.126 C 
ATOM     20  C   UNL d   1     -54.733-101.068 -44.391  0.00  0.00     0.029 C 
ENDBRANCH  18  19
ENDBRANCH  16  18
ENDBRANCH   1  16
TORSDOF 3
ENDMDL
