MODEL 1
REMARK VINA RESULT:      -9.3      0.000      0.000
REMARK  5 active torsions:
REMARK  status: ('A' for Active; 'I' for Inactive)
REMARK    1  A    between atoms: N_3  and  S_1 
REMARK    2  A    between atoms: C_13  and  S_1 
REMARK    3  A    between atoms: C_2  and  N_3 
REMARK    4  A    between atoms: N_9  and  C_4 
REMARK       I    between atoms: C_8  and  N_10 
REMARK    5  A    between atoms: C_19  and  C_8 
ROOT
ATOM      1  C   UNL d   1      52.406  33.920  54.179  0.00  0.00     0.110 A 
ATOM      2  C   UNL d   1      53.133  33.155  54.053  0.00  0.00     0.083 A 
ATOM      3  C   UNL d   1      52.872  34.558  54.397  0.00  0.00     0.020 A 
ATOM      4  C   UNL d   1      53.843  33.538  54.229  0.00  0.00     0.018 A 
ATOM      5  C   UNL d   1      53.647  34.317  54.414  0.00  0.00     0.003 A 
ATOM      6  C   UNL d   1      54.240  34.852  54.619  0.00  0.00     0.000 A 
ATOM      7  C   UNL d   1      52.660  35.340  54.582  0.00  0.00     0.002 A 
ATOM      8  C   UNL d   1      54.617  33.298  54.247  0.00  0.00     0.002 A 
ATOM      9  C   UNL d   1      53.270  35.871  54.786  0.00  0.00     0.000 A 
ATOM     10  C   UNL d   1      55.232  33.828  54.452  0.00  0.00     0.000 A 
ATOM     11  C   UNL d   1      54.053  35.629  54.805  0.00  0.00     0.000 A 
ATOM     12  C   UNL d   1      55.023  34.609  54.636  0.00  0.00     0.000 A 
ENDROOT
BRANCH   2  13
ATOM     13  N   UNL d   1      53.141  32.364  53.844  0.00  0.00    -0.300 N 
ATOM     14  C   UNL d   1      53.090  32.153  53.050  0.00  0.00     0.100 A 
ATOM     15  C   UNL d   1      53.098  31.383  52.857  0.00  0.00     0.102 A 
ATOM     16  N   UNL d   1      53.158  30.760  53.428  0.00  0.00    -0.269 N 
ATOM     17  C   UNL d   1      53.167  29.959  53.232  0.00  0.00     0.265 C 
ATOM     18  C   UNL d   1      53.209  30.970  54.214  0.00  0.00     0.102 A 
ATOM     19  O   UNL d   1      53.119  29.687  52.450  0.00  0.00    -0.267 OA
ATOM     20  C   UNL d   1      53.200  31.813  54.433  0.00  0.00     0.100 A 
BRANCH  17  21
ATOM     21  C   UNL d   1      53.227  29.412  53.838  0.00  0.00     0.057 A 
ATOM     22  C   UNL d   1      52.561  29.188  54.286  0.00  0.00     0.005 A 
ATOM     23  C   UNL d   1      52.628  28.632  54.899  0.00  0.00     0.000 A 
ATOM     24  C   UNL d   1      53.371  28.291  55.072  0.00  0.00     0.000 A 
ATOM     25  C   UNL d   1      54.031  28.515  54.625  0.00  0.00     0.000 A 
ATOM     26  C   UNL d   1      53.958  29.071  54.014  0.00  0.00     0.005 A 
ENDBRANCH  17  21
ENDBRANCH   2  13
BRANCH   1  27
ATOM     27  N   UNL d   1      51.597  33.984  54.111  0.00  0.00    -0.157 NA
BRANCH  27  28
ATOM     28  S   UNL d   1      51.232  34.080  53.379  0.00  0.00     0.285 S 
ATOM     29  O   UNL d   1      50.772  33.413  53.531  0.00  0.00    -0.198 OA
ATOM     30  O   UNL d   1      51.692  34.741  53.234  0.00  0.00    -0.198 OA
BRANCH  28  31
ATOM     31  C   UNL d   1      50.867  34.170  52.654  0.00  0.00     0.105 A 
ATOM     32  C   UNL d   1      51.316  34.240  51.962  0.00  0.00     0.013 A 
ATOM     33  C   UNL d   1      50.946  34.330  51.238  0.00  0.00     0.001 A 
ATOM     34  C   UNL d   1      50.132  34.351  51.192  0.00  0.00     0.000 A 
ATOM     35  C   UNL d   1      49.661  34.281  51.885  0.00  0.00     0.001 A 
ATOM     36  C   UNL d   1      50.048  34.191  52.608  0.00  0.00     0.013 A 
ENDBRANCH  28  31
ENDBRANCH  27  28
ENDBRANCH   1  27
TORSDOF 5
ENDMDL
MODEL 2
REMARK VINA RESULT:      -8.0      1.479      5.238
REMARK  5 active torsions:
REMARK  status: ('A' for Active; 'I' for Inactive)
REMARK    1  A    between atoms: N_3  and  S_1 
REMARK    2  A    between atoms: C_13  and  S_1 
REMARK    3  A    between atoms: C_2  and  N_3 
REMARK    4  A    between atoms: N_9  and  C_4 
REMARK       I    between atoms: C_8  and  N_10 
REMARK    5  A    between atoms: C_19  and  C_8 
ROOT
ATOM      1  C   UNL d   1      53.430  31.729  53.275  0.00  0.00     0.110 A 
ATOM      2  C   UNL d   1      52.381  31.897  53.263  0.00  0.00     0.083 A 
ATOM      3  C   UNL d   1      53.468  30.923  53.419  0.00  0.00     0.020 A 
ATOM      4  C   UNL d   1      52.067  31.147  53.403  0.00  0.00     0.018 A 
ATOM      5  C   UNL d   1      52.710  30.637  53.483  0.00  0.00     0.003 A 
ATOM      6  C   UNL d   1      52.584  29.836  53.629  0.00  0.00     0.000 A 
ATOM      7  C   UNL d   1      54.126  30.421  53.498  0.00  0.00     0.002 A 
ATOM      8  C   UNL d   1      51.311  30.861  53.468  0.00  0.00     0.002 A 
ATOM      9  C   UNL d   1      53.983  29.613  53.645  0.00  0.00     0.000 A 
ATOM     10  C   UNL d   1      51.165  30.050  53.616  0.00  0.00     0.000 A 
ATOM     11  C   UNL d   1      53.219  29.322  53.710  0.00  0.00     0.000 A 
ATOM     12  C   UNL d   1      51.819  29.546  53.695  0.00  0.00     0.000 A 
ENDROOT
BRANCH   2  13
ATOM     13  N   UNL d   1      51.877  32.533  53.158  0.00  0.00    -0.300 N 
ATOM     14  C   UNL d   1      51.812  33.102  53.750  0.00  0.00     0.100 A 
ATOM     15  C   UNL d   1      51.320  33.715  53.639  0.00  0.00     0.102 A 
ATOM     16  N   UNL d   1      50.854  33.819  52.939  0.00  0.00    -0.269 N 
ATOM     17  C   UNL d   1      50.342  34.454  52.819  0.00  0.00     0.265 C 
ATOM     18  C   UNL d   1      50.920  33.255  52.354  0.00  0.00     0.102 A 
ATOM     19  O   UNL d   1      50.236  35.056  53.379  0.00  0.00    -0.267 OA
ATOM     20  C   UNL d   1      51.457  32.579  52.469  0.00  0.00     0.100 A 
BRANCH  17  21
ATOM     21  C   UNL d   1      49.923  34.488  52.117  0.00  0.00     0.057 A 
ATOM     22  C   UNL d   1      50.314  34.507  51.381  0.00  0.00     0.005 A 
ATOM     23  C   UNL d   1      49.883  34.542  50.672  0.00  0.00     0.000 A 
ATOM     24  C   UNL d   1      49.048  34.558  50.693  0.00  0.00     0.000 A 
ATOM     25  C   UNL d   1      48.662  34.539  51.425  0.00  0.00     0.000 A 
ATOM     26  C   UNL d   1      49.098  34.504  52.130  0.00  0.00     0.005 A 
ENDBRANCH  17  21
ENDBRANCH   2  13
BRANCH   1  27
ATOM     27  N   UNL d   1      54.103  32.179  53.183  0.00  0.00    -0.157 NA
BRANCH  27  28
ATOM     28  S   UNL d   1      54.394  32.650  53.793  0.00  0.00     0.285 S 
ATOM     29  O   UNL d   1      54.524  33.257  53.250  0.00  0.00    -0.198 OA
ATOM     30  O   UNL d   1      54.262  32.044  54.326  0.00  0.00    -0.198 OA
BRANCH  28  31
ATOM     31  C   UNL d   1      54.683  33.121  54.394  0.00  0.00     0.105 A 
ATOM     32  C   UNL d   1      54.445  32.997  55.177  0.00  0.00     0.013 A 
ATOM     33  C   UNL d   1      54.738  33.472  55.776  0.00  0.00     0.001 A 
ATOM     34  C   UNL d   1      55.266  34.070  55.606  0.00  0.00     0.000 A 
ATOM     35  C   UNL d   1      55.517  34.209  54.816  0.00  0.00     0.001 A 
ATOM     36  C   UNL d   1      55.214  33.723  54.223  0.00  0.00     0.013 A 
ENDBRANCH  28  31
ENDBRANCH  27  28
ENDBRANCH   1  27
TORSDOF 5
ENDMDL
MODEL 3
REMARK VINA RESULT:      -6.4      1.380      3.237
REMARK  5 active torsions:
REMARK  status: ('A' for Active; 'I' for Inactive)
REMARK    1  A    between atoms: N_3  and  S_1 
REMARK    2  A    between atoms: C_13  and  S_1 
REMARK    3  A    between atoms: C_2  and  N_3 
REMARK    4  A    between atoms: N_9  and  C_4 
REMARK       I    between atoms: C_8  and  N_10 
REMARK    5  A    between atoms: C_19  and  C_8 
ROOT
ATOM      1  C   UNL d   1      53.041  33.462  53.093  0.00  0.00     0.110 A 
ATOM      2  C   UNL d   1      52.456  32.576  53.140  0.00  0.00     0.083 A 
ATOM      3  C   UNL d   1      52.463  34.039  53.021  0.00  0.00     0.020 A 
ATOM      4  C   UNL d   1      51.682  32.857  53.084  0.00  0.00     0.018 A 
ATOM      5  C   UNL d   1      51.736  33.677  53.019  0.00  0.00     0.003 A 
ATOM      6  C   UNL d   1      51.051  34.130  52.953  0.00  0.00     0.000 A 
ATOM      7  C   UNL d   1      52.533  34.865  52.957  0.00  0.00     0.002 A 
ATOM      8  C   UNL d   1      50.956  32.496  53.082  0.00  0.00     0.002 A 
ATOM      9  C   UNL d   1      51.832  35.311  52.890  0.00  0.00     0.000 A 
ATOM     10  C   UNL d   1      50.250  32.941  53.015  0.00  0.00     0.000 A 
ATOM     11  C   UNL d   1      51.097  34.947  52.888  0.00  0.00     0.000 A 
ATOM     12  C   UNL d   1      50.317  33.765  52.951  0.00  0.00     0.000 A 
ENDROOT
BRANCH   2  13
ATOM     13  N   UNL d   1      52.591  31.772  53.212  0.00  0.00    -0.300 N 
ATOM     14  C   UNL d   1      52.593  31.299  52.538  0.00  0.00     0.100 A 
ATOM     15  C   UNL d   1      52.724  30.520  52.616  0.00  0.00     0.102 A 
ATOM     16  N   UNL d   1      52.863  30.144  53.363  0.00  0.00    -0.269 N 
ATOM     17  C   UNL d   1      53.000  29.336  53.450  0.00  0.00     0.265 C 
ATOM     18  C   UNL d   1      52.861  30.614  54.029  0.00  0.00     0.102 A 
ATOM     19  O   UNL d   1      53.014  28.811  52.808  0.00  0.00    -0.267 OA
ATOM     20  C   UNL d   1      52.718  31.469  53.950  0.00  0.00     0.100 A 
BRANCH  17  21
ATOM     21  C   UNL d   1      53.128  29.042  54.203  0.00  0.00     0.057 A 
ATOM     22  C   UNL d   1      52.515  29.020  54.768  0.00  0.00     0.005 A 
ATOM     23  C   UNL d   1      52.651  28.721  55.531  0.00  0.00     0.000 A 
ATOM     24  C   UNL d   1      53.409  28.438  55.737  0.00  0.00     0.000 A 
ATOM     25  C   UNL d   1      54.016  28.461  55.174  0.00  0.00     0.000 A 
ATOM     26  C   UNL d   1      53.874  28.761  54.414  0.00  0.00     0.005 A 
ENDBRANCH  17  21
ENDBRANCH   2  13
BRANCH   1  27
ATOM     27  N   UNL d   1      53.834  33.650  53.112  0.00  0.00    -0.157 NA
BRANCH  27  28
ATOM     28  S   UNL d   1      54.254  33.675  53.820  0.00  0.00     0.285 S 
ATOM     29  O   UNL d   1      54.715  33.044  53.558  0.00  0.00    -0.198 OA
ATOM     30  O   UNL d   1      53.793  34.301  54.074  0.00  0.00    -0.198 OA
BRANCH  28  31
ATOM     31  C   UNL d   1      54.674  33.695  54.520  0.00  0.00     0.105 A 
ATOM     32  C   UNL d   1      54.316  33.474  55.232  0.00  0.00     0.013 A 
ATOM     33  C   UNL d   1      54.740  33.496  55.931  0.00  0.00     0.001 A 
ATOM     34  C   UNL d   1      55.520  33.736  55.931  0.00  0.00     0.000 A 
ATOM     35  C   UNL d   1      55.899  33.964  55.216  0.00  0.00     0.001 A 
ATOM     36  C   UNL d   1      55.458  33.937  54.520  0.00  0.00     0.013 A 
ENDBRANCH  28  31
ENDBRANCH  27  28
ENDBRANCH   1  27
TORSDOF 5
ENDMDL
