MODEL 1
REMARK VINA RESULT:      -4.1      0.000      0.000
REMARK  3 active torsions:
REMARK  status: ('A' for Active; 'I' for Inactive)
REMARK    1  A    between atoms: C_6  and  N_1 
REMARK    2  A    between atoms: C_5  and  C_9 
REMARK    3  A    between atoms: C_14  and  C_6 
ROOT
ATOM      1  C   UNL d   1      56.663  -0.561  32.094  0.00  0.00     0.064 A 
ATOM      2  C   UNL d   1      56.789   0.248  32.196  0.00  0.00     0.006 A 
ATOM      3  C   UNL d   1      57.009  -0.955  31.460  0.00  0.00     0.006 A 
ATOM      4  C   UNL d   1      57.609   0.267  31.025  0.00  0.00     0.018 A 
ATOM      5  C   UNL d   1      57.261   0.662  31.663  0.00  0.00     0.002 A 
ATOM      6  C   UNL d   1      57.483  -0.542  30.923  0.00  0.00     0.002 A 
ENDROOT
BRANCH   4   7
ATOM      7  C   UNL d   1      58.081   0.682  30.492  0.00  0.00     0.084 C 
BRANCH   7   8
ATOM      8  N   UNL d   1      58.819   0.384  30.275  0.00  0.00    -0.259 N 
ATOM      9  C   UNL d   1      59.003   0.033  29.545  0.00  0.00     0.153 A 
ATOM     10  S   UNL d   1      59.793  -0.182  29.568  0.00  0.00    -0.053 SA
ATOM     11  S   UNL d   1      58.479  -0.077  28.916  0.00  0.00    -0.052 SA
ATOM     12  C   UNL d   1      60.097   0.034  30.304  0.00  0.00     0.099 A 
ATOM     13  C   UNL d   1      59.496   0.383  30.739  0.00  0.00     0.272 A 
ATOM     14  O   UNL d   1      59.555   0.682  31.509  0.00  0.00    -0.266 OA
ENDBRANCH   7   8
ENDBRANCH   4   7
BRANCH   1  15
ATOM     15  C   UNL d   1      56.187  -0.975  32.633  0.00  0.00     0.211 C 
ATOM     16  O   UNL d   1      55.555  -0.598  33.002  0.00  0.00    -0.644 OA
ATOM     17  O   UNL d   1      56.349  -1.766  32.799  0.00  0.00    -0.644 OA
ENDBRANCH   1  15
TORSDOF 3
ENDMDL
MODEL 2
REMARK VINA RESULT:      -3.7      8.794      9.610
REMARK  3 active torsions:
REMARK  status: ('A' for Active; 'I' for Inactive)
REMARK    1  A    between atoms: C_6  and  N_1 
REMARK    2  A    between atoms: C_5  and  C_9 
REMARK    3  A    between atoms: C_14  and  C_6 
ROOT
ATOM      1  C   UNL d   1      60.397  -6.852  35.769  0.00  0.00     0.064 A 
ATOM      2  C   UNL d   1      59.745  -7.328  35.941  0.00  0.00     0.006 A 
ATOM      3  C   UNL d   1      61.040  -7.166  35.363  0.00  0.00     0.006 A 
ATOM      4  C   UNL d   1      60.382  -8.434  35.300  0.00  0.00     0.018 A 
ATOM      5  C   UNL d   1      59.736  -8.117  35.708  0.00  0.00     0.002 A 
ATOM      6  C   UNL d   1      61.034  -7.959  35.127  0.00  0.00     0.002 A 
ENDROOT
BRANCH   4   7
ATOM      7  C   UNL d   1      60.374  -9.224  35.066  0.00  0.00     0.084 C 
BRANCH   7   8
ATOM      8  N   UNL d   1      59.985  -9.446  34.373  0.00  0.00    -0.259 N 
ATOM      9  C   UNL d   1      60.337  -9.524  33.625  0.00  0.00     0.153 A 
ATOM     10  S   UNL d   1      59.751  -9.753  33.100  0.00  0.00    -0.053 SA
ATOM     11  S   UNL d   1      61.133  -9.392  33.449  0.00  0.00    -0.052 SA
ATOM     12  C   UNL d   1      59.043  -9.818  33.518  0.00  0.00     0.099 A 
ATOM     13  C   UNL d   1      59.188  -9.628  34.303  0.00  0.00     0.272 A 
ATOM     14  O   UNL d   1      58.634  -9.621  34.918  0.00  0.00    -0.266 OA
ENDBRANCH   7   8
ENDBRANCH   4   7
BRANCH   1  15
ATOM     15  C   UNL d   1      60.401  -6.057  36.006  0.00  0.00     0.211 C 
ATOM     16  O   UNL d   1      61.096  -5.709  36.277  0.00  0.00    -0.644 OA
ATOM     17  O   UNL d   1      59.705  -5.615  35.970  0.00  0.00    -0.644 OA
ENDBRANCH   1  15
TORSDOF 3
ENDMDL
MODEL 3
REMARK VINA RESULT:      -3.5      8.871      9.587
REMARK  3 active torsions:
REMARK  status: ('A' for Active; 'I' for Inactive)
REMARK    1  A    between atoms: C_6  and  N_1 
REMARK    2  A    between atoms: C_5  and  C_9 
REMARK    3  A    between atoms: C_14  and  C_6 
ROOT
ATOM      1  C   UNL d   1      60.408  -6.776  35.892  0.00  0.00     0.064 A 
ATOM      2  C   UNL d   1      59.713  -7.219  35.896  0.00  0.00     0.006 A 
ATOM      3  C   UNL d   1      61.110  -7.112  35.626  0.00  0.00     0.006 A 
ATOM      4  C   UNL d   1      60.424  -8.339  35.365  0.00  0.00     0.018 A 
ATOM      5  C   UNL d   1      59.719  -7.999  35.633  0.00  0.00     0.002 A 
ATOM      6  C   UNL d   1      61.120  -7.896  35.362  0.00  0.00     0.002 A 
ENDROOT
BRANCH   4   7
ATOM      7  C   UNL d   1      60.430  -9.120  35.102  0.00  0.00     0.084 C 
BRANCH   7   8
ATOM      8  N   UNL d   1      59.961  -9.344  34.461  0.00  0.00    -0.259 N 
ATOM      9  C   UNL d   1      59.198  -9.667  34.511  0.00  0.00     0.153 A 
ATOM     10  S   UNL d   1      58.940  -9.807  33.746  0.00  0.00    -0.053 SA
ATOM     11  S   UNL d   1      58.781  -9.818  35.208  0.00  0.00    -0.052 SA
ATOM     12  C   UNL d   1      59.537  -9.573  33.227  0.00  0.00     0.099 A 
ATOM     13  C   UNL d   1      60.166  -9.288  33.669  0.00  0.00     0.272 A 
ATOM     14  O   UNL d   1      60.883  -8.994  33.374  0.00  0.00    -0.266 OA
ENDBRANCH   7   8
ENDBRANCH   4   7
BRANCH   1  15
ATOM     15  C   UNL d   1      60.397  -5.989  36.158  0.00  0.00     0.211 C 
ATOM     16  O   UNL d   1      59.681  -5.597  36.260  0.00  0.00    -0.644 OA
ATOM     17  O   UNL d   1      61.107  -5.602  36.321  0.00  0.00    -0.644 OA
ENDBRANCH   1  15
TORSDOF 3
ENDMDL
MODEL 4
REMARK VINA RESULT:      -3.2      2.787      4.061
REMARK  3 active torsions:
REMARK  status: ('A' for Active; 'I' for Inactive)
REMARK    1  A    between atoms: C_6  and  N_1 
REMARK    2  A    between atoms: C_5  and  C_9 
REMARK    3  A    between atoms: C_14  and  C_6 
ROOT
ATOM      1  C   UNL d   1      60.267  -2.965  29.064  0.00  0.00     0.064 A 
ATOM      2  C   UNL d   1      59.461  -3.063  29.210  0.00  0.00     0.006 A 
ATOM      3  C   UNL d   1      60.553  -2.238  28.804  0.00  0.00     0.006 A 
ATOM      4  C   UNL d   1      59.227  -1.704  28.837  0.00  0.00     0.018 A 
ATOM      5  C   UNL d   1      58.941  -2.435  29.097  0.00  0.00     0.002 A 
ATOM      6  C   UNL d   1      60.033  -1.605  28.690  0.00  0.00     0.002 A 
ENDROOT
BRANCH   4   7
ATOM      7  C   UNL d   1      58.707  -1.075  28.723  0.00  0.00     0.084 C 
BRANCH   7   8
ATOM      8  N   UNL d   1      58.650  -0.478  29.290  0.00  0.00    -0.259 N 
ATOM      9  C   UNL d   1      59.010   0.268  29.244  0.00  0.00     0.153 A 
ATOM     10  S   UNL d   1      58.808   0.682  29.922  0.00  0.00    -0.053 SA
ATOM     11  S   UNL d   1      59.485   0.538  28.624  0.00  0.00    -0.052 SA
ATOM     12  C   UNL d   1      58.327   0.197  30.385  0.00  0.00     0.099 A 
ATOM     13  C   UNL d   1      58.230  -0.518  29.994  0.00  0.00     0.272 A 
ATOM     14  O   UNL d   1      57.789  -1.168  30.258  0.00  0.00    -0.266 OA
ENDBRANCH   7   8
ENDBRANCH   4   7
BRANCH   1  15
ATOM     15  C   UNL d   1      60.787  -3.601  29.179  0.00  0.00     0.211 C 
ATOM     16  O   UNL d   1      61.123  -3.733  29.918  0.00  0.00    -0.644 OA
ATOM     17  O   UNL d   1      60.966  -4.103  28.549  0.00  0.00    -0.644 OA
ENDBRANCH   1  15
TORSDOF 3
ENDMDL
MODEL 5
REMARK VINA RESULT:      -2.0      2.821      3.643
REMARK  3 active torsions:
REMARK  status: ('A' for Active; 'I' for Inactive)
REMARK    1  A    between atoms: C_6  and  N_1 
REMARK    2  A    between atoms: C_5  and  C_9 
REMARK    3  A    between atoms: C_14  and  C_6 
ROOT
ATOM      1  C   UNL d   1      59.194  -2.854  28.820  0.00  0.00     0.064 A 
ATOM      2  C   UNL d   1      59.816  -2.424  28.492  0.00  0.00     0.006 A 
ATOM      3  C   UNL d   1      58.557  -2.461  29.163  0.00  0.00     0.006 A 
ATOM      4  C   UNL d   1      59.164  -1.204  28.852  0.00  0.00     0.018 A 
ATOM      5  C   UNL d   1      59.803  -1.601  28.507  0.00  0.00     0.002 A 
ATOM      6  C   UNL d   1      58.541  -1.635  29.180  0.00  0.00     0.002 A 
ENDROOT
BRANCH   4   7
ATOM      7  C   UNL d   1      59.150  -0.381  28.867  0.00  0.00     0.084 C 
BRANCH   7   8
ATOM      8  N   UNL d   1      59.469   0.026  29.510  0.00  0.00    -0.259 N 
ATOM      9  C   UNL d   1      59.041   0.318  30.158  0.00  0.00     0.153 A 
ATOM     10  S   UNL d   1      59.575   0.682  30.662  0.00  0.00    -0.053 SA
ATOM     11  S   UNL d   1      58.225   0.250  30.268  0.00  0.00    -0.052 SA
ATOM     12  C   UNL d   1      60.327   0.617  30.330  0.00  0.00     0.099 A 
ATOM     13  C   UNL d   1      60.261   0.212  29.619  0.00  0.00     0.272 A 
ATOM     14  O   UNL d   1      60.878   0.022  29.101  0.00  0.00    -0.266 OA
ENDBRANCH   7   8
ENDBRANCH   4   7
BRANCH   1  15
ATOM     15  C   UNL d   1      59.212  -3.684  28.802  0.00  0.00     0.211 C 
ATOM     16  O   UNL d   1      59.932  -4.082  28.782  0.00  0.00    -0.644 OA
ATOM     17  O   UNL d   1      58.505  -4.109  28.804  0.00  0.00    -0.644 OA
ENDBRANCH   1  15
TORSDOF 3
ENDMDL
