MODEL 1
REMARK VINA RESULT:       4.1      0.000      0.000
REMARK  1 active torsions:
REMARK  status: ('A' for Active; 'I' for Inactive)
REMARK    1  A    between atoms: C_6  and  N_1 
ROOT
ATOM      1  C   UNL d   1     -51.811  24.813  33.312  0.00  0.00     0.086 A 
ATOM      2  C   UNL d   1     -51.924  25.624  33.312  0.00  0.00     0.023 A 
ATOM      3  C   UNL d   1     -51.046  24.500  33.310  0.00  0.00     0.023 A 
ATOM      4  C   UNL d   1     -50.514  25.825  33.308  0.00  0.00     0.196 A 
ATOM      5  C   UNL d   1     -50.396  25.008  33.308  0.00  0.00     0.044 A 
ATOM      6  C   UNL d   1     -51.274  26.132  33.310  0.00  0.00     0.044 A 
ATOM      7  O   UNL d   1     -49.867  26.331  33.306  0.00  0.00    -0.287 OA
ENDROOT
BRANCH   1   8
ATOM      8  N   UNL d   1     -52.457  24.313  33.314  0.00  0.00    -0.189 N 
ATOM      9  N   UNL d   1     -53.251  24.541  33.307  0.00  0.00    -0.038 NA
ATOM     10  N   UNL d   1     -53.710  23.856  33.312  0.00  0.00    -0.022 NA
ATOM     11  N   UNL d   1     -53.210  23.215  33.323  0.00  0.00    -0.104 NA
ATOM     12  C   UNL d   1     -52.431  23.492  33.324  0.00  0.00     0.226 A 
ENDBRANCH   1   8
TORSDOF 1
ENDMDL
MODEL 2
REMARK VINA RESULT:       6.4      2.108      2.990
REMARK  1 active torsions:
REMARK  status: ('A' for Active; 'I' for Inactive)
REMARK    1  A    between atoms: C_6  and  N_1 
ROOT
ATOM      1  C   UNL d   1     -51.834  24.840  33.307  0.00  0.00     0.086 A 
ATOM      2  C   UNL d   1     -51.847  24.021  33.307  0.00  0.00     0.023 A 
ATOM      3  C   UNL d   1     -52.542  25.267  33.306  0.00  0.00     0.023 A 
ATOM      4  C   UNL d   1     -53.271  24.039  33.307  0.00  0.00     0.196 A 
ATOM      5  C   UNL d   1     -53.262  24.865  33.307  0.00  0.00     0.044 A 
ATOM      6  C   UNL d   1     -52.568  23.619  33.308  0.00  0.00     0.044 A 
ATOM      7  O   UNL d   1     -53.988  23.639  33.308  0.00  0.00    -0.287 OA
ENDROOT
BRANCH   1   8
ATOM      8  N   UNL d   1     -51.119  25.234  33.306  0.00  0.00    -0.189 N 
ATOM      9  N   UNL d   1     -51.013  26.053  33.306  0.00  0.00    -0.038 NA
ATOM     10  N   UNL d   1     -50.201  26.202  33.306  0.00  0.00    -0.022 NA
ATOM     11  N   UNL d   1     -49.812  25.488  33.306  0.00  0.00    -0.104 NA
ATOM     12  C   UNL d   1     -50.376  24.884  33.306  0.00  0.00     0.226 A 
ENDBRANCH   1   8
TORSDOF 1
ENDMDL
