MODEL 1
REMARK VINA RESULT:      -8.2      0.000      0.000
REMARK  4 active torsions:
REMARK  status: ('A' for Active; 'I' for Inactive)
REMARK    1  A    between atoms: C_4  and  C_1 
REMARK       I    between atoms: N_6  and  C_4 
REMARK    2  A    between atoms: C_9  and  N_6 
REMARK    3  A    between atoms: C_12  and  N_6 
REMARK    4  A    between atoms: C_17  and  C_12 
ROOT
ATOM      1  C   UNL d   1     -47.684  13.970  22.657  0.00  0.00     0.272 C 
ATOM      2  N   UNL d   1     -47.414  13.273  23.002  0.00  0.00    -0.258 N 
ATOM      3  O   UNL d   1     -47.213  14.638  22.654  0.00  0.00    -0.266 OA
ENDROOT
BRANCH   2   4
ATOM      4  C   UNL d   1     -47.891  12.584  23.008  0.00  0.00     0.150 A 
ATOM      5  N   UNL d   1     -47.948  12.129  22.312  0.00  0.00    -0.227 NA
ATOM      6  C   UNL d   1     -48.423  11.443  22.319  0.00  0.00     0.101 A 
ATOM      7  C   UNL d   1     -48.826  11.225  23.006  0.00  0.00     0.021 A 
ATOM      8  C   UNL d   1     -48.765  11.683  23.694  0.00  0.00     0.005 A 
ATOM      9  C   UNL d   1     -48.297  12.363  23.696  0.00  0.00     0.037 A 
ENDBRANCH   2   4
BRANCH   2  10
ATOM     10  C   UNL d   1     -46.658  13.242  23.353  0.00  0.00     0.084 C 
BRANCH  10  11
ATOM     11  C   UNL d   1     -45.996  13.063  22.899  0.00  0.00     0.018 A 
ATOM     12  C   UNL d   1     -45.716  13.606  22.345  0.00  0.00     0.002 A 
ATOM     13  C   UNL d   1     -45.055  13.424  21.892  0.00  0.00     0.000 A 
ATOM     14  C   UNL d   1     -44.671  12.705  21.989  0.00  0.00     0.000 A 
ATOM     15  C   UNL d   1     -44.956  12.153  22.551  0.00  0.00     0.000 A 
ATOM     16  C   UNL d   1     -45.616  12.343  22.998  0.00  0.00     0.002 A 
ENDBRANCH  10  11
ENDBRANCH   2  10
BRANCH   1  17
ATOM     17  C   UNL d   1     -48.438  13.985  22.312  0.00  0.00     0.132 A 
ATOM     18  C   UNL d   1     -49.034  14.439  22.663  0.00  0.00     0.272 A 
ATOM     19  N   UNL d   1     -49.794  14.463  22.329  0.00  0.00    -0.265 N 
ATOM     20  O   UNL d   1     -48.881  14.873  23.348  0.00  0.00    -0.266 OA
ATOM     21  C   UNL d   1     -50.480  14.852  22.545  0.00  0.00     0.123 A 
ATOM     22  C   UNL d   1     -49.946  14.028  21.644  0.00  0.00     0.181 A 
ATOM     23  C   UNL d   1     -51.064  14.667  22.001  0.00  0.00     0.043 A 
ATOM     24  S   UNL d   1     -50.736  14.152  21.435  0.00  0.00    -0.049 SA
ATOM     25  N   UNL d   1     -49.355  13.576  21.294  0.00  0.00    -0.220 NA
ATOM     26  C   UNL d   1     -48.598  13.553  21.627  0.00  0.00     0.111 A 
ENDBRANCH   1  17
TORSDOF 4
ENDMDL
MODEL 2
REMARK VINA RESULT:      -7.5      1.493      3.924
REMARK  4 active torsions:
REMARK  status: ('A' for Active; 'I' for Inactive)
REMARK    1  A    between atoms: C_4  and  C_1 
REMARK       I    between atoms: N_6  and  C_4 
REMARK    2  A    between atoms: C_9  and  N_6 
REMARK    3  A    between atoms: C_12  and  N_6 
REMARK    4  A    between atoms: C_17  and  C_12 
ROOT
ATOM      1  C   UNL d   1     -47.977  14.126  22.803  0.00  0.00     0.272 C 
ATOM      2  N   UNL d   1     -48.642  14.077  22.320  0.00  0.00    -0.258 N 
ATOM      3  O   UNL d   1     -47.731  14.849  23.094  0.00  0.00    -0.266 OA
ENDROOT
BRANCH   2   4
ATOM      4  C   UNL d   1     -48.900  13.339  22.018  0.00  0.00     0.150 A 
ATOM      5  N   UNL d   1     -49.331  12.829  22.517  0.00  0.00    -0.227 NA
ATOM      6  C   UNL d   1     -49.588  12.095  22.215  0.00  0.00     0.101 A 
ATOM      7  C   UNL d   1     -49.415  11.884  21.435  0.00  0.00     0.021 A 
ATOM      8  C   UNL d   1     -48.985  12.397  20.945  0.00  0.00     0.005 A 
ATOM      9  C   UNL d   1     -48.728  13.125  21.236  0.00  0.00     0.037 A 
ENDBRANCH   2   4
BRANCH   2  10
ATOM     10  C   UNL d   1     -49.072  14.764  22.124  0.00  0.00     0.084 C 
BRANCH  10  11
ATOM     11  C   UNL d   1     -49.688  15.021  22.606  0.00  0.00     0.018 A 
ATOM     12  C   UNL d   1     -49.560  15.627  23.151  0.00  0.00     0.002 A 
ATOM     13  C   UNL d   1     -50.177  15.881  23.631  0.00  0.00     0.000 A 
ATOM     14  C   UNL d   1     -50.919  15.534  23.571  0.00  0.00     0.000 A 
ATOM     15  C   UNL d   1     -51.048  14.919  23.019  0.00  0.00     0.000 A 
ATOM     16  C   UNL d   1     -50.427  14.672  22.543  0.00  0.00     0.002 A 
ENDBRANCH  10  11
ENDBRANCH   2  10
BRANCH   1  17
ATOM     17  C   UNL d   1     -47.560  13.433  22.988  0.00  0.00     0.132 A 
ATOM     18  C   UNL d   1     -46.809  13.313  22.661  0.00  0.00     0.272 A 
ATOM     19  N   UNL d   1     -46.381  12.624  22.838  0.00  0.00    -0.265 N 
ATOM     20  O   UNL d   1     -46.478  13.876  22.157  0.00  0.00    -0.266 OA
ATOM     21  C   UNL d   1     -45.644  12.357  22.605  0.00  0.00     0.123 A 
ATOM     22  C   UNL d   1     -46.714  12.062  23.342  0.00  0.00     0.181 A 
ATOM     23  C   UNL d   1     -45.509  11.631  22.958  0.00  0.00     0.043 A 
ATOM     24  S   UNL d   1     -46.174  11.441  23.421  0.00  0.00    -0.049 SA
ATOM     25  N   UNL d   1     -47.460  12.179  23.668  0.00  0.00    -0.220 NA
ATOM     26  C   UNL d   1     -47.886  12.866  23.491  0.00  0.00     0.111 A 
ENDBRANCH   1  17
TORSDOF 4
ENDMDL
MODEL 3
REMARK VINA RESULT:      -5.9      1.325      2.151
REMARK  4 active torsions:
REMARK  status: ('A' for Active; 'I' for Inactive)
REMARK    1  A    between atoms: C_4  and  C_1 
REMARK       I    between atoms: N_6  and  C_4 
REMARK    2  A    between atoms: C_9  and  N_6 
REMARK    3  A    between atoms: C_12  and  N_6 
REMARK    4  A    between atoms: C_17  and  C_12 
ROOT
ATOM      1  C   UNL d   1     -47.596  12.595  22.789  0.00  0.00     0.272 C 
ATOM      2  N   UNL d   1     -47.222  13.314  22.935  0.00  0.00    -0.258 N 
ATOM      3  O   UNL d   1     -47.226  11.892  22.978  0.00  0.00    -0.266 OA
ENDROOT
BRANCH   2   4
ATOM      4  C   UNL d   1     -47.596  14.039  22.744  0.00  0.00     0.150 A 
ATOM      5  N   UNL d   1     -48.024  14.439  23.337  0.00  0.00    -0.227 NA
ATOM      6  C   UNL d   1     -48.396  15.161  23.146  0.00  0.00     0.101 A 
ATOM      7  C   UNL d   1     -48.337  15.468  22.382  0.00  0.00     0.021 A 
ATOM      8  C   UNL d   1     -47.909  15.065  21.797  0.00  0.00     0.005 A 
ATOM      9  C   UNL d   1     -47.538  14.350  21.978  0.00  0.00     0.037 A 
ENDBRANCH   2   4
BRANCH   2  10
ATOM     10  C   UNL d   1     -46.462  13.332  23.278  0.00  0.00     0.084 C 
BRANCH  10  11
ATOM     11  C   UNL d   1     -45.803  13.106  22.840  0.00  0.00     0.018 A 
ATOM     12  C   UNL d   1     -45.492  12.346  22.924  0.00  0.00     0.002 A 
ATOM     13  C   UNL d   1     -44.834  12.123  22.485  0.00  0.00     0.000 A 
ATOM     14  C   UNL d   1     -44.485  12.653  21.963  0.00  0.00     0.000 A 
ATOM     15  C   UNL d   1     -44.801  13.423  21.878  0.00  0.00     0.000 A 
ATOM     16  C   UNL d   1     -45.458  13.637  22.320  0.00  0.00     0.002 A 
ENDBRANCH  10  11
ENDBRANCH   2  10
BRANCH   1  17
ATOM     17  C   UNL d   1     -48.352  12.595  22.448  0.00  0.00     0.132 A 
ATOM     18  C   UNL d   1     -49.003  12.374  22.908  0.00  0.00     0.272 A 
ATOM     19  N   UNL d   1     -49.766  12.369  22.580  0.00  0.00    -0.265 N 
ATOM     20  O   UNL d   1     -48.903  12.156  23.698  0.00  0.00    -0.266 OA
ATOM     21  C   UNL d   1     -50.499  12.181  22.890  0.00  0.00     0.123 A 
ATOM     22  C   UNL d   1     -49.865  12.587  21.790  0.00  0.00     0.181 A 
ATOM     23  C   UNL d   1     -51.061  12.279  22.301  0.00  0.00     0.043 A 
ATOM     24  S   UNL d   1     -50.670  12.533  21.611  0.00  0.00    -0.049 SA
ATOM     25  N   UNL d   1     -49.219  12.807  21.331  0.00  0.00    -0.220 NA
ATOM     26  C   UNL d   1     -48.460  12.812  21.659  0.00  0.00     0.111 A 
ENDBRANCH   1  17
TORSDOF 4
ENDMDL
