MODEL 1
REMARK VINA RESULT:      -2.9      0.000      0.000
REMARK  2 active torsions:
REMARK  status: ('A' for Active; 'I' for Inactive)
REMARK    1  A    between atoms: N_6  and  C_1 
REMARK    2  A    between atoms: C_7  and  C_2 
REMARK       I    between atoms: C_8  and  N_6 
ROOT
ATOM      1  C   UNL d   1     -41.435-122.647 -51.688  0.00  0.00     0.119 A 
ATOM      2  C   UNL d   1     -41.779-122.206 -51.112  0.00  0.00     0.084 A 
ATOM      3  S   UNL d   1     -41.122-123.339 -51.339  0.00  0.00    -0.068 SA
ATOM      4  C   UNL d   1     -41.695-122.596 -50.407  0.00  0.00     0.013 A 
ATOM      5  C   UNL d   1     -41.284-123.304 -50.549  0.00  0.00     0.031 A 
ATOM      6  C   UNL d   1     -41.937-122.404 -49.643  0.00  0.00     0.001 A 
ATOM      7  C   UNL d   1     -41.126-123.806 -49.914  0.00  0.00     0.006 A 
ATOM      8  C   UNL d   1     -41.771-122.920 -49.014  0.00  0.00     0.000 A 
ATOM      9  C   UNL d   1     -41.373-123.601 -49.163  0.00  0.00     0.001 A 
ENDROOT
BRANCH   1  10
ATOM     10  N   UNL d   1     -41.403-122.433 -52.513  0.00  0.00    -0.201 NA
ATOM     11  C   UNL d   1     -41.325-123.001 -53.103  0.00  0.00     0.280 C 
ATOM     12  O   UNL d   1     -41.276-123.815 -52.904  0.00  0.00    -0.265 OA
ATOM     13  C   UNL d   1     -41.295-122.781 -53.898  0.00  0.00     0.068 C 
ENDBRANCH   1  10
BRANCH   2  14
ATOM     14  C   UNL d   1     -42.159-121.465 -51.246  0.00  0.00     0.299 C 
ATOM     15  O   UNL d   1     -42.987-121.460 -51.312  0.00  0.00    -0.264 OA
ATOM     16  N   UNL d   1     -41.734-120.766 -51.311  0.00  0.00    -0.102 N 
ENDBRANCH   2  14
TORSDOF 2
ENDMDL
MODEL 2
REMARK VINA RESULT:      -2.6      1.630      2.124
REMARK  2 active torsions:
REMARK  status: ('A' for Active; 'I' for Inactive)
REMARK    1  A    between atoms: N_6  and  C_1 
REMARK    2  A    between atoms: C_7  and  C_2 
REMARK       I    between atoms: C_8  and  N_6 
ROOT
ATOM      1  C   UNL d   1     -42.094-122.982 -50.082  0.00  0.00     0.119 A 
ATOM      2  C   UNL d   1     -42.702-123.073 -49.567  0.00  0.00     0.084 A 
ATOM      3  S   UNL d   1     -41.379-122.994 -49.651  0.00  0.00    -0.068 SA
ATOM      4  C   UNL d   1     -42.396-123.141 -48.820  0.00  0.00     0.013 A 
ATOM      5  C   UNL d   1     -41.568-123.092 -48.874  0.00  0.00     0.031 A 
ATOM      6  C   UNL d   1     -42.759-123.244 -48.087  0.00  0.00     0.001 A 
ATOM      7  C   UNL d   1     -41.123-123.147 -48.182  0.00  0.00     0.006 A 
ATOM      8  C   UNL d   1     -42.296-123.297 -47.400  0.00  0.00     0.000 A 
ATOM      9  C   UNL d   1     -41.497-123.248 -47.463  0.00  0.00     0.001 A 
ENDROOT
BRANCH   1  10
ATOM     10  N   UNL d   1     -42.179-122.891 -50.927  0.00  0.00    -0.201 NA
ATOM     11  C   UNL d   1     -41.707-122.371 -51.353  0.00  0.00     0.280 C 
ATOM     12  O   UNL d   1     -41.123-121.911 -50.963  0.00  0.00    -0.265 OA
ATOM     13  C   UNL d   1     -41.799-122.291 -52.170  0.00  0.00     0.068 C 
ENDBRANCH   1  10
BRANCH   2  14
ATOM     14  C   UNL d   1     -43.516-123.090 -49.792  0.00  0.00     0.299 C 
ATOM     15  O   UNL d   1     -43.832-123.816 -50.045  0.00  0.00    -0.264 OA
ATOM     16  N   UNL d   1     -43.987-122.420 -49.764  0.00  0.00    -0.102 N 
ENDBRANCH   2  14
TORSDOF 2
ENDMDL
MODEL 3
REMARK VINA RESULT:      -2.5      1.041      2.826
REMARK  2 active torsions:
REMARK  status: ('A' for Active; 'I' for Inactive)
REMARK    1  A    between atoms: N_6  and  C_1 
REMARK    2  A    between atoms: C_7  and  C_2 
REMARK       I    between atoms: C_8  and  N_6 
ROOT
ATOM      1  C   UNL d   1     -41.511-122.631 -51.311  0.00  0.00     0.119 A 
ATOM      2  C   UNL d   1     -41.560-122.102 -51.912  0.00  0.00     0.084 A 
ATOM      3  S   UNL d   1     -41.343-123.383 -51.633  0.00  0.00    -0.068 SA
ATOM      4  C   UNL d   1     -41.428-122.494 -52.608  0.00  0.00     0.013 A 
ATOM      5  C   UNL d   1     -41.292-123.295 -52.433  0.00  0.00     0.031 A 
ATOM      6  C   UNL d   1     -41.411-122.232 -53.390  0.00  0.00     0.001 A 
ATOM      7  C   UNL d   1     -41.143-123.817 -53.055  0.00  0.00     0.006 A 
ATOM      8  C   UNL d   1     -41.259-122.771 -54.004  0.00  0.00     0.000 A 
ATOM      9  C   UNL d   1     -41.129-123.542 -53.823  0.00  0.00     0.001 A 
ENDROOT
BRANCH   1  10
ATOM     10  N   UNL d   1     -41.616-122.442 -50.485  0.00  0.00    -0.201 NA
ATOM     11  C   UNL d   1     -41.564-123.019 -49.901  0.00  0.00     0.280 C 
ATOM     12  O   UNL d   1     -41.404-123.817 -50.107  0.00  0.00    -0.265 OA
ATOM     13  C   UNL d   1     -41.667-122.824 -49.106  0.00  0.00     0.068 C 
ENDBRANCH   1  10
BRANCH   2  14
ATOM     14  C   UNL d   1     -41.722-121.281 -51.809  0.00  0.00     0.299 C 
ATOM     15  O   UNL d   1     -42.519-121.045 -51.775  0.00  0.00    -0.264 OA
ATOM     16  N   UNL d   1     -41.123-120.725 -51.744  0.00  0.00    -0.102 N 
ENDBRANCH   2  14
TORSDOF 2
ENDMDL
MODEL 4
REMARK VINA RESULT:      -1.7      1.246      3.274
REMARK  2 active torsions:
REMARK  status: ('A' for Active; 'I' for Inactive)
REMARK    1  A    between atoms: N_6  and  C_1 
REMARK    2  A    between atoms: C_7  and  C_2 
REMARK       I    between atoms: C_8  and  N_6 
ROOT
ATOM      1  C   UNL d   1     -41.461-122.625 -52.386  0.00  0.00     0.119 A 
ATOM      2  C   UNL d   1     -41.566-122.108 -52.991  0.00  0.00     0.084 A 
ATOM      3  S   UNL d   1     -41.273-123.372 -52.708  0.00  0.00    -0.068 SA
ATOM      4  C   UNL d   1     -41.451-122.503 -53.688  0.00  0.00     0.013 A 
ATOM      5  C   UNL d   1     -41.268-123.294 -53.511  0.00  0.00     0.031 A 
ATOM      6  C   UNL d   1     -41.488-122.252 -54.472  0.00  0.00     0.001 A 
ATOM      7  C   UNL d   1     -41.124-123.817 -54.132  0.00  0.00     0.006 A 
ATOM      8  C   UNL d   1     -41.341-122.791 -55.087  0.00  0.00     0.000 A 
ATOM      9  C   UNL d   1     -41.165-123.553 -54.904  0.00  0.00     0.001 A 
ENDROOT
BRANCH   1  10
ATOM     10  N   UNL d   1     -41.532-122.430 -51.558  0.00  0.00    -0.201 NA
ATOM     11  C   UNL d   1     -41.651-123.010 -50.988  0.00  0.00     0.280 C 
ATOM     12  O   UNL d   1     -41.705-123.818 -51.209  0.00  0.00    -0.265 OA
ATOM     13  C   UNL d   1     -41.718-122.808 -50.190  0.00  0.00     0.068 C 
ENDBRANCH   1  10
BRANCH   2  14
ATOM     14  C   UNL d   1     -41.764-121.294 -52.889  0.00  0.00     0.299 C 
ATOM     15  O   UNL d   1     -41.174-120.786 -52.596  0.00  0.00    -0.264 OA
ATOM     16  N   UNL d   1     -42.509-121.002 -53.070  0.00  0.00    -0.102 N 
ENDBRANCH   2  14
TORSDOF 2
ENDMDL
MODEL 5
REMARK VINA RESULT:      -1.1      1.877      2.701
REMARK  2 active torsions:
REMARK  status: ('A' for Active; 'I' for Inactive)
REMARK    1  A    between atoms: N_6  and  C_1 
REMARK    2  A    between atoms: C_7  and  C_2 
REMARK       I    between atoms: C_8  and  N_6 
ROOT
ATOM      1  C   UNL d   1     -41.616-121.999 -53.561  0.00  0.00     0.119 A 
ATOM      2  C   UNL d   1     -41.495-122.524 -52.967  0.00  0.00     0.084 A 
ATOM      3  S   UNL d   1     -41.570-121.227 -53.245  0.00  0.00    -0.068 SA
ATOM      4  C   UNL d   1     -41.375-122.110 -52.281  0.00  0.00     0.013 A 
ATOM      5  C   UNL d   1     -41.422-121.299 -52.456  0.00  0.00     0.031 A 
ATOM      6  C   UNL d   1     -41.226-122.360 -51.510  0.00  0.00     0.001 A 
ATOM      7  C   UNL d   1     -41.318-120.755 -51.845  0.00  0.00     0.006 A 
ATOM      8  C   UNL d   1     -41.124-121.799 -50.905  0.00  0.00     0.000 A 
ATOM      9  C   UNL d   1     -41.171-121.019 -51.086  0.00  0.00     0.001 A 
ENDROOT
BRANCH   1  10
ATOM     10  N   UNL d   1     -41.764-122.209 -54.375  0.00  0.00    -0.201 NA
ATOM     11  C   UNL d   1     -42.225-121.736 -54.865  0.00  0.00     0.280 C 
ATOM     12  O   UNL d   1     -42.565-121.027 -54.571  0.00  0.00    -0.265 OA
ATOM     13  C   UNL d   1     -42.361-121.949 -55.650  0.00  0.00     0.068 C 
ENDBRANCH   1  10
BRANCH   2  14
ATOM     14  C   UNL d   1     -41.499-123.362 -53.066  0.00  0.00     0.299 C 
ATOM     15  O   UNL d   1     -41.897-123.817 -52.496  0.00  0.00    -0.264 OA
ATOM     16  N   UNL d   1     -41.125-123.725 -53.699  0.00  0.00    -0.102 N 
ENDBRANCH   2  14
TORSDOF 2
ENDMDL
MODEL 6
REMARK VINA RESULT:      -0.6      2.162      3.431
REMARK  2 active torsions:
REMARK  status: ('A' for Active; 'I' for Inactive)
REMARK    1  A    between atoms: N_6  and  C_1 
REMARK    2  A    between atoms: C_7  and  C_2 
REMARK       I    between atoms: C_8  and  N_6 
ROOT
ATOM      1  C   UNL d   1     -42.308-123.297 -49.174  0.00  0.00     0.119 A 
ATOM      2  C   UNL d   1     -42.852-123.064 -49.715  0.00  0.00     0.084 A 
ATOM      3  S   UNL d   1     -41.547-123.193 -49.504  0.00  0.00    -0.068 SA
ATOM      4  C   UNL d   1     -42.462-122.814 -50.379  0.00  0.00     0.013 A 
ATOM      5  C   UNL d   1     -41.645-122.895 -50.246  0.00  0.00     0.031 A 
ATOM      6  C   UNL d   1     -42.737-122.519 -51.098  0.00  0.00     0.001 A 
ATOM      7  C   UNL d   1     -41.123-122.675 -50.845  0.00  0.00     0.006 A 
ATOM      8  C   UNL d   1     -42.197-122.302 -51.691  0.00  0.00     0.000 A 
ATOM      9  C   UNL d   1     -41.411-122.385 -51.552  0.00  0.00     0.001 A 
ENDROOT
BRANCH   1  10
ATOM     10  N   UNL d   1     -42.490-123.599 -48.397  0.00  0.00    -0.201 NA
ATOM     11  C   UNL d   1     -41.964-123.520 -47.770  0.00  0.00     0.280 C 
ATOM     12  O   UNL d   1     -41.227-123.134 -47.881  0.00  0.00    -0.265 OA
ATOM     13  C   UNL d   1     -42.152-123.816 -47.023  0.00  0.00     0.068 C 
ENDBRANCH   1  10
BRANCH   2  14
ATOM     14  C   UNL d   1     -43.686-123.085 -49.588  0.00  0.00     0.299 C 
ATOM     15  O   UNL d   1     -44.077-123.809 -49.707  0.00  0.00    -0.264 OA
ATOM     16  N   UNL d   1     -44.107-122.421 -49.355  0.00  0.00    -0.102 N 
ENDBRANCH   2  14
TORSDOF 2
ENDMDL
MODEL 7
REMARK VINA RESULT:      -0.0      1.604      4.066
REMARK  2 active torsions:
REMARK  status: ('A' for Active; 'I' for Inactive)
REMARK    1  A    between atoms: N_6  and  C_1 
REMARK    2  A    between atoms: C_7  and  C_2 
REMARK       I    between atoms: C_8  and  N_6 
ROOT
ATOM      1  C   UNL d   1     -41.876-122.117 -53.003  0.00  0.00     0.119 A 
ATOM      2  C   UNL d   1     -41.797-122.635 -53.611  0.00  0.00     0.084 A 
ATOM      3  S   UNL d   1     -42.157-121.392 -53.308  0.00  0.00    -0.068 SA
ATOM      4  C   UNL d   1     -42.018-122.261 -54.294  0.00  0.00     0.013 A 
ATOM      5  C   UNL d   1     -42.243-121.484 -54.104  0.00  0.00     0.031 A 
ATOM      6  C   UNL d   1     -42.048-122.522 -55.076  0.00  0.00     0.001 A 
ATOM      7  C   UNL d   1     -42.494-120.985 -54.711  0.00  0.00     0.006 A 
ATOM      8  C   UNL d   1     -42.303-122.006 -55.675  0.00  0.00     0.000 A 
ATOM      9  C   UNL d   1     -42.518-121.258 -55.480  0.00  0.00     0.001 A 
ENDROOT
BRANCH   1  10
ATOM     10  N   UNL d   1     -41.700-122.293 -52.186  0.00  0.00    -0.201 NA
ATOM     11  C   UNL d   1     -41.550-121.696 -51.640  0.00  0.00     0.280 C 
ATOM     12  O   UNL d   1     -41.567-120.891 -51.876  0.00  0.00    -0.265 OA
ATOM     13  C   UNL d   1     -41.380-121.879 -50.853  0.00  0.00     0.068 C 
ENDBRANCH   1  10
BRANCH   2  14
ATOM     14  C   UNL d   1     -41.526-123.429 -53.525  0.00  0.00     0.299 C 
ATOM     15  O   UNL d   1     -41.681-123.815 -52.805  0.00  0.00    -0.264 OA
ATOM     16  N   UNL d   1     -41.123-123.817 -54.125  0.00  0.00    -0.102 N 
ENDBRANCH   2  14
TORSDOF 2
ENDMDL
