MODEL 1
REMARK VINA RESULT:      76.5      0.000      0.000
REMARK  5 active torsions:
REMARK  status: ('A' for Active; 'I' for Inactive)
REMARK    1  A    between atoms: N_7  and  C_1 
REMARK    2  A    between atoms: C_14  and  N_4 
REMARK    3  A    between atoms: S_5  and  N_8 
REMARK    4  A    between atoms: C_13  and  S_5 
REMARK       I    between atoms: C_9  and  N_7 
REMARK    5  A    between atoms: C_15  and  C_9 
ROOT
ATOM      1  N   UNL d   1     -49.879  27.080  33.521  0.00  0.00    -0.202 NA
ATOM      2  C   UNL d   1     -49.518  27.324  34.231  0.00  0.00     0.279 C 
ATOM      3  O   UNL d   1     -49.500  26.815  34.889  0.00  0.00    -0.265 OA
ENDROOT
BRANCH   2   4
ATOM      4  C   UNL d   1     -49.176  28.071  34.288  0.00  0.00     0.061 A 
ATOM      5  C   UNL d   1     -48.428  28.175  34.622  0.00  0.00     0.025 A 
ATOM      6  C   UNL d   1     -48.094  28.926  34.675  0.00  0.00     0.092 A 
ATOM      7  N   UNL d   1     -48.504  29.581  34.395  0.00  0.00    -0.229 N 
ATOM      8  C   UNL d   1     -49.261  29.490  34.056  0.00  0.00     0.092 A 
ATOM      9  C   UNL d   1     -49.593  28.742  34.003  0.00  0.00     0.025 A 
BRANCH   7  10
ATOM     10  S   UNL d   1     -48.161  30.342  34.451  0.00  0.00     0.271 S 
ATOM     11  O   UNL d   1     -47.453  30.004  34.714  0.00  0.00    -0.200 OA
ATOM     12  O   UNL d   1     -48.880  30.667  34.184  0.00  0.00    -0.200 OA
BRANCH  10  13
ATOM     13  C   UNL d   1     -47.830  31.095  34.503  0.00  0.00     0.104 A 
ATOM     14  C   UNL d   1     -47.303  31.275  35.112  0.00  0.00     0.013 A 
ATOM     15  C   UNL d   1     -46.971  32.028  35.165  0.00  0.00     0.001 A 
ATOM     16  C   UNL d   1     -47.169  32.606  34.605  0.00  0.00     0.000 A 
ATOM     17  C   UNL d   1     -47.698  32.427  33.993  0.00  0.00     0.001 A 
ATOM     18  C   UNL d   1     -48.030  31.666  33.943  0.00  0.00     0.013 A 
ENDBRANCH  10  13
ENDBRANCH   7  10
ENDBRANCH   2   4
BRANCH   1  19
ATOM     19  C   UNL d   1     -50.219  26.331  33.469  0.00  0.00     0.160 A 
ATOM     20  C   UNL d   1     -51.026  26.168  33.460  0.00  0.00     0.298 A 
ATOM     21  N   UNL d   1     -51.118  25.353  33.402  0.00  0.00    -0.209 N 
ATOM     22  O   UNL d   1     -51.629  26.724  33.502  0.00  0.00    -0.263 OA
ATOM     23  N   UNL d   1     -50.372  25.016  33.376  0.00  0.00    -0.238 N 
ATOM     24  C   UNL d   1     -49.814  25.618  33.417  0.00  0.00     0.104 A 
ATOM     25  C   UNL d   1     -50.209  24.211  33.318  0.00  0.00     0.120 C 
ATOM     26  C   UNL d   1     -48.995  25.524  33.407  0.00  0.00     0.022 C 
BRANCH  21  27
ATOM     27  C   UNL d   1     -51.838  24.952  33.376  0.00  0.00     0.085 A 
ATOM     28  C   UNL d   1     -51.836  24.131  33.349  0.00  0.00     0.019 A 
ATOM     29  C   UNL d   1     -52.552  23.723  33.323  0.00  0.00     0.002 A 
ATOM     30  C   UNL d   1     -53.267  24.143  33.324  0.00  0.00     0.000 A 
ATOM     31  C   UNL d   1     -53.261  24.971  33.351  0.00  0.00     0.002 A 
ATOM     32  C   UNL d   1     -52.546  25.374  33.377  0.00  0.00     0.019 A 
ENDBRANCH  21  27
ENDBRANCH   1  19
TORSDOF 5
ENDMDL
MODEL 2
REMARK VINA RESULT:      78.8      0.846      1.140
REMARK  5 active torsions:
REMARK  status: ('A' for Active; 'I' for Inactive)
REMARK    1  A    between atoms: N_7  and  C_1 
REMARK    2  A    between atoms: C_14  and  N_4 
REMARK    3  A    between atoms: S_5  and  N_8 
REMARK    4  A    between atoms: C_13  and  S_5 
REMARK       I    between atoms: C_9  and  N_7 
REMARK    5  A    between atoms: C_15  and  C_9 
ROOT
ATOM      1  N   UNL d   1     -50.198  26.296  33.729  0.00  0.00    -0.202 NA
ATOM      2  C   UNL d   1     -50.095  26.613  34.493  0.00  0.00     0.279 C 
ATOM      3  O   UNL d   1     -50.435  26.238  35.153  0.00  0.00    -0.265 OA
ENDROOT
BRANCH   2   4
ATOM      4  C   UNL d   1     -49.657  27.302  34.601  0.00  0.00     0.061 A 
ATOM      5  C   UNL d   1     -49.876  28.011  34.238  0.00  0.00     0.025 A 
ATOM      6  C   UNL d   1     -49.432  28.695  34.351  0.00  0.00     0.092 A 
ATOM      7  N   UNL d   1     -48.764  28.678  34.830  0.00  0.00    -0.229 N 
ATOM      8  C   UNL d   1     -48.532  27.970  35.203  0.00  0.00     0.092 A 
ATOM      9  C   UNL d   1     -48.974  27.288  35.089  0.00  0.00     0.025 A 
BRANCH   7  10
ATOM     10  S   UNL d   1     -48.315  29.376  34.943  0.00  0.00     0.271 S 
ATOM     11  O   UNL d   1     -48.357  29.270  35.763  0.00  0.00    -0.200 OA
ATOM     12  O   UNL d   1     -48.282  29.468  34.116  0.00  0.00    -0.200 OA
BRANCH  10  13
ATOM     13  C   UNL d   1     -47.873  30.064  35.046  0.00  0.00     0.104 A 
ATOM     14  C   UNL d   1     -47.240  30.074  35.576  0.00  0.00     0.013 A 
ATOM     15  C   UNL d   1     -46.797  30.761  35.680  0.00  0.00     0.001 A 
ATOM     16  C   UNL d   1     -46.988  31.444  35.251  0.00  0.00     0.000 A 
ATOM     17  C   UNL d   1     -47.624  31.436  34.719  0.00  0.00     0.001 A 
ATOM     18  C   UNL d   1     -48.068  30.739  34.617  0.00  0.00     0.013 A 
ENDBRANCH  10  13
ENDBRANCH   7  10
ENDBRANCH   2   4
BRANCH   1  19
ATOM     19  C   UNL d   1     -50.637  25.607  33.626  0.00  0.00     0.160 A 
ATOM     20  C   UNL d   1     -51.459  25.555  33.621  0.00  0.00     0.298 A 
ATOM     21  N   UNL d   1     -51.661  24.767  33.502  0.00  0.00    -0.209 N 
ATOM     22  O   UNL d   1     -51.981  26.181  33.719  0.00  0.00    -0.263 OA
ATOM     23  N   UNL d   1     -50.967  24.335  33.434  0.00  0.00    -0.238 N 
ATOM     24  C   UNL d   1     -50.333  24.852  33.510  0.00  0.00     0.104 A 
ATOM     25  C   UNL d   1     -50.916  23.523  33.310  0.00  0.00     0.120 C 
ATOM     26  C   UNL d   1     -49.534  24.650  33.476  0.00  0.00     0.022 C 
BRANCH  21  27
ATOM     27  C   UNL d   1     -52.428  24.470  33.460  0.00  0.00     0.085 A 
ATOM     28  C   UNL d   1     -52.538  23.661  33.362  0.00  0.00     0.019 A 
ATOM     29  C   UNL d   1     -53.304  23.357  33.319  0.00  0.00     0.002 A 
ATOM     30  C   UNL d   1     -53.955  23.867  33.374  0.00  0.00     0.000 A 
ATOM     31  C   UNL d   1     -53.836  24.681  33.472  0.00  0.00     0.002 A 
ATOM     32  C   UNL d   1     -53.073  24.981  33.515  0.00  0.00     0.019 A 
ENDBRANCH  21  27
ENDBRANCH   1  19
TORSDOF 5
ENDMDL
