MODEL 1
REMARK VINA RESULT:      12.1      0.000      0.000
REMARK  7 active torsions:
REMARK  status: ('A' for Active; 'I' for Inactive)
REMARK    1  A    between atoms: C_2  and  S_1 
REMARK    2  A    between atoms: N_6  and  S_1 
REMARK    3  A    between atoms: C_14  and  C_4 
REMARK    4  A    between atoms: O_15  and  C_5 
REMARK    5  A    between atoms: C_12  and  N_6 
REMARK    6  A    between atoms: C_13  and  C_12 
REMARK    7  A    between atoms: C_20  and  O_15 
ROOT
ATOM      1  C   UNL d   1      46.329 -18.194  43.479  0.00  0.00     0.128 A 
ATOM      2  C   UNL d   1      46.275 -18.109  42.659  0.00  0.00     0.015 A 
ATOM      3  C   UNL d   1      46.377 -18.761  42.169  0.00  0.00     0.001 A 
ATOM      4  C   UNL d   1      46.486 -18.936  43.804  0.00  0.00     0.112 A 
ATOM      5  C   UNL d   1      46.534 -19.503  42.495  0.00  0.00     0.002 A 
ATOM      6  C   UNL d   1      46.588 -19.588  43.314  0.00  0.00     0.025 A 
ATOM      7  C   UNL d   1      46.637 -20.159  42.003  0.00  0.00     0.000 C 
ENDROOT
BRANCH   1   8
ATOM      8  S   UNL d   1      46.226 -17.539  43.971  0.00  0.00     0.287 S 
ATOM      9  O   UNL d   1      46.637 -17.068  43.429  0.00  0.00    -0.198 OA
ATOM     10  O   UNL d   1      45.816 -18.010  44.512  0.00  0.00    -0.198 OA
BRANCH   8  11
ATOM     11  N   UNL d   1      46.124 -16.883  44.464  0.00  0.00    -0.155 NA
BRANCH  11  12
ATOM     12  C   UNL d   1      45.438 -16.428  44.408  0.00  0.00     0.131 C 
BRANCH  12  13
ATOM     13  C   UNL d   1      45.481 -15.605  44.476  0.00  0.00     0.101 A 
ATOM     14  N   UNL d   1      46.190 -15.222  44.318  0.00  0.00    -0.242 NA
ATOM     15  C   UNL d   1      46.240 -14.403  44.384  0.00  0.00     0.099 A 
ATOM     16  C   UNL d   1      45.566 -13.968  44.610  0.00  0.00     0.021 A 
ATOM     17  C   UNL d   1      44.857 -14.358  44.767  0.00  0.00     0.003 A 
ATOM     18  C   UNL d   1      44.814 -15.174  44.700  0.00  0.00     0.021 A 
ENDBRANCH  12  13
ENDBRANCH  11  12
ENDBRANCH   8  11
ENDBRANCH   1   8
BRANCH   4  19
ATOM     19  O   UNL d   1      46.541 -19.024  44.627  0.00  0.00    -0.304 OA
BRANCH  19  20
ATOM     20  C   UNL d   1      46.647 -19.774  44.955  0.00  0.00     0.123 C 
ATOM     21  C   UNL d   1      46.028 -20.330  44.932  0.00  0.00     0.029 C 
ENDBRANCH  19  20
ENDBRANCH   4  19
BRANCH   3  22
ATOM     22  C   UNL d   1      46.323 -18.676  41.350  0.00  0.00     0.000 C 
ATOM     23  C   UNL d   1      45.943 -18.017  41.031  0.00  0.00     0.000 C 
ATOM     24  C   UNL d   1      46.647 -19.250  40.852  0.00  0.00     0.000 C 
ENDBRANCH   3  22
TORSDOF 7
ENDMDL
