MODEL 1
REMARK VINA RESULT:      -4.4      0.000      0.000
REMARK  0 active torsions:
REMARK  status: ('A' for Active; 'I' for Inactive)
ROOT
ATOM      1  C   UNL d   1      56.301  -0.454  33.350  0.00  0.00     0.110 A 
ATOM      2  C   UNL d   1      56.093  -1.022  32.790  0.00  0.00     0.110 A 
ATOM      3  C   UNL d   1      56.875   0.119  33.176  0.00  0.00     0.207 A 
ATOM      4  C   UNL d   1      56.458  -1.017  32.055  0.00  0.00     0.207 A 
ATOM      5  C   UNL d   1      57.227   0.107  32.438  0.00  0.00     0.043 A 
ATOM      6  C   UNL d   1      57.019  -0.462  31.877  0.00  0.00     0.043 A 
ATOM      7  O   UNL d   1      57.081   0.682  33.730  0.00  0.00    -0.286 OA
ATOM      8  O   UNL d   1      56.253  -1.584  31.491  0.00  0.00    -0.286 OA
ATOM      9 CL   UNL d   1      55.526  -1.582  32.973  0.00  0.00    -0.078 Cl
ATOM     10 CL   UNL d   1      55.937  -0.453  34.091  0.00  0.00    -0.078 Cl
ATOM     11  C   UNL d   1      57.801   0.680  32.263  0.00  0.00     0.003 A 
ATOM     12  C   UNL d   1      57.397  -0.442  31.142  0.00  0.00     0.003 A 
ATOM     13  C   UNL d   1      58.166   0.682  31.525  0.00  0.00     0.000 A 
ATOM     14  C   UNL d   1      57.964   0.110  30.947  0.00  0.00     0.000 A 
ENDROOT
TORSDOF 0
ENDMDL
MODEL 2
REMARK VINA RESULT:      -3.4      1.783      2.744
REMARK  0 active torsions:
REMARK  status: ('A' for Active; 'I' for Inactive)
ROOT
ATOM      1  C   UNL d   1      57.475   0.679  33.016  0.00  0.00     0.110 A 
ATOM      2  C   UNL d   1      56.932   0.678  32.395  0.00  0.00     0.110 A 
ATOM      3  C   UNL d   1      57.214   0.680  33.803  0.00  0.00     0.207 A 
ATOM      4  C   UNL d   1      56.128   0.676  32.562  0.00  0.00     0.207 A 
ATOM      5  C   UNL d   1      56.410   0.678  33.948  0.00  0.00     0.043 A 
ATOM      6  C   UNL d   1      55.866   0.677  33.328  0.00  0.00     0.043 A 
ATOM      7  O   UNL d   1      57.752   0.681  34.417  0.00  0.00    -0.286 OA
ATOM      8  O   UNL d   1      55.581   0.675  31.944  0.00  0.00    -0.286 OA
ATOM      9 CL   UNL d   1      57.200   0.677  31.623  0.00  0.00    -0.078 Cl
ATOM     10 CL   UNL d   1      58.285   0.680  32.855  0.00  0.00    -0.078 Cl
ATOM     11  C   UNL d   1      56.149   0.679  34.736  0.00  0.00     0.003 A 
ATOM     12  C   UNL d   1      55.061   0.676  33.514  0.00  0.00     0.003 A 
ATOM     13  C   UNL d   1      55.342   0.678  34.900  0.00  0.00     0.000 A 
ATOM     14  C   UNL d   1      54.780   0.676  34.279  0.00  0.00     0.000 A 
ENDROOT
TORSDOF 0
ENDMDL
MODEL 3
REMARK VINA RESULT:      -3.0      9.603      9.861
REMARK  0 active torsions:
REMARK  status: ('A' for Active; 'I' for Inactive)
ROOT
ATOM      1  C   UNL d   1      59.128  -9.543  33.877  0.00  0.00     0.110 A 
ATOM      2  C   UNL d   1      59.797  -9.307  33.456  0.00  0.00     0.110 A 
ATOM      3  C   UNL d   1      59.118  -9.508  34.706  0.00  0.00     0.207 A 
ATOM      4  C   UNL d   1      60.456  -9.035  33.865  0.00  0.00     0.207 A 
ATOM      5  C   UNL d   1      59.784  -9.235  35.094  0.00  0.00     0.043 A 
ATOM      6  C   UNL d   1      60.453  -8.999  34.673  0.00  0.00     0.043 A 
ATOM      7  O   UNL d   1      58.456  -9.742  35.122  0.00  0.00    -0.286 OA
ATOM      8  O   UNL d   1      61.128  -8.798  33.448  0.00  0.00    -0.286 OA
ATOM      9 CL   UNL d   1      59.796  -9.345  32.640  0.00  0.00    -0.078 Cl
ATOM     10 CL   UNL d   1      58.463  -9.816  33.473  0.00  0.00    -0.078 Cl
ATOM     11  C   UNL d   1      59.774  -9.200  35.923  0.00  0.00     0.003 A 
ATOM     12  C   UNL d   1      61.107  -8.729  35.101  0.00  0.00     0.003 A 
ATOM     13  C   UNL d   1      60.436  -8.928  36.329  0.00  0.00     0.000 A 
ATOM     14  C   UNL d   1      61.122  -8.685  35.914  0.00  0.00     0.000 A 
ENDROOT
TORSDOF 0
ENDMDL
MODEL 4
REMARK VINA RESULT:      -2.6      2.674      3.287
REMARK  0 active torsions:
REMARK  status: ('A' for Active; 'I' for Inactive)
ROOT
ATOM      1  C   UNL d   1      59.311   0.663  30.488  0.00  0.00     0.110 A 
ATOM      2  C   UNL d   1      58.757   0.654  29.877  0.00  0.00     0.110 A 
ATOM      3  C   UNL d   1      59.064   0.672  31.280  0.00  0.00     0.207 A 
ATOM      4  C   UNL d   1      57.956   0.655  30.058  0.00  0.00     0.207 A 
ATOM      5  C   UNL d   1      58.262   0.672  31.439  0.00  0.00     0.043 A 
ATOM      6  C   UNL d   1      57.708   0.664  30.828  0.00  0.00     0.043 A 
ATOM      7  O   UNL d   1      59.613   0.681  31.884  0.00  0.00    -0.286 OA
ATOM      8  O   UNL d   1      57.398   0.646  29.450  0.00  0.00    -0.286 OA
ATOM      9 CL   UNL d   1      59.011   0.645  29.100  0.00  0.00    -0.078 Cl
ATOM     10 CL   UNL d   1      60.117   0.662  30.312  0.00  0.00    -0.078 Cl
ATOM     11  C   UNL d   1      58.016   0.682  32.231  0.00  0.00     0.003 A 
ATOM     12  C   UNL d   1      56.906   0.664  31.029  0.00  0.00     0.003 A 
ATOM     13  C   UNL d   1      57.212   0.682  32.409  0.00  0.00     0.000 A 
ATOM     14  C   UNL d   1      56.639   0.673  31.798  0.00  0.00     0.000 A 
ENDROOT
TORSDOF 0
ENDMDL
MODEL 5
REMARK VINA RESULT:      -2.6      3.572      4.554
REMARK  0 active torsions:
REMARK  status: ('A' for Active; 'I' for Inactive)
ROOT
ATOM      1  C   UNL d   1      59.172  -2.323  29.212  0.00  0.00     0.110 A 
ATOM      2  C   UNL d   1      59.867  -2.058  28.855  0.00  0.00     0.110 A 
ATOM      3  C   UNL d   1      58.627  -1.782  29.526  0.00  0.00     0.207 A 
ATOM      4  C   UNL d   1      60.017  -1.252  28.811  0.00  0.00     0.207 A 
ATOM      5  C   UNL d   1      58.795  -0.983  29.473  0.00  0.00     0.043 A 
ATOM      6  C   UNL d   1      59.490  -0.718  29.115  0.00  0.00     0.043 A 
ATOM      7  O   UNL d   1      57.940  -2.044  29.879  0.00  0.00    -0.286 OA
ATOM      8  O   UNL d   1      60.710  -0.982  28.455  0.00  0.00    -0.286 OA
ATOM      9 CL   UNL d   1      60.396  -2.600  28.549  0.00  0.00    -0.078 Cl
ATOM     10 CL   UNL d   1      59.016  -3.132  29.259  0.00  0.00    -0.078 Cl
ATOM     11  C   UNL d   1      58.250  -0.442  29.786  0.00  0.00     0.003 A 
ATOM     12  C   UNL d   1      59.624   0.097  29.080  0.00  0.00     0.003 A 
ATOM     13  C   UNL d   1      58.403   0.365  29.741  0.00  0.00     0.000 A 
ATOM     14  C   UNL d   1      59.105   0.648  29.381  0.00  0.00     0.000 A 
ENDROOT
TORSDOF 0
ENDMDL
MODEL 6
REMARK VINA RESULT:      -2.5      2.057      3.011
REMARK  0 active torsions:
REMARK  status: ('A' for Active; 'I' for Inactive)
ROOT
ATOM      1  C   UNL d   1      58.216   0.546  31.097  0.00  0.00     0.110 A 
ATOM      2  C   UNL d   1      58.691   0.593  31.769  0.00  0.00     0.110 A 
ATOM      3  C   UNL d   1      57.389   0.541  31.165  0.00  0.00     0.207 A 
ATOM      4  C   UNL d   1      58.340   0.635  32.510  0.00  0.00     0.207 A 
ATOM      5  C   UNL d   1      57.059   0.585  31.912  0.00  0.00     0.043 A 
ATOM      6  C   UNL d   1      57.534   0.631  32.585  0.00  0.00     0.043 A 
ATOM      7  O   UNL d   1      56.918   0.495  30.500  0.00  0.00    -0.286 OA
ATOM      8  O   UNL d   1      58.811   0.682  33.186  0.00  0.00    -0.286 OA
ATOM      9 CL   UNL d   1      59.504   0.596  31.690  0.00  0.00    -0.078 Cl
ATOM     10 CL   UNL d   1      58.562   0.503  30.349  0.00  0.00    -0.078 Cl
ATOM     11  C   UNL d   1      56.232   0.580  31.981  0.00  0.00     0.003 A 
ATOM     12  C   UNL d   1      57.163   0.673  33.322  0.00  0.00     0.003 A 
ATOM     13  C   UNL d   1      55.883   0.623  32.725  0.00  0.00     0.000 A 
ATOM     14  C   UNL d   1      56.354   0.671  33.416  0.00  0.00     0.000 A 
ENDROOT
TORSDOF 0
ENDMDL
MODEL 7
REMARK VINA RESULT:      -2.3      2.861      3.912
REMARK  0 active torsions:
REMARK  status: ('A' for Active; 'I' for Inactive)
ROOT
ATOM      1  C   UNL d   1      58.034  -0.681  30.358  0.00  0.00     0.110 A 
ATOM      2  C   UNL d   1      58.488   0.002  30.265  0.00  0.00     0.110 A 
ATOM      3  C   UNL d   1      58.233  -1.377  29.954  0.00  0.00     0.207 A 
ATOM      4  C   UNL d   1      59.141  -0.012  29.766  0.00  0.00     0.207 A 
ATOM      5  C   UNL d   1      58.886  -1.371  29.462  0.00  0.00     0.043 A 
ATOM      6  C   UNL d   1      59.340  -0.688  29.369  0.00  0.00     0.043 A 
ATOM      7  O   UNL d   1      57.784  -2.052  30.046  0.00  0.00    -0.286 OA
ATOM      8  O   UNL d   1      59.598   0.668  29.670  0.00  0.00    -0.286 OA
ATOM      9 CL   UNL d   1      58.283   0.682  30.668  0.00  0.00    -0.078 Cl
ATOM     10 CL   UNL d   1      57.377  -0.673  30.858  0.00  0.00    -0.078 Cl
ATOM     11  C   UNL d   1      59.085  -2.067  29.058  0.00  0.00     0.003 A 
ATOM     12  C   UNL d   1      59.994  -0.721  28.863  0.00  0.00     0.003 A 
ATOM     13  C   UNL d   1      59.740  -2.078  28.559  0.00  0.00     0.000 A 
ATOM     14  C   UNL d   1      60.210  -1.392  28.455  0.00  0.00     0.000 A 
ENDROOT
TORSDOF 0
ENDMDL
MODEL 8
REMARK VINA RESULT:      -2.3      9.647      9.923
REMARK  0 active torsions:
REMARK  status: ('A' for Active; 'I' for Inactive)
ROOT
ATOM      1  C   UNL d   1      58.022  -9.805  31.332  0.00  0.00     0.110 A 
ATOM      2  C   UNL d   1      58.684  -9.810  30.840  0.00  0.00     0.110 A 
ATOM      3  C   UNL d   1      58.110  -9.800  32.157  0.00  0.00     0.207 A 
ATOM      4  C   UNL d   1      59.434  -9.811  31.173  0.00  0.00     0.207 A 
ATOM      5  C   UNL d   1      58.867  -9.801  32.469  0.00  0.00     0.043 A 
ATOM      6  C   UNL d   1      59.529  -9.807  31.976  0.00  0.00     0.043 A 
ATOM      7  O   UNL d   1      57.456  -9.795  32.644  0.00  0.00    -0.286 OA
ATOM      8  O   UNL d   1      60.099  -9.817  30.684  0.00  0.00    -0.286 OA
ATOM      9 CL   UNL d   1      58.584  -9.815  30.029  0.00  0.00    -0.078 Cl
ATOM     10 CL   UNL d   1      57.264  -9.804  31.005  0.00  0.00    -0.078 Cl
ATOM     11  C   UNL d   1      58.956  -9.797  33.294  0.00  0.00     0.003 A 
ATOM     12  C   UNL d   1      60.277  -9.808  32.328  0.00  0.00     0.003 A 
ATOM     13  C   UNL d   1      59.710  -9.798  33.624  0.00  0.00     0.000 A 
ATOM     14  C   UNL d   1      60.390  -9.803  33.135  0.00  0.00     0.000 A 
ENDROOT
TORSDOF 0
ENDMDL
MODEL 9
REMARK VINA RESULT:      -1.9      2.873      3.940
REMARK  0 active torsions:
REMARK  status: ('A' for Active; 'I' for Inactive)
ROOT
ATOM      1  C   UNL d   1      58.187   0.458  30.211  0.00  0.00     0.110 A 
ATOM      2  C   UNL d   1      58.694   0.564  30.853  0.00  0.00     0.110 A 
ATOM      3  C   UNL d   1      58.491   0.363  29.445  0.00  0.00     0.207 A 
ATOM      4  C   UNL d   1      59.506   0.573  30.729  0.00  0.00     0.207 A 
ATOM      5  C   UNL d   1      59.303   0.376  29.343  0.00  0.00     0.043 A 
ATOM      6  C   UNL d   1      59.810   0.481  29.985  0.00  0.00     0.043 A 
ATOM      7  O   UNL d   1      57.990   0.259  28.810  0.00  0.00    -0.286 OA
ATOM      8  O   UNL d   1      60.018   0.678  31.368  0.00  0.00    -0.286 OA
ATOM      9 CL   UNL d   1      58.384   0.657  31.602  0.00  0.00    -0.078 Cl
ATOM     10 CL   UNL d   1      57.370   0.448  30.328  0.00  0.00    -0.078 Cl
ATOM     11  C   UNL d   1      59.607   0.280  28.577  0.00  0.00     0.003 A 
ATOM     12  C   UNL d   1      60.624   0.488  29.841  0.00  0.00     0.003 A 
ATOM     13  C   UNL d   1      60.421   0.290  28.456  0.00  0.00     0.000 A 
ATOM     14  C   UNL d   1      60.948   0.396  29.099  0.00  0.00     0.000 A 
ENDROOT
TORSDOF 0
ENDMDL
