MODEL 1
REMARK VINA RESULT:      -7.1      0.000      0.000
REMARK  7 active torsions:
REMARK  status: ('A' for Active; 'I' for Inactive)
REMARK    1  A    between atoms: N_2  and  S_1 
REMARK    2  A    between atoms: C_6  and  S_1 
REMARK    3  A    between atoms: C_16  and  C_3 
REMARK       I    between atoms: C_4  and  N_10 
REMARK    4  A    between atoms: C_5  and  C_4 
REMARK       I    between atoms: N_11  and  C_5 
REMARK    5  A    between atoms: N_10  and  C_16 
REMARK    6  A    between atoms: C_26  and  N_11 
REMARK    7  A    between atoms: C_25  and  C_26 
ROOT
ATOM      1  C   UNL d   1     -42.923  12.956  21.131  0.00  0.00     0.337 C 
ATOM      2  N   UNL d   1     -42.257  13.339  21.413  0.00  0.00    -0.199 NA
ATOM      3  O   UNL d   1     -43.060  12.890  20.322  0.00  0.00    -0.260 OA
ENDROOT
BRANCH   2   4
ATOM      4  C   UNL d   1     -41.718  13.661  20.883  0.00  0.00     0.146 C 
BRANCH   4   5
ATOM      5  C   UNL d   1     -40.970  13.896  21.137  0.00  0.00     0.197 A 
ATOM      6  N   UNL d   1     -40.428  14.322  20.699  0.00  0.00    -0.207 N 
ATOM      7  C   UNL d   1     -39.759  14.431  21.173  0.00  0.00     0.120 A 
ATOM      8  C   UNL d   1     -39.893  14.068  21.907  0.00  0.00     0.144 A 
ATOM      9  O   UNL d   1     -40.656  13.733  21.880  0.00  0.00    -0.285 OA
BRANCH   6  10
ATOM     10  S   UNL d   1     -40.525  14.594  19.932  0.00  0.00     0.273 S 
ATOM     11  O   UNL d   1     -40.875  15.277  20.217  0.00  0.00    -0.200 OA
ATOM     12  O   UNL d   1     -40.175  13.910  19.646  0.00  0.00    -0.200 OA
BRANCH  10  13
ATOM     13  C   UNL d   1     -40.621  14.865  19.164  0.00  0.00     0.104 A 
ATOM     14  C   UNL d   1     -40.521  14.340  18.522  0.00  0.00     0.013 A 
ATOM     15  C   UNL d   1     -40.618  14.611  17.754  0.00  0.00     0.007 A 
ATOM     16  C   UNL d   1     -40.815  15.408  17.614  0.00  0.00     0.035 A 
ATOM     17  C   UNL d   1     -40.913  15.922  18.253  0.00  0.00     0.007 A 
ATOM     18 BR   UNL d   1     -40.912  15.683  16.846  0.00  0.00    -0.049 Br
ATOM     19  C   UNL d   1     -40.816  15.651  19.021  0.00  0.00     0.013 A 
ENDBRANCH  10  13
ENDBRANCH   6  10
ENDBRANCH   4   5
ENDBRANCH   2   4
BRANCH   1  20
ATOM     20  C   UNL d   1     -43.463  12.634  21.661  0.00  0.00     0.337 C 
ATOM     21  N   UNL d   1     -44.182  13.011  21.776  0.00  0.00    -0.202 NA
ATOM     22  O   UNL d   1     -43.279  11.945  22.066  0.00  0.00    -0.260 OA
BRANCH  21  23
ATOM     23  C   UNL d   1     -44.733  12.687  22.312  0.00  0.00     0.102 C 
BRANCH  23  24
ATOM     24  C   UNL d   1     -45.448  13.075  22.457  0.00  0.00     0.021 A 
ATOM     25  C   UNL d   1     -46.130  12.631  22.565  0.00  0.00     0.028 A 
ATOM     26  C   UNL d   1     -46.848  13.023  22.710  0.00  0.00     0.119 A 
ATOM     27  O   UNL d   1     -47.609  12.729  22.838  0.00  0.00    -0.300 OA
ATOM     28  C   UNL d   1     -46.877  13.849  22.746  0.00  0.00     0.119 A 
ATOM     29  C   UNL d   1     -48.114  13.388  22.954  0.00  0.00     0.304 A 
ATOM     30  O   UNL d   1     -47.647  14.065  22.895  0.00  0.00    -0.300 OA
ATOM     31  C   UNL d   1     -46.183  14.280  22.636  0.00  0.00     0.026 A 
ATOM     32  C   UNL d   1     -45.471  13.900  22.492  0.00  0.00     0.004 A 
ENDBRANCH  23  24
ENDBRANCH  21  23
ENDBRANCH   1  20
TORSDOF 7
ENDMDL
MODEL 2
REMARK VINA RESULT:      -6.7      2.449      6.528
REMARK  7 active torsions:
REMARK  status: ('A' for Active; 'I' for Inactive)
REMARK    1  A    between atoms: N_2  and  S_1 
REMARK    2  A    between atoms: C_6  and  S_1 
REMARK    3  A    between atoms: C_16  and  C_3 
REMARK       I    between atoms: C_4  and  N_10 
REMARK    4  A    between atoms: C_5  and  C_4 
REMARK       I    between atoms: N_11  and  C_5 
REMARK    5  A    between atoms: N_10  and  C_16 
REMARK    6  A    between atoms: C_26  and  N_11 
REMARK    7  A    between atoms: C_25  and  C_26 
ROOT
ATOM      1  C   UNL d   1     -44.031  13.098  21.834  0.00  0.00     0.337 C 
ATOM      2  N   UNL d   1     -44.496  12.512  22.164  0.00  0.00    -0.199 NA
ATOM      3  O   UNL d   1     -44.298  13.877  21.800  0.00  0.00    -0.260 OA
ENDROOT
BRANCH   2   4
ATOM      4  C   UNL d   1     -45.237  12.700  22.466  0.00  0.00     0.146 C 
BRANCH   4   5
ATOM      5  C   UNL d   1     -45.646  12.162  22.938  0.00  0.00     0.197 A 
ATOM      6  N   UNL d   1     -46.431  12.218  23.156  0.00  0.00    -0.207 N 
ATOM      7  C   UNL d   1     -46.604  11.560  23.627  0.00  0.00     0.120 A 
ATOM      8  C   UNL d   1     -45.918  11.099  23.697  0.00  0.00     0.144 A 
ATOM      9  O   UNL d   1     -45.318  11.481  23.262  0.00  0.00    -0.285 OA
BRANCH   6  10
ATOM     10  S   UNL d   1     -46.954  12.813  22.949  0.00  0.00     0.273 S 
ATOM     11  O   UNL d   1     -46.776  13.213  23.641  0.00  0.00    -0.200 OA
ATOM     12  O   UNL d   1     -47.133  12.415  22.255  0.00  0.00    -0.200 OA
BRANCH  10  13
ATOM     13  C   UNL d   1     -47.479  13.409  22.741  0.00  0.00     0.104 A 
ATOM     14  C   UNL d   1     -48.094  13.251  22.198  0.00  0.00     0.013 A 
ATOM     15  C   UNL d   1     -48.618  13.847  21.990  0.00  0.00     0.007 A 
ATOM     16  C   UNL d   1     -48.537  14.607  22.319  0.00  0.00     0.035 A 
ATOM     17  C   UNL d   1     -47.927  14.757  22.855  0.00  0.00     0.007 A 
ATOM     18 BR   UNL d   1     -49.061  15.207  22.113  0.00  0.00    -0.049 Br
ATOM     19  C   UNL d   1     -47.403  14.162  23.063  0.00  0.00     0.013 A 
ENDBRANCH  10  13
ENDBRANCH   6  10
ENDBRANCH   4   5
ENDBRANCH   2   4
BRANCH   1  20
ATOM     20  C   UNL d   1     -43.290  12.910  21.532  0.00  0.00     0.337 C 
ATOM     21  N   UNL d   1     -42.775  13.517  21.336  0.00  0.00    -0.202 NA
ATOM     22  O   UNL d   1     -43.075  12.125  21.430  0.00  0.00    -0.260 OA
BRANCH  21  23
ATOM     23  C   UNL d   1     -42.022  13.331  21.029  0.00  0.00     0.102 C 
BRANCH  23  24
ATOM     24  C   UNL d   1     -41.511  13.934  20.789  0.00  0.00     0.021 A 
ATOM     25  C   UNL d   1     -41.383  14.056  19.987  0.00  0.00     0.028 A 
ATOM     26  C   UNL d   1     -40.869  14.663  19.747  0.00  0.00     0.119 A 
ATOM     27  O   UNL d   1     -40.637  14.911  18.995  0.00  0.00    -0.300 OA
ATOM     28  C   UNL d   1     -40.490  15.139  20.308  0.00  0.00     0.119 A 
ATOM     29  C   UNL d   1     -40.106  15.552  19.096  0.00  0.00     0.304 A 
ATOM     30  O   UNL d   1     -40.029  15.677  19.908  0.00  0.00    -0.300 OA
ATOM     31  C   UNL d   1     -40.630  15.004  21.110  0.00  0.00     0.026 A 
ATOM     32  C   UNL d   1     -41.136  14.407  21.352  0.00  0.00     0.004 A 
ENDBRANCH  23  24
ENDBRANCH  21  23
ENDBRANCH   1  20
TORSDOF 7
ENDMDL
MODEL 3
REMARK VINA RESULT:      -4.9      2.688      6.729
REMARK  7 active torsions:
REMARK  status: ('A' for Active; 'I' for Inactive)
REMARK    1  A    between atoms: N_2  and  S_1 
REMARK    2  A    between atoms: C_6  and  S_1 
REMARK    3  A    between atoms: C_16  and  C_3 
REMARK       I    between atoms: C_4  and  N_10 
REMARK    4  A    between atoms: C_5  and  C_4 
REMARK       I    between atoms: N_11  and  C_5 
REMARK    5  A    between atoms: N_10  and  C_16 
REMARK    6  A    between atoms: C_26  and  N_11 
REMARK    7  A    between atoms: C_25  and  C_26 
ROOT
ATOM      1  C   UNL d   1     -44.294  12.766  21.602  0.00  0.00     0.337 C 
ATOM      2  N   UNL d   1     -44.674  13.176  22.199  0.00  0.00    -0.199 NA
ATOM      3  O   UNL d   1     -44.722  12.421  20.989  0.00  0.00    -0.260 OA
ENDROOT
BRANCH   2   4
ATOM      4  C   UNL d   1     -45.493  13.247  22.187  0.00  0.00     0.146 C 
BRANCH   4   5
ATOM      5  C   UNL d   1     -45.857  13.938  22.448  0.00  0.00     0.197 A 
ATOM      6  N   UNL d   1     -46.610  13.994  22.758  0.00  0.00    -0.207 N 
ATOM      7  C   UNL d   1     -46.743  14.790  22.943  0.00  0.00     0.120 A 
ATOM      8  C   UNL d   1     -46.065  15.224  22.743  0.00  0.00     0.144 A 
ATOM      9  O   UNL d   1     -45.510  14.684  22.432  0.00  0.00    -0.285 OA
BRANCH   6  10
ATOM     10  S   UNL d   1     -47.140  13.379  22.869  0.00  0.00     0.273 S 
ATOM     11  O   UNL d   1     -46.820  13.234  23.609  0.00  0.00    -0.200 OA
ATOM     12  O   UNL d   1     -47.461  13.523  22.129  0.00  0.00    -0.200 OA
BRANCH  10  13
ATOM     13  C   UNL d   1     -47.671  12.763  22.979  0.00  0.00     0.104 A 
ATOM     14  C   UNL d   1     -48.336  12.693  22.479  0.00  0.00     0.013 A 
ATOM     15  C   UNL d   1     -48.867  12.078  22.589  0.00  0.00     0.007 A 
ATOM     16  C   UNL d   1     -48.743  11.523  23.197  0.00  0.00     0.035 A 
ATOM     17  C   UNL d   1     -48.083  11.597  23.688  0.00  0.00     0.007 A 
ATOM     18 BR   UNL d   1     -49.273  10.905  23.310  0.00  0.00    -0.049 Br
ATOM     19  C   UNL d   1     -47.552  12.213  23.578  0.00  0.00     0.013 A 
ENDBRANCH  10  13
ENDBRANCH   6  10
ENDBRANCH   4   5
ENDBRANCH   2   4
BRANCH   1  20
ATOM     20  C   UNL d   1     -43.475  12.695  21.614  0.00  0.00     0.337 C 
ATOM     21  N   UNL d   1     -43.021  13.269  21.243  0.00  0.00    -0.202 NA
ATOM     22  O   UNL d   1     -43.122  12.058  21.992  0.00  0.00    -0.260 OA
BRANCH  21  23
ATOM     23  C   UNL d   1     -42.189  13.201  21.252  0.00  0.00     0.102 C 
BRANCH  23  24
ATOM     24  C   UNL d   1     -41.722  13.781  20.894  0.00  0.00     0.021 A 
ATOM     25  C   UNL d   1     -41.434  13.653  20.136  0.00  0.00     0.028 A 
ATOM     26  C   UNL d   1     -40.964  14.237  19.778  0.00  0.00     0.119 A 
ATOM     27  O   UNL d   1     -40.604  14.263  19.036  0.00  0.00    -0.300 OA
ATOM     28  C   UNL d   1     -40.788  14.939  20.179  0.00  0.00     0.119 A 
ATOM     29  C   UNL d   1     -40.199  14.995  18.981  0.00  0.00     0.304 A 
ATOM     30  O   UNL d   1     -40.324  15.395  19.691  0.00  0.00    -0.300 OA
ATOM     31  C   UNL d   1     -41.085  15.053  20.940  0.00  0.00     0.026 A 
ATOM     32  C   UNL d   1     -41.549  14.480  21.298  0.00  0.00     0.004 A 
ENDBRANCH  23  24
ENDBRANCH  21  23
ENDBRANCH   1  20
TORSDOF 7
ENDMDL
MODEL 4
REMARK VINA RESULT:      -4.6      2.749      6.722
REMARK  7 active torsions:
REMARK  status: ('A' for Active; 'I' for Inactive)
REMARK    1  A    between atoms: N_2  and  S_1 
REMARK    2  A    between atoms: C_6  and  S_1 
REMARK    3  A    between atoms: C_16  and  C_3 
REMARK       I    between atoms: C_4  and  N_10 
REMARK    4  A    between atoms: C_5  and  C_4 
REMARK       I    between atoms: N_11  and  C_5 
REMARK    5  A    between atoms: N_10  and  C_16 
REMARK    6  A    between atoms: C_26  and  N_11 
REMARK    7  A    between atoms: C_25  and  C_26 
ROOT
ATOM      1  C   UNL d   1     -44.337  12.679  21.659  0.00  0.00     0.337 C 
ATOM      2  N   UNL d   1     -44.703  13.157  22.213  0.00  0.00    -0.199 NA
ATOM      3  O   UNL d   1     -44.779  12.280  21.090  0.00  0.00    -0.260 OA
ENDROOT
BRANCH   2   4
ATOM      4  C   UNL d   1     -45.521  13.240  22.204  0.00  0.00     0.146 C 
BRANCH   4   5
ATOM      5  C   UNL d   1     -45.874  13.941  22.454  0.00  0.00     0.197 A 
ATOM      6  N   UNL d   1     -46.617  14.011  22.784  0.00  0.00    -0.207 N 
ATOM      7  C   UNL d   1     -46.741  14.812  22.949  0.00  0.00     0.120 A 
ATOM      8  C   UNL d   1     -46.065  15.235  22.718  0.00  0.00     0.144 A 
ATOM      9  O   UNL d   1     -45.523  14.684  22.407  0.00  0.00    -0.285 OA
BRANCH   6  10
ATOM     10  S   UNL d   1     -47.147  13.402  22.927  0.00  0.00     0.273 S 
ATOM     11  O   UNL d   1     -47.491  13.528  22.194  0.00  0.00    -0.200 OA
ATOM     12  O   UNL d   1     -46.804  13.276  23.660  0.00  0.00    -0.200 OA
BRANCH  10  13
ATOM     13  C   UNL d   1     -47.678  12.794  23.071  0.00  0.00     0.104 A 
ATOM     14  C   UNL d   1     -47.451  12.149  23.552  0.00  0.00     0.013 A 
ATOM     15  C   UNL d   1     -47.982  11.541  23.696  0.00  0.00     0.007 A 
ATOM     16  C   UNL d   1     -48.745  11.564  23.364  0.00  0.00     0.035 A 
ATOM     17  C   UNL d   1     -48.963  12.204  22.889  0.00  0.00     0.007 A 
ATOM     18 BR   UNL d   1     -49.279  10.956  23.506  0.00  0.00    -0.049 Br
ATOM     19  C   UNL d   1     -48.433  12.813  22.745  0.00  0.00     0.013 A 
ENDBRANCH  10  13
ENDBRANCH   6  10
ENDBRANCH   4   5
ENDBRANCH   2   4
BRANCH   1  20
ATOM     20  C   UNL d   1     -43.519  12.596  21.668  0.00  0.00     0.337 C 
ATOM     21  N   UNL d   1     -43.057  13.168  21.305  0.00  0.00    -0.202 NA
ATOM     22  O   UNL d   1     -43.176  11.949  22.037  0.00  0.00    -0.260 OA
BRANCH  21  23
ATOM     23  C   UNL d   1     -42.227  13.088  21.311  0.00  0.00     0.102 C 
BRANCH  23  24
ATOM     24  C   UNL d   1     -41.751  13.667  20.963  0.00  0.00     0.021 A 
ATOM     25  C   UNL d   1     -41.296  14.154  21.442  0.00  0.00     0.028 A 
ATOM     26  C   UNL d   1     -40.818  14.735  21.090  0.00  0.00     0.119 A 
ATOM     27  O   UNL d   1     -40.311  15.294  21.423  0.00  0.00    -0.300 OA
ATOM     28  C   UNL d   1     -40.801  14.824  20.267  0.00  0.00     0.119 A 
ATOM     29  C   UNL d   1     -39.976  15.734  20.793  0.00  0.00     0.304 A 
ATOM     30  O   UNL d   1     -40.289  15.431  20.092  0.00  0.00    -0.300 OA
ATOM     31  C   UNL d   1     -41.264  14.326  19.800  0.00  0.00     0.026 A 
ATOM     32  C   UNL d   1     -41.738  13.751  20.142  0.00  0.00     0.004 A 
ENDBRANCH  23  24
ENDBRANCH  21  23
ENDBRANCH   1  20
TORSDOF 7
ENDMDL
MODEL 5
REMARK VINA RESULT:      -4.2      2.807      6.568
REMARK  7 active torsions:
REMARK  status: ('A' for Active; 'I' for Inactive)
REMARK    1  A    between atoms: N_2  and  S_1 
REMARK    2  A    between atoms: C_6  and  S_1 
REMARK    3  A    between atoms: C_16  and  C_3 
REMARK       I    between atoms: C_4  and  N_10 
REMARK    4  A    between atoms: C_5  and  C_4 
REMARK       I    between atoms: N_11  and  C_5 
REMARK    5  A    between atoms: N_10  and  C_16 
REMARK    6  A    between atoms: C_26  and  N_11 
REMARK    7  A    between atoms: C_25  and  C_26 
ROOT
ATOM      1  C   UNL d   1     -43.655  12.796  21.516  0.00  0.00     0.337 C 
ATOM      2  N   UNL d   1     -43.656  12.129  21.989  0.00  0.00    -0.199 NA
ATOM      3  O   UNL d   1     -44.273  13.340  21.554  0.00  0.00    -0.260 OA
ENDROOT
BRANCH   2   4
ATOM      4  C   UNL d   1     -44.280  11.998  22.508  0.00  0.00     0.146 C 
BRANCH   4   5
ATOM      5  C   UNL d   1     -44.319  11.304  22.950  0.00  0.00     0.197 A 
ATOM      6  N   UNL d   1     -44.983  11.010  23.323  0.00  0.00    -0.207 N 
ATOM      7  C   UNL d   1     -44.766  10.305  23.698  0.00  0.00     0.120 A 
ATOM      8  C   UNL d   1     -43.961  10.167  23.552  0.00  0.00     0.144 A 
ATOM      9  O   UNL d   1     -43.684  10.797  23.082  0.00  0.00    -0.285 OA
BRANCH   6  10
ATOM     10  S   UNL d   1     -45.730  11.348  23.328  0.00  0.00     0.273 S 
ATOM     11  O   UNL d   1     -46.060  10.625  23.129  0.00  0.00    -0.200 OA
ATOM     12  O   UNL d   1     -45.401  12.072  23.527  0.00  0.00    -0.200 OA
BRANCH  10  13
ATOM     13  C   UNL d   1     -46.476  11.687  23.333  0.00  0.00     0.104 A 
ATOM     14  C   UNL d   1     -46.589  12.443  23.671  0.00  0.00     0.013 A 
ATOM     15  C   UNL d   1     -47.335  12.781  23.676  0.00  0.00     0.007 A 
ATOM     16  C   UNL d   1     -47.981  12.373  23.346  0.00  0.00     0.035 A 
ATOM     17  C   UNL d   1     -47.864  11.626  23.013  0.00  0.00     0.007 A 
ATOM     18 BR   UNL d   1     -48.731  12.710  23.349  0.00  0.00    -0.049 Br
ATOM     19  C   UNL d   1     -47.118  11.287  23.008  0.00  0.00     0.013 A 
ENDBRANCH  10  13
ENDBRANCH   6  10
ENDBRANCH   4   5
ENDBRANCH   2   4
BRANCH   1  20
ATOM     20  C   UNL d   1     -43.031  12.927  20.997  0.00  0.00     0.337 C 
ATOM     21  N   UNL d   1     -42.402  13.393  21.241  0.00  0.00    -0.202 NA
ATOM     22  O   UNL d   1     -43.044  12.594  20.248  0.00  0.00    -0.260 OA
BRANCH  21  23
ATOM     23  C   UNL d   1     -41.767  13.529  20.718  0.00  0.00     0.102 C 
BRANCH  23  24
ATOM     24  C   UNL d   1     -41.162  14.053  20.926  0.00  0.00     0.021 A 
ATOM     25  C   UNL d   1     -40.642  13.847  21.527  0.00  0.00     0.028 A 
ATOM     26  C   UNL d   1     -40.035  14.376  21.734  0.00  0.00     0.119 A 
ATOM     27  O   UNL d   1     -39.441  14.321  22.304  0.00  0.00    -0.300 OA
ATOM     28  C   UNL d   1     -39.955  15.099  21.341  0.00  0.00     0.119 A 
ATOM     29  C   UNL d   1     -38.988  15.025  22.260  0.00  0.00     0.304 A 
ATOM     30  O   UNL d   1     -39.319  15.489  21.664  0.00  0.00    -0.300 OA
ATOM     31  C   UNL d   1     -40.486  15.291  20.739  0.00  0.00     0.026 A 
ATOM     32  C   UNL d   1     -41.087  14.774  20.530  0.00  0.00     0.004 A 
ENDBRANCH  23  24
ENDBRANCH  21  23
ENDBRANCH   1  20
TORSDOF 7
ENDMDL
