MODEL 1
REMARK VINA RESULT:      76.5      0.000      0.000
REMARK  5 active torsions:
REMARK  status: ('A' for Active; 'I' for Inactive)
REMARK    1  A    between atoms: C_3  and  C_1 
REMARK    2  A    between atoms: N_2  and  C_11 
REMARK    3  A    between atoms: N_6  and  C_3 
REMARK    4  A    between atoms: C_14  and  C_5 
REMARK    5  A    between atoms: C_10  and  N_7 
ROOT
ATOM      1  C   UNL d   1     -48.929  25.526  33.641  0.00  0.00     0.143 C 
ATOM      2  S   UNL d   1     -48.300  25.040  33.484  0.00  0.00    -0.057 SA
ENDROOT
BRANCH   1   3
ATOM      3  C   UNL d   1     -48.825  26.304  33.817  0.00  0.00     0.126 A 
ATOM      4  O   UNL d   1     -48.485  26.665  34.481  0.00  0.00    -0.305 OA
ATOM      5  C   UNL d   1     -48.528  27.486  34.363  0.00  0.00     0.100 A 
ATOM      6  C   UNL d   1     -48.875  27.619  33.664  0.00  0.00     0.027 A 
ATOM      7  C   UNL d   1     -49.068  26.895  33.307  0.00  0.00     0.029 A 
BRANCH   5   8
ATOM      8  C   UNL d   1     -48.287  28.109  34.819  0.00  0.00     0.023 A 
ATOM      9  C   UNL d   1     -48.797  28.447  35.384  0.00  0.00     0.004 A 
ATOM     10  C   UNL d   1     -48.537  29.084  35.844  0.00  0.00     0.024 A 
ATOM     11  C   UNL d   1     -47.777  29.395  35.753  0.00  0.00     0.127 A 
ATOM     12  C   UNL d   1     -47.273  29.043  35.177  0.00  0.00     0.024 A 
ATOM     13  C   UNL d   1     -47.526  28.420  34.728  0.00  0.00     0.004 A 
BRANCH  11  14
ATOM     14  N   UNL d   1     -47.536  30.018  36.209  0.00  0.00    -0.114 N 
ATOM     15  O   UNL d   1     -47.071  30.655  35.936  0.00  0.00    -0.532 OA
ATOM     16  O   UNL d   1     -47.716  30.110  37.003  0.00  0.00    -0.532 OA
ENDBRANCH  11  14
ENDBRANCH   5   8
ENDBRANCH   1   3
BRANCH   1  17
ATOM     17  N   UNL d   1     -49.722  25.214  33.621  0.00  0.00    -0.291 N 
ATOM     18  C   UNL d   1     -49.857  24.447  33.329  0.00  0.00     0.100 A 
ATOM     19  C   UNL d   1     -50.619  24.138  33.306  0.00  0.00     0.100 A 
ATOM     20  N   UNL d   1     -51.252  24.600  33.576  0.00  0.00    -0.301 N 
ATOM     21  C   UNL d   1     -51.117  25.346  33.859  0.00  0.00     0.100 A 
ATOM     22  C   UNL d   1     -50.351  25.655  33.882  0.00  0.00     0.100 A 
BRANCH  20  23
ATOM     23  C   UNL d   1     -52.015  24.290  33.552  0.00  0.00     0.064 A 
ATOM     24  C   UNL d   1     -52.633  24.828  33.423  0.00  0.00     0.016 A 
ATOM     25  C   UNL d   1     -52.507  25.643  33.320  0.00  0.00     0.002 C 
ATOM     26  C   UNL d   1     -53.401  24.540  33.395  0.00  0.00     0.001 A 
ATOM     27  C   UNL d   1     -53.554  23.724  33.496  0.00  0.00     0.000 A 
ATOM     28  C   UNL d   1     -52.936  23.214  33.622  0.00  0.00     0.002 A 
ATOM     29  C   UNL d   1     -52.168  23.496  33.650  0.00  0.00     0.018 A 
ENDBRANCH  20  23
ENDBRANCH   1  17
TORSDOF 5
ENDMDL
