MODEL 1
REMARK VINA RESULT:      37.1      0.000      0.000
REMARK  2 active torsions:
REMARK  status: ('A' for Active; 'I' for Inactive)
REMARK    1  A    between atoms: N_3  and  C_1 
REMARK    2  A    between atoms: C_13  and  N_6 
ROOT
ATOM      1  C   UNL d   1     -51.344  26.157  33.477  0.00  0.00     0.143 A 
ATOM      2  C   UNL d   1     -52.119  25.853  33.421  0.00  0.00     0.297 A 
ATOM      3  C   UNL d   1     -50.830  25.535  33.542  0.00  0.00     0.102 A 
ATOM      4  N   UNL d   1     -51.271  24.831  33.528  0.00  0.00    -0.238 N 
ATOM      5  N   UNL d   1     -52.064  25.031  33.453  0.00  0.00    -0.209 N 
ATOM      6  O   UNL d   1     -52.812  26.284  33.347  0.00  0.00    -0.264 OA
ATOM      7  C   UNL d   1     -50.952  24.065  33.581  0.00  0.00     0.120 C 
ATOM      8  C   UNL d   1     -50.004  25.589  33.611  0.00  0.00     0.022 C 
ENDROOT
BRANCH   1   9
ATOM      9  N   UNL d   1     -51.151  26.964  33.467  0.00  0.00    -0.254 N 
ATOM     10  C   UNL d   1     -51.698  27.583  33.386  0.00  0.00     0.153 A 
ATOM     11  S   UNL d   1     -51.271  28.292  33.404  0.00  0.00    -0.053 SA
ATOM     12  S   UNL d   1     -52.508  27.499  33.306  0.00  0.00    -0.052 SA
ATOM     13  C   UNL d   1     -50.474  28.102  33.494  0.00  0.00     0.099 A 
ATOM     14  C   UNL d   1     -50.405  27.287  33.532  0.00  0.00     0.273 A 
ATOM     15  O   UNL d   1     -49.694  26.867  33.621  0.00  0.00    -0.266 OA
ENDBRANCH   1   9
BRANCH   5  16
ATOM     16  C   UNL d   1     -52.708  24.519  33.415  0.00  0.00     0.085 A 
ATOM     17  C   UNL d   1     -53.479  24.813  33.441  0.00  0.00     0.019 A 
ATOM     18  C   UNL d   1     -54.114  24.292  33.402  0.00  0.00     0.002 A 
ATOM     19  C   UNL d   1     -53.994  23.490  33.338  0.00  0.00     0.000 A 
ATOM     20  C   UNL d   1     -53.234  23.192  33.312  0.00  0.00     0.002 A 
ATOM     21  C   UNL d   1     -52.584  23.706  33.350  0.00  0.00     0.019 A 
ENDBRANCH   5  16
TORSDOF 2
ENDMDL
