MODEL 1
REMARK VINA RESULT:      -7.4      0.000      0.000
REMARK  7 active torsions:
REMARK  status: ('A' for Active; 'I' for Inactive)
REMARK    1  A    between atoms: C_5  and  N_1 
REMARK    2  A    between atoms: C_2  and  N_6 
REMARK    3  A    between atoms: N_16  and  C_2 
REMARK    4  A    between atoms: C_3  and  C_9 
REMARK       I    between atoms: N_4  and  C_3 
REMARK    5  A    between atoms: N_6  and  N_4 
REMARK    6  A    between atoms: C_19  and  N_16 
REMARK    7  A    between atoms: C_17  and  C_19 
ROOT
ATOM      1  C   UNL d   1      53.983  32.729  53.650  0.00  0.00     0.297 C 
ATOM      2  N   UNL d   1      53.488  32.069  53.657  0.00  0.00    -0.103 NA
ATOM      3  O   UNL d   1      54.780  32.648  53.446  0.00  0.00    -0.264 OA
ENDROOT
BRANCH   1   4
ATOM      4  C   UNL d   1      53.663  33.484  53.853  0.00  0.00     0.059 A 
ATOM      5  C   UNL d   1      53.243  33.927  53.301  0.00  0.00     0.006 A 
ATOM      6  C   UNL d   1      52.937  34.661  53.513  0.00  0.00     0.024 A 
ATOM      7  C   UNL d   1      53.048  34.955  54.274  0.00  0.00     0.127 A 
ATOM      8  C   UNL d   1      53.469  34.511  54.826  0.00  0.00     0.024 A 
ATOM      9  C   UNL d   1      53.779  33.773  54.619  0.00  0.00     0.006 A 
BRANCH   7  10
ATOM     10  N   UNL d   1      52.733  35.693  54.467  0.00  0.00    -0.114 N 
ATOM     11  O   UNL d   1      51.910  35.803  54.435  0.00  0.00    -0.532 OA
ATOM     12  O   UNL d   1      53.218  36.320  54.690  0.00  0.00    -0.532 OA
ENDBRANCH   7  10
ENDBRANCH   1   4
BRANCH   2  13
ATOM     13  N   UNL d   1      53.791  31.327  53.459  0.00  0.00    -0.114 NA
BRANCH  13  14
ATOM     14  C   UNL d   1      53.305  30.666  53.500  0.00  0.00     0.241 C 
ATOM     15  S   UNL d   1      52.832  30.444  52.838  0.00  0.00    -0.035 SA
BRANCH  14  16
ATOM     16  N   UNL d   1      53.282  30.218  54.193  0.00  0.00    -0.215 NA
BRANCH  16  17
ATOM     17  C   UNL d   1      53.309  29.401  54.147  0.00  0.00     0.102 C 
BRANCH  17  18
ATOM     18  C   UNL d   1      53.249  28.953  54.837  0.00  0.00     0.021 C 
ATOM     19  C   UNL d   1      53.646  28.231  54.893  0.00  0.00     0.002 C 
ENDBRANCH  17  18
ENDBRANCH  16  17
ENDBRANCH  14  16
ENDBRANCH  13  14
ENDBRANCH   2  13
TORSDOF 7
ENDMDL
MODEL 2
REMARK VINA RESULT:      -6.7      2.213      4.691
REMARK  7 active torsions:
REMARK  status: ('A' for Active; 'I' for Inactive)
REMARK    1  A    between atoms: C_5  and  N_1 
REMARK    2  A    between atoms: C_2  and  N_6 
REMARK    3  A    between atoms: N_16  and  C_2 
REMARK    4  A    between atoms: C_3  and  C_9 
REMARK       I    between atoms: N_4  and  C_3 
REMARK    5  A    between atoms: N_6  and  N_4 
REMARK    6  A    between atoms: C_19  and  N_16 
REMARK    7  A    between atoms: C_17  and  C_19 
ROOT
ATOM      1  C   UNL d   1      53.712  32.537  53.387  0.00  0.00     0.297 C 
ATOM      2  N   UNL d   1      53.097  33.086  53.431  0.00  0.00    -0.103 NA
ATOM      3  O   UNL d   1      54.485  32.791  53.237  0.00  0.00    -0.264 OA
ENDROOT
BRANCH   1   4
ATOM      4  C   UNL d   1      53.539  31.718  53.498  0.00  0.00     0.059 A 
ATOM      5  C   UNL d   1      53.164  31.282  52.908  0.00  0.00     0.006 A 
ATOM      6  C   UNL d   1      53.002  30.484  53.030  0.00  0.00     0.024 A 
ATOM      7  C   UNL d   1      53.212  30.120  53.737  0.00  0.00     0.127 A 
ATOM      8  C   UNL d   1      53.587  30.556  54.327  0.00  0.00     0.024 A 
ATOM      9  C   UNL d   1      53.753  31.358  54.211  0.00  0.00     0.006 A 
BRANCH   7  10
ATOM     10  N   UNL d   1      53.040  29.319  53.840  0.00  0.00    -0.114 N 
ATOM     11  O   UNL d   1      52.561  28.933  53.282  0.00  0.00    -0.532 OA
ATOM     12  O   UNL d   1      53.334  28.898  54.483  0.00  0.00    -0.532 OA
ENDBRANCH   7  10
ENDBRANCH   1   4
BRANCH   2  13
ATOM     13  N   UNL d   1      53.256  33.889  53.324  0.00  0.00    -0.114 NA
BRANCH  13  14
ATOM     14  C   UNL d   1      52.643  34.434  53.369  0.00  0.00     0.241 C 
ATOM     15  S   UNL d   1      52.622  34.997  53.996  0.00  0.00    -0.035 SA
BRANCH  14  16
ATOM     16  N   UNL d   1      52.047  34.428  52.798  0.00  0.00    -0.215 NA
BRANCH  16  17
ATOM     17  C   UNL d   1      51.273  34.569  53.022  0.00  0.00     0.102 C 
BRANCH  17  18
ATOM     18  C   UNL d   1      50.663  34.432  52.483  0.00  0.00     0.021 C 
ATOM     19  C   UNL d   1      49.877  34.516  52.723  0.00  0.00     0.002 C 
ENDBRANCH  17  18
ENDBRANCH  16  17
ENDBRANCH  14  16
ENDBRANCH  13  14
ENDBRANCH   2  13
TORSDOF 7
ENDMDL
MODEL 3
REMARK VINA RESULT:      -6.6      2.334      4.964
REMARK  7 active torsions:
REMARK  status: ('A' for Active; 'I' for Inactive)
REMARK    1  A    between atoms: C_5  and  N_1 
REMARK    2  A    between atoms: C_2  and  N_6 
REMARK    3  A    between atoms: N_16  and  C_2 
REMARK    4  A    between atoms: C_3  and  C_9 
REMARK       I    between atoms: N_4  and  C_3 
REMARK    5  A    between atoms: N_6  and  N_4 
REMARK    6  A    between atoms: C_19  and  N_16 
REMARK    7  A    between atoms: C_17  and  C_19 
ROOT
ATOM      1  C   UNL d   1      52.786  31.391  52.856  0.00  0.00     0.297 C 
ATOM      2  N   UNL d   1      52.466  32.062  53.214  0.00  0.00    -0.103 NA
ATOM      3  O   UNL d   1      52.953  31.393  52.046  0.00  0.00    -0.264 OA
ENDROOT
BRANCH   1   4
ATOM      4  C   UNL d   1      52.939  30.707  53.327  0.00  0.00     0.059 A 
ATOM      5  C   UNL d   1      53.558  30.698  53.870  0.00  0.00     0.006 A 
ATOM      6  C   UNL d   1      53.696  30.025  54.323  0.00  0.00     0.024 A 
ATOM      7  C   UNL d   1      53.218  29.361  54.237  0.00  0.00     0.127 A 
ATOM      8  C   UNL d   1      52.599  29.369  53.694  0.00  0.00     0.024 A 
ATOM      9  C   UNL d   1      52.455  30.043  53.236  0.00  0.00     0.006 A 
BRANCH   7  10
ATOM     10  N   UNL d   1      53.372  28.695  54.701  0.00  0.00    -0.114 N 
ATOM     11  O   UNL d   1      53.151  28.700  55.501  0.00  0.00    -0.532 OA
ATOM     12  O   UNL d   1      53.740  28.030  54.385  0.00  0.00    -0.532 OA
ENDBRANCH   7  10
ENDBRANCH   1   4
BRANCH   2  13
ATOM     13  N   UNL d   1      52.314  32.735  52.762  0.00  0.00    -0.114 NA
BRANCH  13  14
ATOM     14  C   UNL d   1      52.014  33.409  53.125  0.00  0.00     0.241 C 
ATOM     15  S   UNL d   1      51.206  33.624  53.020  0.00  0.00    -0.035 SA
BRANCH  14  16
ATOM     16  N   UNL d   1      52.509  33.875  53.593  0.00  0.00    -0.215 NA
BRANCH  16  17
ATOM     17  C   UNL d   1      52.436  34.690  53.570  0.00  0.00     0.102 C 
BRANCH  17  18
ATOM     18  C   UNL d   1      53.071  35.162  53.804  0.00  0.00     0.021 C 
ATOM     19  C   UNL d   1      53.005  35.633  54.478  0.00  0.00     0.002 C 
ENDBRANCH  17  18
ENDBRANCH  16  17
ENDBRANCH  14  16
ENDBRANCH  13  14
ENDBRANCH   2  13
TORSDOF 7
ENDMDL
MODEL 4
REMARK VINA RESULT:      -6.6      1.865      2.213
REMARK  7 active torsions:
REMARK  status: ('A' for Active; 'I' for Inactive)
REMARK    1  A    between atoms: C_5  and  N_1 
REMARK    2  A    between atoms: C_2  and  N_6 
REMARK    3  A    between atoms: N_16  and  C_2 
REMARK    4  A    between atoms: C_3  and  C_9 
REMARK       I    between atoms: N_4  and  C_3 
REMARK    5  A    between atoms: N_6  and  N_4 
REMARK    6  A    between atoms: C_19  and  N_16 
REMARK    7  A    between atoms: C_17  and  C_19 
ROOT
ATOM      1  C   UNL d   1      52.636  32.846  53.142  0.00  0.00     0.297 C 
ATOM      2  N   UNL d   1      52.587  32.022  53.106  0.00  0.00    -0.103 NA
ATOM      3  O   UNL d   1      53.358  33.211  53.313  0.00  0.00    -0.264 OA
ENDROOT
BRANCH   1   4
ATOM      4  C   UNL d   1      51.941  33.304  53.003  0.00  0.00     0.059 A 
ATOM      5  C   UNL d   1      51.279  33.227  53.488  0.00  0.00     0.006 A 
ATOM      6  C   UNL d   1      50.609  33.680  53.340  0.00  0.00     0.024 A 
ATOM      7  C   UNL d   1      50.595  34.210  52.711  0.00  0.00     0.127 A 
ATOM      8  C   UNL d   1      51.256  34.287  52.226  0.00  0.00     0.024 A 
ATOM      9  C   UNL d   1      51.933  33.835  52.368  0.00  0.00     0.006 A 
BRANCH   7  10
ATOM     10  N   UNL d   1      49.912  34.656  52.579  0.00  0.00    -0.114 N 
ATOM     11  O   UNL d   1      49.475  34.531  51.884  0.00  0.00    -0.532 OA
ATOM     12  O   UNL d   1      49.658  35.219  53.123  0.00  0.00    -0.532 OA
ENDBRANCH   7  10
ENDBRANCH   1   4
BRANCH   2  13
ATOM     13  N   UNL d   1      53.261  31.565  53.241  0.00  0.00    -0.114 NA
BRANCH  13  14
ATOM     14  C   UNL d   1      53.195  30.747  53.288  0.00  0.00     0.241 C 
ATOM     15  S   UNL d   1      52.964  30.301  52.611  0.00  0.00    -0.035 SA
BRANCH  14  16
ATOM     16  N   UNL d   1      53.355  30.365  54.001  0.00  0.00    -0.215 NA
BRANCH  16  17
ATOM     17  C   UNL d   1      53.284  29.551  54.047  0.00  0.00     0.102 C 
BRANCH  17  18
ATOM     18  C   UNL d   1      53.242  29.188  54.787  0.00  0.00     0.021 C 
ATOM     19  C   UNL d   1      53.555  28.431  54.891  0.00  0.00     0.002 C 
ENDBRANCH  17  18
ENDBRANCH  16  17
ENDBRANCH  14  16
ENDBRANCH  13  14
ENDBRANCH   2  13
TORSDOF 7
ENDMDL
MODEL 5
REMARK VINA RESULT:      -6.0      2.796      3.732
REMARK  7 active torsions:
REMARK  status: ('A' for Active; 'I' for Inactive)
REMARK    1  A    between atoms: C_5  and  N_1 
REMARK    2  A    between atoms: C_2  and  N_6 
REMARK    3  A    between atoms: N_16  and  C_2 
REMARK    4  A    between atoms: C_3  and  C_9 
REMARK       I    between atoms: N_4  and  C_3 
REMARK    5  A    between atoms: N_6  and  N_4 
REMARK    6  A    between atoms: C_19  and  N_16 
REMARK    7  A    between atoms: C_17  and  C_19 
ROOT
ATOM      1  C   UNL d   1      51.890  34.179  52.589  0.00  0.00     0.297 C 
ATOM      2  N   UNL d   1      52.109  33.436  52.875  0.00  0.00    -0.103 NA
ATOM      3  O   UNL d   1      52.451  34.784  52.534  0.00  0.00    -0.264 OA
ENDROOT
BRANCH   1   4
ATOM      4  C   UNL d   1      51.088  34.308  52.357  0.00  0.00     0.059 A 
ATOM      5  C   UNL d   1      50.861  34.238  51.568  0.00  0.00     0.006 A 
ATOM      6  C   UNL d   1      50.076  34.368  51.355  0.00  0.00     0.024 A 
ATOM      7  C   UNL d   1      49.518  34.567  51.926  0.00  0.00     0.127 A 
ATOM      8  C   UNL d   1      49.746  34.637  52.715  0.00  0.00     0.024 A 
ATOM      9  C   UNL d   1      50.532  34.508  52.935  0.00  0.00     0.006 A 
BRANCH   7  10
ATOM     10  N   UNL d   1      48.736  34.692  51.693  0.00  0.00    -0.114 N 
ATOM     11  O   UNL d   1      48.440  34.284  51.033  0.00  0.00    -0.532 OA
ATOM     12  O   UNL d   1      48.246  35.213  52.100  0.00  0.00    -0.532 OA
ENDBRANCH   7  10
ENDBRANCH   1   4
BRANCH   2  13
ATOM     13  N   UNL d   1      52.890  33.299  53.105  0.00  0.00    -0.114 NA
BRANCH  13  14
ATOM     14  C   UNL d   1      53.077  32.616  53.522  0.00  0.00     0.241 C 
ATOM     15  S   UNL d   1      53.015  31.862  53.151  0.00  0.00    -0.035 SA
BRANCH  14  16
ATOM     16  N   UNL d   1      53.326  32.673  54.307  0.00  0.00    -0.215 NA
BRANCH  16  17
ATOM     17  C   UNL d   1      54.117  32.800  54.470  0.00  0.00     0.102 C 
BRANCH  17  18
ATOM     18  C   UNL d   1      54.346  33.006  55.236  0.00  0.00     0.021 C 
ATOM     19  C   UNL d   1      54.983  33.519  55.350  0.00  0.00     0.002 C 
ENDBRANCH  17  18
ENDBRANCH  16  17
ENDBRANCH  14  16
ENDBRANCH  13  14
ENDBRANCH   2  13
TORSDOF 7
ENDMDL
MODEL 6
REMARK VINA RESULT:      -5.8      2.782      4.252
REMARK  7 active torsions:
REMARK  status: ('A' for Active; 'I' for Inactive)
REMARK    1  A    between atoms: C_5  and  N_1 
REMARK    2  A    between atoms: C_2  and  N_6 
REMARK    3  A    between atoms: N_16  and  C_2 
REMARK    4  A    between atoms: C_3  and  C_9 
REMARK       I    between atoms: N_4  and  C_3 
REMARK    5  A    between atoms: N_6  and  N_4 
REMARK    6  A    between atoms: C_19  and  N_16 
REMARK    7  A    between atoms: C_17  and  C_19 
ROOT
ATOM      1  C   UNL d   1      52.375  33.024  53.570  0.00  0.00     0.297 C 
ATOM      2  N   UNL d   1      51.909  33.643  53.286  0.00  0.00    -0.103 NA
ATOM      3  O   UNL d   1      52.124  32.241  53.481  0.00  0.00    -0.264 OA
ENDROOT
BRANCH   1   4
ATOM      4  C   UNL d   1      53.108  33.203  53.950  0.00  0.00     0.059 A 
ATOM      5  C   UNL d   1      53.811  32.857  53.696  0.00  0.00     0.006 A 
ATOM      6  C   UNL d   1      54.518  33.041  54.076  0.00  0.00     0.024 A 
ATOM      7  C   UNL d   1      54.526  33.568  54.707  0.00  0.00     0.127 A 
ATOM      8  C   UNL d   1      53.823  33.915  54.961  0.00  0.00     0.024 A 
ATOM      9  C   UNL d   1      53.109  33.734  54.584  0.00  0.00     0.006 A 
BRANCH   7  10
ATOM     10  N   UNL d   1      55.246  33.740  55.075  0.00  0.00    -0.114 N 
ATOM     11  O   UNL d   1      55.926  33.830  54.609  0.00  0.00    -0.532 OA
ATOM     12  O   UNL d   1      55.299  33.822  55.892  0.00  0.00    -0.532 OA
ENDBRANCH   7  10
ENDBRANCH   1   4
BRANCH   2  13
ATOM     13  N   UNL d   1      51.191  33.479  52.913  0.00  0.00    -0.114 NA
BRANCH  13  14
ATOM     14  C   UNL d   1      50.766  34.089  52.563  0.00  0.00     0.241 C 
ATOM     15  S   UNL d   1      50.885  34.278  51.751  0.00  0.00    -0.035 SA
BRANCH  14  16
ATOM     16  N   UNL d   1      50.220  34.515  53.012  0.00  0.00    -0.215 NA
BRANCH  16  17
ATOM     17  C   UNL d   1      49.543  34.804  52.655  0.00  0.00     0.102 C 
BRANCH  17  18
ATOM     18  C   UNL d   1      49.024  35.278  53.089  0.00  0.00     0.021 C 
ATOM     19  C   UNL d   1      48.365  35.610  52.719  0.00  0.00     0.002 C 
ENDBRANCH  17  18
ENDBRANCH  16  17
ENDBRANCH  14  16
ENDBRANCH  13  14
ENDBRANCH   2  13
TORSDOF 7
ENDMDL
MODEL 7
REMARK VINA RESULT:      -5.5      2.742      4.973
REMARK  7 active torsions:
REMARK  status: ('A' for Active; 'I' for Inactive)
REMARK    1  A    between atoms: C_5  and  N_1 
REMARK    2  A    between atoms: C_2  and  N_6 
REMARK    3  A    between atoms: N_16  and  C_2 
REMARK    4  A    between atoms: C_3  and  C_9 
REMARK       I    between atoms: N_4  and  C_3 
REMARK    5  A    between atoms: N_6  and  N_4 
REMARK    6  A    between atoms: C_19  and  N_16 
REMARK    7  A    between atoms: C_17  and  C_19 
ROOT
ATOM      1  C   UNL d   1      52.283  33.514  53.154  0.00  0.00     0.297 C 
ATOM      2  N   UNL d   1      51.490  33.577  52.936  0.00  0.00    -0.103 NA
ATOM      3  O   UNL d   1      52.738  34.195  53.267  0.00  0.00    -0.264 OA
ENDROOT
BRANCH   1   4
ATOM      4  C   UNL d   1      52.619  32.747  53.259  0.00  0.00     0.059 A 
ATOM      5  C   UNL d   1      52.322  32.096  52.850  0.00  0.00     0.006 A 
ATOM      6  C   UNL d   1      52.660  31.354  52.963  0.00  0.00     0.024 A 
ATOM      7  C   UNL d   1      53.292  31.258  53.480  0.00  0.00     0.127 A 
ATOM      8  C   UNL d   1      53.589  31.909  53.889  0.00  0.00     0.024 A 
ATOM      9  C   UNL d   1      53.254  32.657  53.781  0.00  0.00     0.006 A 
BRANCH   7  10
ATOM     10  N   UNL d   1      53.617  30.505  53.579  0.00  0.00    -0.114 N 
ATOM     11  O   UNL d   1      53.218  29.952  54.054  0.00  0.00    -0.532 OA
ATOM     12  O   UNL d   1      54.325  30.294  53.217  0.00  0.00    -0.532 OA
ENDBRANCH   7  10
ENDBRANCH   1   4
BRANCH   2  13
ATOM     13  N   UNL d   1      51.152  34.323  52.831  0.00  0.00    -0.114 NA
BRANCH  13  14
ATOM     14  C   UNL d   1      50.361  34.384  52.613  0.00  0.00     0.241 C 
ATOM     15  S   UNL d   1      50.114  34.148  51.843  0.00  0.00    -0.035 SA
BRANCH  14  16
ATOM     16  N   UNL d   1      49.811  34.678  53.153  0.00  0.00    -0.215 NA
BRANCH  16  17
ATOM     17  C   UNL d   1      49.233  35.198  52.896  0.00  0.00     0.102 C 
BRANCH  17  18
ATOM     18  C   UNL d   1      48.806  35.637  53.450  0.00  0.00     0.021 C 
ATOM     19  C   UNL d   1      48.088  35.982  53.234  0.00  0.00     0.002 C 
ENDBRANCH  17  18
ENDBRANCH  16  17
ENDBRANCH  14  16
ENDBRANCH  13  14
ENDBRANCH   2  13
TORSDOF 7
ENDMDL
MODEL 8
REMARK VINA RESULT:      -5.4      2.230      4.754
REMARK  7 active torsions:
REMARK  status: ('A' for Active; 'I' for Inactive)
REMARK    1  A    between atoms: C_5  and  N_1 
REMARK    2  A    between atoms: C_2  and  N_6 
REMARK    3  A    between atoms: N_16  and  C_2 
REMARK    4  A    between atoms: C_3  and  C_9 
REMARK       I    between atoms: N_4  and  C_3 
REMARK    5  A    between atoms: N_6  and  N_4 
REMARK    6  A    between atoms: C_19  and  N_16 
REMARK    7  A    between atoms: C_17  and  C_19 
ROOT
ATOM      1  C   UNL d   1      54.179  32.146  53.583  0.00  0.00     0.297 C 
ATOM      2  N   UNL d   1      54.059  32.641  54.232  0.00  0.00    -0.103 NA
ATOM      3  O   UNL d   1      54.763  32.327  53.026  0.00  0.00    -0.264 OA
ENDROOT
BRANCH   1   4
ATOM      4  C   UNL d   1      53.698  31.457  53.497  0.00  0.00     0.059 A 
ATOM      5  C   UNL d   1      53.912  30.746  53.856  0.00  0.00     0.006 A 
ATOM      6  C   UNL d   1      53.434  30.083  53.764  0.00  0.00     0.024 A 
ATOM      7  C   UNL d   1      52.744  30.125  53.317  0.00  0.00     0.127 A 
ATOM      8  C   UNL d   1      52.531  30.835  52.959  0.00  0.00     0.024 A 
ATOM      9  C   UNL d   1      53.007  31.506  53.047  0.00  0.00     0.006 A 
BRANCH   7  10
ATOM     10  N   UNL d   1      52.278  29.447  53.237  0.00  0.00    -0.114 N 
ATOM     11  O   UNL d   1      51.484  29.473  53.478  0.00  0.00    -0.532 OA
ATOM     12  O   UNL d   1      52.586  28.751  52.925  0.00  0.00    -0.532 OA
ENDBRANCH   7  10
ENDBRANCH   1   4
BRANCH   2  13
ATOM     13  N   UNL d   1      54.523  33.316  54.325  0.00  0.00    -0.114 NA
BRANCH  13  14
ATOM     14  C   UNL d   1      54.387  33.820  54.960  0.00  0.00     0.241 C 
ATOM     15  S   UNL d   1      54.974  33.917  55.558  0.00  0.00    -0.035 SA
BRANCH  14  16
ATOM     16  N   UNL d   1      53.673  34.229  55.011  0.00  0.00    -0.215 NA
BRANCH  16  17
ATOM     17  C   UNL d   1      53.660  35.036  54.874  0.00  0.00     0.102 C 
BRANCH  17  18
ATOM     18  C   UNL d   1      52.941  35.412  54.722  0.00  0.00     0.021 C 
ATOM     19  C   UNL d   1      52.914  36.234  54.659  0.00  0.00     0.002 C 
ENDBRANCH  17  18
ENDBRANCH  16  17
ENDBRANCH  14  16
ENDBRANCH  13  14
ENDBRANCH   2  13
TORSDOF 7
ENDMDL
