MODEL 1
REMARK VINA RESULT:      15.7      0.000      0.000
REMARK  1 active torsions:
REMARK  status: ('A' for Active; 'I' for Inactive)
REMARK    1  A    between atoms: C_6  and  C_1 
ROOT
ATOM      1  C   UNL d   1     -52.593  24.640  33.455  0.00  0.00     0.128 A 
ATOM      2  C   UNL d   1     -53.119  25.272  33.394  0.00  0.00     0.306 A 
ATOM      3  C   UNL d   1     -51.772  24.781  33.467  0.00  0.00     0.013 A 
ATOM      4  O   UNL d   1     -52.829  26.049  33.344  0.00  0.00    -0.273 OA
ATOM      5  C   UNL d   1     -51.490  25.555  33.417  0.00  0.00     0.023 A 
ATOM      6  C   UNL d   1     -52.017  26.187  33.356  0.00  0.00     0.103 A 
ATOM      7  O   UNL d   1     -53.931  25.134  33.382  0.00  0.00    -0.259 OA
ATOM      8  C   UNL d   1     -50.679  25.695  33.429  0.00  0.00     0.002 A 
ATOM      9  C   UNL d   1     -51.733  26.959  33.307  0.00  0.00     0.025 A 
ATOM     10  C   UNL d   1     -50.394  26.465  33.379  0.00  0.00     0.000 A 
ATOM     11  C   UNL d   1     -50.921  27.097  33.318  0.00  0.00     0.002 A 
ATOM     12  C   UNL d   1     -49.583  26.605  33.391  0.00  0.00     0.000 C 
ENDROOT
BRANCH   1  13
ATOM     13  C   UNL d   1     -52.881  23.867  33.504  0.00  0.00     0.216 C 
ATOM     14  O   UNL d   1     -52.388  23.232  33.319  0.00  0.00    -0.644 OA
ATOM     15  O   UNL d   1     -53.658  23.731  33.739  0.00  0.00    -0.644 OA
ENDBRANCH   1  13
TORSDOF 1
ENDMDL
