MODEL 1
REMARK VINA RESULT:      -3.4      0.000      0.000
REMARK  6 active torsions:
REMARK  status: ('A' for Active; 'I' for Inactive)
REMARK    1  A    between atoms: C_6  and  C_1 
REMARK    2  A    between atoms: N_7  and  C_2 
REMARK    3  A    between atoms: C_8  and  N_5 
REMARK    4  A    between atoms: O_13  and  C_6 
REMARK    5  A    between atoms: C_18  and  O_13 
REMARK    6  A    between atoms: O_17  and  C_14 
ROOT
ATOM      1  C   UNL d   1      58.405   0.387  30.456  0.00  0.00     0.112 A 
ATOM      2  C   UNL d   1      58.329   0.518  31.792  0.00  0.00     0.172 A 
ATOM      3  C   UNL d   1      57.653   0.150  30.700  0.00  0.00     0.077 A 
ATOM      4  S   UNL d   1      58.825   0.615  31.131  0.00  0.00    -0.044 SA
ATOM      5  N   UNL d   1      57.607   0.231  31.525  0.00  0.00    -0.287 N 
ATOM      6  C   UNL d   1      57.050  -0.122  30.195  0.00  0.00     0.020 C 
ENDROOT
BRANCH   5   7
ATOM      7  C   UNL d   1      56.969   0.064  32.022  0.00  0.00     0.066 A 
ATOM      8  C   UNL d   1      56.578   0.682  32.404  0.00  0.00     0.020 A 
ATOM      9  C   UNL d   1      55.942   0.512  32.899  0.00  0.00     0.026 A 
ATOM     10  C   UNL d   1      55.699  -0.263  33.012  0.00  0.00     0.094 A 
ATOM     11  C   UNL d   1      56.093  -0.878  32.628  0.00  0.00     0.026 A 
ATOM     12  C   UNL d   1      56.729  -0.708  32.133  0.00  0.00     0.020 A 
BRANCH  10  13
ATOM     13  O   UNL d   1      55.056  -0.433  33.513  0.00  0.00    -0.328 OA
ATOM     14  C   UNL d   1      54.790   0.137  34.047  0.00  0.00     0.181 C 
ENDBRANCH  10  13
ENDBRANCH   5   7
BRANCH   2  15
ATOM     15  N   UNL d   1      58.531   0.681  32.576  0.00  0.00    -0.277 NA
ATOM     16  H   UNL d   1      58.045   0.424  33.189  0.00  0.00     0.189 HD
ENDBRANCH   2  15
BRANCH   1  17
ATOM     17  C   UNL d   1      58.687   0.395  29.680  0.00  0.00     0.308 C 
ATOM     18  O   UNL d   1      58.177   0.557  29.059  0.00  0.00    -0.258 OA
BRANCH  17  19
ATOM     19  O   UNL d   1      59.488   0.238  29.529  0.00  0.00    -0.271 OA
BRANCH  19  20
ATOM     20  C   UNL d   1      59.709  -0.260  28.913  0.00  0.00     0.126 C 
ATOM     21  C   UNL d   1      60.472  -0.223  28.601  0.00  0.00     0.029 C 
ENDBRANCH  19  20
ENDBRANCH  17  19
ENDBRANCH   1  17
TORSDOF 6
ENDMDL
MODEL 2
REMARK VINA RESULT:      -3.2      1.116      4.317
REMARK  6 active torsions:
REMARK  status: ('A' for Active; 'I' for Inactive)
REMARK    1  A    between atoms: C_6  and  C_1 
REMARK    2  A    between atoms: N_7  and  C_2 
REMARK    3  A    between atoms: C_8  and  N_5 
REMARK    4  A    between atoms: O_13  and  C_6 
REMARK    5  A    between atoms: C_18  and  O_13 
REMARK    6  A    between atoms: O_17  and  C_14 
ROOT
ATOM      1  C   UNL d   1      56.444   0.487  33.108  0.00  0.00     0.112 A 
ATOM      2  C   UNL d   1      57.702   0.555  32.640  0.00  0.00     0.172 A 
ATOM      3  C   UNL d   1      56.443   0.241  32.321  0.00  0.00     0.077 A 
ATOM      4  S   UNL d   1      57.222   0.682  33.308  0.00  0.00    -0.044 SA
ATOM      5  N   UNL d   1      57.220   0.283  32.032  0.00  0.00    -0.287 N 
ATOM      6  C   UNL d   1      55.771  -0.006  31.897  0.00  0.00     0.020 C 
ENDROOT
BRANCH   5   7
ATOM      7  C   UNL d   1      57.498   0.095  31.277  0.00  0.00     0.066 A 
ATOM      8  C   UNL d   1      57.531   0.680  30.698  0.00  0.00     0.020 A 
ATOM      9  C   UNL d   1      57.809   0.490  29.946  0.00  0.00     0.026 A 
ATOM     10  C   UNL d   1      58.051  -0.275  29.775  0.00  0.00     0.094 A 
ATOM     11  C   UNL d   1      58.016  -0.858  30.358  0.00  0.00     0.026 A 
ATOM     12  C   UNL d   1      57.738  -0.667  31.110  0.00  0.00     0.020 A 
BRANCH  10  13
ATOM     13  O   UNL d   1      58.331  -0.467  29.015  0.00  0.00    -0.328 OA
ATOM     14  C   UNL d   1      59.132  -0.375  28.838  0.00  0.00     0.181 C 
ENDBRANCH  10  13
ENDBRANCH   5   7
BRANCH   2  15
ATOM     15  N   UNL d   1      58.517   0.681  32.599  0.00  0.00    -0.277 NA
ATOM     16  H   UNL d   1      58.830   1.164  32.009  0.00  0.00     0.189 HD
ENDBRANCH   2  15
BRANCH   1  17
ATOM     17  C   UNL d   1      55.786   0.531  33.607  0.00  0.00     0.308 C 
ATOM     18  O   UNL d   1      55.030   0.525  33.292  0.00  0.00    -0.258 OA
BRANCH  17  19
ATOM     19  O   UNL d   1      55.894   0.580  34.429  0.00  0.00    -0.271 OA
BRANCH  19  20
ATOM     20  C   UNL d   1      55.269   0.431  34.943  0.00  0.00     0.126 C 
ATOM     21  C   UNL d   1      55.336   0.616  35.744  0.00  0.00     0.029 C 
ENDBRANCH  19  20
ENDBRANCH  17  19
ENDBRANCH   1  17
TORSDOF 6
ENDMDL
MODEL 3
REMARK VINA RESULT:      -2.0      1.152      4.469
REMARK  6 active torsions:
REMARK  status: ('A' for Active; 'I' for Inactive)
REMARK    1  A    between atoms: C_6  and  C_1 
REMARK    2  A    between atoms: N_7  and  C_2 
REMARK    3  A    between atoms: C_8  and  N_5 
REMARK    4  A    between atoms: O_13  and  C_6 
REMARK    5  A    between atoms: C_18  and  O_13 
REMARK    6  A    between atoms: O_17  and  C_14 
ROOT
ATOM      1  C   UNL d   1      57.003  -0.327  32.255  0.00  0.00     0.112 A 
ATOM      2  C   UNL d   1      57.362  -0.813  31.054  0.00  0.00     0.172 A 
ATOM      3  C   UNL d   1      57.676   0.077  32.000  0.00  0.00     0.077 A 
ATOM      4  S   UNL d   1      56.807  -0.878  31.671  0.00  0.00    -0.044 SA
ATOM      5  N   UNL d   1      57.897  -0.224  31.258  0.00  0.00    -0.287 N 
ATOM      6  C   UNL d   1      58.060   0.682  32.422  0.00  0.00     0.020 C 
ENDROOT
BRANCH   5   7
ATOM      7  C   UNL d   1      58.532   0.002  30.781  0.00  0.00     0.066 A 
ATOM      8  C   UNL d   1      58.387   0.354  30.050  0.00  0.00     0.020 A 
ATOM      9  C   UNL d   1      59.023   0.578  29.576  0.00  0.00     0.026 A 
ATOM     10  C   UNL d   1      59.793   0.453  29.829  0.00  0.00     0.094 A 
ATOM     11  C   UNL d   1      59.933   0.101  30.562  0.00  0.00     0.026 A 
ATOM     12  C   UNL d   1      59.297  -0.124  31.035  0.00  0.00     0.020 A 
BRANCH  10  13
ATOM     13  O   UNL d   1      60.435   0.680  29.350  0.00  0.00    -0.328 OA
ATOM     14  C   UNL d   1      60.864   0.106  28.941  0.00  0.00     0.181 C 
ENDBRANCH  10  13
ENDBRANCH   5   7
BRANCH   2  15
ATOM     15  N   UNL d   1      57.369  -1.262  30.361  0.00  0.00    -0.277 NA
ATOM     16  H   UNL d   1      56.829  -1.103  29.761  0.00  0.00     0.189 HD
ENDBRANCH   2  15
BRANCH   1  17
ATOM     17  C   UNL d   1      56.599  -0.203  32.965  0.00  0.00     0.308 C 
ATOM     18  O   UNL d   1      56.953  -0.395  33.678  0.00  0.00    -0.258 OA
BRANCH  17  19
ATOM     19  O   UNL d   1      55.833   0.117  32.954  0.00  0.00    -0.271 OA
BRANCH  19  20
ATOM     20  C   UNL d   1      55.430   0.264  33.656  0.00  0.00     0.126 C 
ATOM     21  C   UNL d   1      54.606   0.305  33.662  0.00  0.00     0.029 C 
ENDBRANCH  19  20
ENDBRANCH  17  19
ENDBRANCH   1  17
TORSDOF 6
ENDMDL
