MODEL 1
REMARK VINA RESULT:      75.3      0.000      0.000
REMARK  3 active torsions:
REMARK  status: ('A' for Active; 'I' for Inactive)
REMARK    1  A    between atoms: C_12  and  N_3 
REMARK    2  A    between atoms: C_11  and  C_6 
REMARK    3  A    between atoms: C_22  and  C_12 
ROOT
ATOM      1  C   UNL d   1     -54.765-101.561 -41.539  0.00  0.00     0.130 A 
ATOM      2  C   UNL d   1     -54.745-100.736 -41.535  0.00  0.00     0.157 A 
ATOM      3  N   UNL d   1     -54.772-101.566 -40.106  0.00  0.00    -0.256 N 
ATOM      4  C   UNL d   1     -54.778-101.970 -40.824  0.00  0.00     0.272 A 
ATOM      5  N   UNL d   1     -54.740-100.320 -40.820  0.00  0.00    -0.208 NA
ATOM      6  C   UNL d   1     -54.753-100.728 -40.105  0.00  0.00     0.175 A 
ATOM      7  C   UNL d   1     -54.770-101.970 -42.249  0.00  0.00     0.204 A 
ATOM      8  N   UNL d   1     -54.732-100.315 -42.249  0.00  0.00    -0.289 N 
ATOM      9  C   UNL d   1     -54.757-101.557 -42.964  0.00  0.00     0.055 A 
ATOM     10  C   UNL d   1     -54.738-100.732 -42.968  0.00  0.00     0.069 A 
ATOM     11  O   UNL d   1     -54.797-102.795 -40.819  0.00  0.00    -0.266 OA
ATOM     12  O   UNL d   1     -54.790-102.793 -42.248  0.00  0.00    -0.286 OA
ATOM     13  C   UNL d   1     -54.713 -99.490 -42.254  0.00  0.00     0.101 C 
ATOM     14  C   UNL d   1     -54.763-101.973 -43.673  0.00  0.00     0.005 A 
ATOM     15  C   UNL d   1     -54.724-100.323 -43.682  0.00  0.00     0.018 A 
ATOM     16  C   UNL d   1     -54.750-101.565 -44.389  0.00  0.00     0.000 A 
ATOM     17  C   UNL d   1     -54.730-100.740 -44.393  0.00  0.00     0.002 A 
ENDROOT
BRANCH   6  18
ATOM     18  C   UNL d   1     -54.747-100.316 -39.382  0.00  0.00     0.135 A 
ATOM     19  O   UNL d   1     -54.758 -99.491 -39.387  0.00  0.00    -0.302 OA
ATOM     20  C   UNL d   1     -54.749 -99.237 -38.601  0.00  0.00     0.123 A 
ATOM     21  C   UNL d   1     -54.733 -99.905 -38.114  0.00  0.00     0.029 A 
ATOM     22  C   UNL d   1     -54.732-100.570 -38.598  0.00  0.00     0.030 A 
ENDBRANCH   6  18
BRANCH   3  23
ATOM     23  C   UNL d   1     -54.786-101.979 -39.386  0.00  0.00     0.085 C 
BRANCH  23  24
ATOM     24  C   UNL d   1     -55.399-102.520 -39.230  0.00  0.00     0.018 C 
ATOM     25  C   UNL d   1     -55.463-102.866 -38.466  0.00  0.00     0.002 C 
ATOM     26  C   UNL d   1     -55.948-102.719 -39.825  0.00  0.00     0.002 C 
ENDBRANCH  23  24
ENDBRANCH   3  23
TORSDOF 3
ENDMDL
