MODEL 1
REMARK VINA RESULT:       2.0      0.000      0.000
REMARK  7 active torsions:
REMARK  status: ('A' for Active; 'I' for Inactive)
REMARK    1  A    between atoms: N_4  and  S_1 
REMARK    2  A    between atoms: C_8  and  S_1 
REMARK    3  A    between atoms: N_2  and  C_3 
REMARK    4  A    between atoms: C_3  and  C_6 
REMARK    5  A    between atoms: C_7  and  C_3 
REMARK    6  A    between atoms: C_6  and  N_4 
REMARK    7  A    between atoms: C_17  and  N_5 
ROOT
ATOM      1  C   UNL d   1      32.936  19.761 -23.323  0.00  0.00     0.107 C 
ENDROOT
BRANCH   1   2
ATOM      2  N   UNL d   1      32.519  19.065 -23.472  0.00  0.00    -0.298 N 
ATOM      3  C   UNL d   1      32.912  18.339 -23.469  0.00  0.00     0.100 A 
ATOM      4  C   UNL d   1      32.496  17.643 -23.618  0.00  0.00     0.100 A 
ATOM      5  N   UNL d   1      31.685  17.672 -23.771  0.00  0.00    -0.301 N 
ATOM      6  C   UNL d   1      31.297  18.397 -23.773  0.00  0.00     0.100 A 
ATOM      7  C   UNL d   1      31.709  19.094 -23.625  0.00  0.00     0.100 A 
BRANCH   5   8
ATOM      8  C   UNL d   1      31.273  16.980 -23.918  0.00  0.00     0.064 A 
ATOM      9  C   UNL d   1      30.943  16.555 -23.300  0.00  0.00     0.018 A 
ATOM     10  C   UNL d   1      30.528  15.860 -23.446  0.00  0.00     0.002 A 
ATOM     11  C   UNL d   1      30.444  15.589 -24.221  0.00  0.00     0.000 A 
ATOM     12  C   UNL d   1      30.776  16.015 -24.845  0.00  0.00     0.002 A 
ATOM     13  C   UNL d   1      31.189  16.709 -24.693  0.00  0.00     0.018 A 
ENDBRANCH   5   8
ENDBRANCH   1   2
BRANCH   1  14
ATOM     14  C   UNL d   1      33.240  19.927 -22.573  0.00  0.00     0.132 C 
BRANCH  14  15
ATOM     15  N   UNL d   1      32.796  20.407 -22.048  0.00  0.00    -0.155 NA
BRANCH  15  16
ATOM     16  S   UNL d   1      32.875  20.307 -21.237  0.00  0.00     0.285 S 
ATOM     17  O   UNL d   1      32.952  20.218 -20.418  0.00  0.00    -0.198 OA
ATOM     18  O   UNL d   1      33.126  19.525 -21.353  0.00  0.00    -0.198 OA
BRANCH  16  19
ATOM     19  C   UNL d   1      32.623  21.092 -21.125  0.00  0.00     0.105 A 
ATOM     20  C   UNL d   1      33.174  21.706 -21.118  0.00  0.00     0.015 A 
ATOM     21  C   UNL d   1      32.932  22.488 -21.008  0.00  0.00     0.030 A 
ATOM     22  C   UNL d   1      32.119  22.648 -20.904  0.00  0.00     0.140 A 
ATOM     23  C   UNL d   1      31.569  22.034 -20.911  0.00  0.00     0.030 A 
ATOM     24  F   UNL d   1      31.867  23.439 -20.791  0.00  0.00    -0.204 F 
ATOM     25  C   UNL d   1      31.821  21.256 -21.022  0.00  0.00     0.015 A 
ENDBRANCH  16  19
ENDBRANCH  15  16
ENDBRANCH  14  15
ENDBRANCH   1  14
BRANCH   1  26
ATOM     26  C   UNL d   1      33.055  20.315 -23.942  0.00  0.00     0.118 A 
ATOM     27  O   UNL d   1      33.128  21.117 -23.775  0.00  0.00    -0.304 OA
ATOM     28  C   UNL d   1      33.239  21.519 -24.492  0.00  0.00     0.123 A 
ATOM     29  C   UNL d   1      33.234  20.968 -25.092  0.00  0.00     0.029 A 
ATOM     30  C   UNL d   1      33.120  20.221 -24.755  0.00  0.00     0.028 A 
ENDBRANCH   1  26
TORSDOF 7
ENDMDL
MODEL 2
REMARK VINA RESULT:       3.6      2.095      4.985
REMARK  7 active torsions:
REMARK  status: ('A' for Active; 'I' for Inactive)
REMARK    1  A    between atoms: N_4  and  S_1 
REMARK    2  A    between atoms: C_8  and  S_1 
REMARK    3  A    between atoms: N_2  and  C_3 
REMARK    4  A    between atoms: C_3  and  C_6 
REMARK    5  A    between atoms: C_7  and  C_3 
REMARK    6  A    between atoms: C_6  and  N_4 
REMARK    7  A    between atoms: C_17  and  N_5 
ROOT
ATOM      1  C   UNL d   1      32.657  19.177 -23.095  0.00  0.00     0.107 C 
ENDROOT
BRANCH   1   2
ATOM      2  N   UNL d   1      32.687  19.713 -22.468  0.00  0.00    -0.298 N 
ATOM      3  C   UNL d   1      32.202  20.380 -22.470  0.00  0.00     0.100 A 
ATOM      4  C   UNL d   1      32.232  20.916 -21.844  0.00  0.00     0.100 A 
ATOM      5  N   UNL d   1      32.748  20.785 -21.214  0.00  0.00    -0.301 N 
ATOM      6  C   UNL d   1      33.231  20.118 -21.214  0.00  0.00     0.100 A 
ATOM      7  C   UNL d   1      33.203  19.581 -21.838  0.00  0.00     0.100 A 
BRANCH   5   8
ATOM      8  C   UNL d   1      32.778  21.317 -20.593  0.00  0.00     0.064 A 
ATOM      9  C   UNL d   1      32.384  22.035 -20.644  0.00  0.00     0.018 A 
ATOM     10  C   UNL d   1      32.413  22.572 -20.021  0.00  0.00     0.002 A 
ATOM     11  C   UNL d   1      32.840  22.386 -19.340  0.00  0.00     0.000 A 
ATOM     12  C   UNL d   1      33.237  21.664 -19.286  0.00  0.00     0.002 A 
ATOM     13  C   UNL d   1      33.205  21.131 -19.912  0.00  0.00     0.018 A 
ENDBRANCH   5   8
ENDBRANCH   1   2
BRANCH   1  14
ATOM     14  C   UNL d   1      32.702  18.362 -22.964  0.00  0.00     0.132 C 
BRANCH  14  15
ATOM     15  N   UNL d   1      32.113  17.862 -23.292  0.00  0.00    -0.155 NA
BRANCH  15  16
ATOM     16  S   UNL d   1      32.178  17.048 -23.212  0.00  0.00     0.285 S 
ATOM     17  O   UNL d   1      32.234  16.225 -23.137  0.00  0.00    -0.198 OA
ATOM     18  O   UNL d   1      32.908  17.139 -22.828  0.00  0.00    -0.198 OA
BRANCH  16  19
ATOM     19  C   UNL d   1      31.447  16.961 -23.597  0.00  0.00     0.105 A 
ATOM     20  C   UNL d   1      30.769  17.308 -23.281  0.00  0.00     0.015 A 
ATOM     21  C   UNL d   1      30.038  17.227 -23.657  0.00  0.00     0.030 A 
ATOM     22  C   UNL d   1      29.996  16.786 -24.364  0.00  0.00     0.140 A 
ATOM     23  C   UNL d   1      30.674  16.439 -24.681  0.00  0.00     0.030 A 
ATOM     24  F   UNL d   1      29.257  16.699 -24.751  0.00  0.00    -0.204 F 
ATOM     25  C   UNL d   1      31.399  16.526 -24.297  0.00  0.00     0.015 A 
ENDBRANCH  16  19
ENDBRANCH  15  16
ENDBRANCH  14  15
ENDBRANCH   1  14
BRANCH   1  26
ATOM     26  C   UNL d   1      32.578  19.460 -23.880  0.00  0.00     0.118 A 
ATOM     27  O   UNL d   1      33.241  19.553 -24.358  0.00  0.00    -0.304 OA
ATOM     28  C   UNL d   1      32.989  19.839 -25.094  0.00  0.00     0.123 A 
ATOM     29  C   UNL d   1      32.178  19.920 -25.068  0.00  0.00     0.029 A 
ATOM     30  C   UNL d   1      31.921  19.686 -24.317  0.00  0.00     0.028 A 
ENDBRANCH   1  26
TORSDOF 7
ENDMDL
