MODEL 1
REMARK VINA RESULT:      -6.0      0.000      0.000
REMARK  7 active torsions:
REMARK  status: ('A' for Active; 'I' for Inactive)
REMARK    1  A    between atoms: C_4  and  C_1 
REMARK    2  A    between atoms: C_6  and  C_3 
REMARK       I    between atoms: N_13  and  C_6 
REMARK    3  A    between atoms: O_18  and  C_8 
REMARK    4  A    between atoms: O_19  and  C_10 
REMARK    5  A    between atoms: C_20  and  N_13 
REMARK    6  A    between atoms: C_15  and  C_22 
REMARK    7  A    between atoms: C_22  and  C_20 
ROOT
ATOM      1  C   UNL d   1     -43.336  12.995  21.537  0.00  0.00     0.302 C 
ATOM      2  O   UNL d   1     -43.351  12.190  21.706  0.00  0.00    -0.263 OA
ATOM      3  N   UNL d   1     -43.995  13.455  21.698  0.00  0.00    -0.205 NA
ENDROOT
BRANCH   1   4
ATOM      4  C   UNL d   1     -42.661  13.335  21.207  0.00  0.00     0.158 A 
ATOM      5  O   UNL d   1     -42.092  13.774  21.608  0.00  0.00    -0.302 OA
ATOM      6  C   UNL d   1     -41.518  14.003  21.062  0.00  0.00     0.101 A 
ATOM      7  C   UNL d   1     -41.732  13.706  20.317  0.00  0.00     0.027 A 
ATOM      8  C   UNL d   1     -42.444  13.290  20.410  0.00  0.00     0.032 A 
BRANCH   6   9
ATOM      9  C   UNL d   1     -40.851  14.449  21.226  0.00  0.00     0.033 A 
ATOM     10  C   UNL d   1     -40.865  15.269  21.110  0.00  0.00     0.060 A 
ATOM     11 CL   UNL d   1     -41.548  15.639  20.830  0.00  0.00    -0.082 Cl
ATOM     12  C   UNL d   1     -40.192  15.715  21.277  0.00  0.00     0.011 A 
ATOM     13  C   UNL d   1     -39.507  15.350  21.557  0.00  0.00     0.001 A 
ATOM     14  C   UNL d   1     -39.491  14.539  21.672  0.00  0.00     0.000 A 
ATOM     15  C   UNL d   1     -40.161  14.082  21.508  0.00  0.00     0.003 A 
ENDBRANCH   6   9
ENDBRANCH   1   4
BRANCH   3  16
ATOM     16  C   UNL d   1     -44.673  13.116  22.028  0.00  0.00     0.102 C 
BRANCH  16  17
ATOM     17  C   UNL d   1     -45.285  13.586  22.285  0.00  0.00     0.021 C 
BRANCH  17  18
ATOM     18  C   UNL d   1     -45.955  13.240  22.619  0.00  0.00     0.004 A 
ATOM     19  C   UNL d   1     -46.675  13.649  22.626  0.00  0.00     0.026 A 
ATOM     20  C   UNL d   1     -47.339  13.308  22.957  0.00  0.00     0.116 A 
ATOM     21  C   UNL d   1     -47.288  12.547  23.287  0.00  0.00     0.116 A 
ATOM     22  C   UNL d   1     -46.572  12.140  23.280  0.00  0.00     0.026 A 
ATOM     23  C   UNL d   1     -45.906  12.486  22.946  0.00  0.00     0.002 A 
BRANCH  20  24
ATOM     24  O   UNL d   1     -48.052  13.721  22.961  0.00  0.00    -0.326 OA
ATOM     25  C   UNL d   1     -48.084  14.488  22.641  0.00  0.00     0.181 C 
ENDBRANCH  20  24
BRANCH  21  26
ATOM     26  O   UNL d   1     -47.970  12.203  23.624  0.00  0.00    -0.326 OA
ATOM     27  C   UNL d   1     -48.003  11.384  23.698  0.00  0.00     0.181 C 
ENDBRANCH  21  26
ENDBRANCH  17  18
ENDBRANCH  16  17
ENDBRANCH   3  16
TORSDOF 7
ENDMDL
MODEL 2
REMARK VINA RESULT:      -5.7      3.152      7.023
REMARK  7 active torsions:
REMARK  status: ('A' for Active; 'I' for Inactive)
REMARK    1  A    between atoms: C_4  and  C_1 
REMARK    2  A    between atoms: C_6  and  C_3 
REMARK       I    between atoms: N_13  and  C_6 
REMARK    3  A    between atoms: O_18  and  C_8 
REMARK    4  A    between atoms: O_19  and  C_10 
REMARK    5  A    between atoms: C_20  and  N_13 
REMARK    6  A    between atoms: C_15  and  C_22 
REMARK    7  A    between atoms: C_22  and  C_20 
ROOT
ATOM      1  C   UNL d   1     -48.463  11.855  23.293  0.00  0.00     0.302 C 
ATOM      2  O   UNL d   1     -48.481  11.053  23.110  0.00  0.00    -0.263 OA
ATOM      3  N   UNL d   1     -47.744  12.219  23.446  0.00  0.00    -0.205 NA
ENDROOT
BRANCH   1   4
ATOM      4  C   UNL d   1     -49.164  12.288  23.321  0.00  0.00     0.158 A 
ATOM      5  O   UNL d   1     -49.260  13.074  23.098  0.00  0.00    -0.302 OA
ATOM      6  C   UNL d   1     -50.050  13.276  23.219  0.00  0.00     0.101 A 
ATOM      7  C   UNL d   1     -50.448  12.612  23.518  0.00  0.00     0.027 A 
ATOM      8  C   UNL d   1     -49.894  11.997  23.581  0.00  0.00     0.032 A 
BRANCH   6   9
ATOM      9  C   UNL d   1     -50.385  14.008  23.069  0.00  0.00     0.033 A 
ATOM     10  C   UNL d   1     -50.551  14.233  22.289  0.00  0.00     0.060 A 
ATOM     11 CL   UNL d   1     -50.379  13.723  21.662  0.00  0.00    -0.082 Cl
ATOM     12  C   UNL d   1     -50.888  14.971  22.141  0.00  0.00     0.011 A 
ATOM     13  C   UNL d   1     -51.062  15.484  22.763  0.00  0.00     0.001 A 
ATOM     14  C   UNL d   1     -50.898  15.263  23.535  0.00  0.00     0.000 A 
ATOM     15  C   UNL d   1     -50.560  14.526  23.695  0.00  0.00     0.003 A 
ENDBRANCH   6   9
ENDBRANCH   1   4
BRANCH   3  16
ATOM     16  C   UNL d   1     -47.040  11.787  23.419  0.00  0.00     0.102 C 
BRANCH  16  17
ATOM     17  C   UNL d   1     -46.377  12.103  23.070  0.00  0.00     0.021 C 
BRANCH  17  18
ATOM     18  C   UNL d   1     -45.655  11.708  23.131  0.00  0.00     0.004 A 
ATOM     19  C   UNL d   1     -45.005  11.961  22.684  0.00  0.00     0.026 A 
ATOM     20  C   UNL d   1     -44.289  11.571  22.743  0.00  0.00     0.116 A 
ATOM     21  C   UNL d   1     -44.218  10.919  23.253  0.00  0.00     0.116 A 
ATOM     22  C   UNL d   1     -44.865  10.669  23.697  0.00  0.00     0.026 A 
ATOM     23  C   UNL d   1     -45.583  11.063  23.636  0.00  0.00     0.002 A 
BRANCH  20  24
ATOM     24  O   UNL d   1     -43.646  11.827  22.296  0.00  0.00    -0.326 OA
ATOM     25  C   UNL d   1     -43.729  12.491  21.800  0.00  0.00     0.181 C 
ENDBRANCH  20  24
BRANCH  21  26
ATOM     26  O   UNL d   1     -43.484  10.525  23.309  0.00  0.00    -0.326 OA
ATOM     27  C   UNL d   1     -43.464   9.776  23.650  0.00  0.00     0.181 C 
ENDBRANCH  21  26
ENDBRANCH  17  18
ENDBRANCH  16  17
ENDBRANCH   3  16
TORSDOF 7
ENDMDL
MODEL 3
REMARK VINA RESULT:      -5.5      1.836      6.301
REMARK  7 active torsions:
REMARK  status: ('A' for Active; 'I' for Inactive)
REMARK    1  A    between atoms: C_4  and  C_1 
REMARK    2  A    between atoms: C_6  and  C_3 
REMARK       I    between atoms: N_13  and  C_6 
REMARK    3  A    between atoms: O_18  and  C_8 
REMARK    4  A    between atoms: O_19  and  C_10 
REMARK    5  A    between atoms: C_20  and  N_13 
REMARK    6  A    between atoms: C_15  and  C_22 
REMARK    7  A    between atoms: C_22  and  C_20 
ROOT
ATOM      1  C   UNL d   1     -43.570  12.895  21.533  0.00  0.00     0.302 C 
ATOM      2  O   UNL d   1     -43.304  12.232  21.126  0.00  0.00    -0.263 OA
ATOM      3  N   UNL d   1     -43.110  13.575  21.545  0.00  0.00    -0.205 NA
ENDROOT
BRANCH   1   4
ATOM      4  C   UNL d   1     -44.295  12.876  21.925  0.00  0.00     0.158 A 
ATOM      5  O   UNL d   1     -44.895  13.436  21.868  0.00  0.00    -0.302 OA
ATOM      6  C   UNL d   1     -45.515  13.193  22.353  0.00  0.00     0.101 A 
ATOM      7  C   UNL d   1     -45.300  12.478  22.715  0.00  0.00     0.027 A 
ATOM      8  C   UNL d   1     -44.540  12.282  22.447  0.00  0.00     0.032 A 
BRANCH   6   9
ATOM      9  C   UNL d   1     -46.223  13.590  22.460  0.00  0.00     0.033 A 
ATOM     10  C   UNL d   1     -46.935  13.232  22.233  0.00  0.00     0.060 A 
ATOM     11 CL   UNL d   1     -46.933  12.477  21.898  0.00  0.00    -0.082 Cl
ATOM     12  C   UNL d   1     -47.646  13.635  22.342  0.00  0.00     0.011 A 
ATOM     13  C   UNL d   1     -47.653  14.390  22.676  0.00  0.00     0.001 A 
ATOM     14  C   UNL d   1     -46.950  14.745  22.901  0.00  0.00     0.000 A 
ATOM     15  C   UNL d   1     -46.231  14.350  22.796  0.00  0.00     0.003 A 
ENDBRANCH   6   9
ENDBRANCH   1   4
BRANCH   3  16
ATOM     16  C   UNL d   1     -42.383  13.596  21.153  0.00  0.00     0.102 C 
BRANCH  16  17
ATOM     17  C   UNL d   1     -41.997  14.303  21.040  0.00  0.00     0.021 C 
BRANCH  17  18
ATOM     18  C   UNL d   1     -41.205  14.305  20.808  0.00  0.00     0.004 A 
ATOM     19  C   UNL d   1     -41.007  14.368  20.006  0.00  0.00     0.026 A 
ATOM     20  C   UNL d   1     -40.224  14.370  19.775  0.00  0.00     0.116 A 
ATOM     21  C   UNL d   1     -39.627  14.309  20.349  0.00  0.00     0.116 A 
ATOM     22  C   UNL d   1     -39.824  14.246  21.146  0.00  0.00     0.026 A 
ATOM     23  C   UNL d   1     -40.613  14.244  21.376  0.00  0.00     0.002 A 
BRANCH  20  24
ATOM     24  O   UNL d   1     -40.033  14.433  18.976  0.00  0.00    -0.326 OA
ATOM     25  C   UNL d   1     -40.628  14.628  18.426  0.00  0.00     0.181 C 
ENDBRANCH  20  24
BRANCH  21  26
ATOM     26  O   UNL d   1     -38.828  14.311  20.107  0.00  0.00    -0.326 OA
ATOM     27  C   UNL d   1     -38.243  14.197  20.675  0.00  0.00     0.181 C 
ENDBRANCH  21  26
ENDBRANCH  17  18
ENDBRANCH  16  17
ENDBRANCH   3  16
TORSDOF 7
ENDMDL
MODEL 4
REMARK VINA RESULT:      -5.4      2.228      3.183
REMARK  7 active torsions:
REMARK  status: ('A' for Active; 'I' for Inactive)
REMARK    1  A    between atoms: C_4  and  C_1 
REMARK    2  A    between atoms: C_6  and  C_3 
REMARK       I    between atoms: N_13  and  C_6 
REMARK    3  A    between atoms: O_18  and  C_8 
REMARK    4  A    between atoms: O_19  and  C_10 
REMARK    5  A    between atoms: C_20  and  N_13 
REMARK    6  A    between atoms: C_15  and  C_22 
REMARK    7  A    between atoms: C_22  and  C_20 
ROOT
ATOM      1  C   UNL d   1     -41.510  14.204  20.744  0.00  0.00     0.302 C 
ATOM      2  O   UNL d   1     -41.771  14.819  21.222  0.00  0.00    -0.263 OA
ATOM      3  N   UNL d   1     -41.912  13.489  20.748  0.00  0.00    -0.205 NA
ENDROOT
BRANCH   1   4
ATOM      4  C   UNL d   1     -40.847  14.306  20.264  0.00  0.00     0.158 A 
ATOM      5  O   UNL d   1     -40.803  14.159  19.456  0.00  0.00    -0.302 OA
ATOM      6  C   UNL d   1     -40.038  14.338  19.207  0.00  0.00     0.101 A 
ATOM      7  C   UNL d   1     -39.603  14.598  19.864  0.00  0.00     0.027 A 
ATOM      8  C   UNL d   1     -40.108  14.577  20.522  0.00  0.00     0.032 A 
BRANCH   6   9
ATOM      9  C   UNL d   1     -39.756  14.271  18.441  0.00  0.00     0.033 A 
ATOM     10  C   UNL d   1     -39.929  14.860  17.885  0.00  0.00     0.060 A 
ATOM     11 CL   UNL d   1     -40.385  15.514  18.099  0.00  0.00    -0.082 Cl
ATOM     12  C   UNL d   1     -39.643  14.789  17.115  0.00  0.00     0.011 A 
ATOM     13  C   UNL d   1     -39.187  14.137  16.896  0.00  0.00     0.001 A 
ATOM     14  C   UNL d   1     -39.015  13.553  17.445  0.00  0.00     0.000 A 
ATOM     15  C   UNL d   1     -39.296  13.614  18.220  0.00  0.00     0.003 A 
ENDBRANCH   6   9
ENDBRANCH   1   4
BRANCH   3  16
ATOM     16  C   UNL d   1     -42.576  13.384  21.228  0.00  0.00     0.102 C 
BRANCH  16  17
ATOM     17  C   UNL d   1     -43.010  12.698  21.186  0.00  0.00     0.021 C 
BRANCH  17  18
ATOM     18  C   UNL d   1     -43.669  12.599  21.673  0.00  0.00     0.004 A 
ATOM     19  C   UNL d   1     -43.681  11.992  22.237  0.00  0.00     0.026 A 
ATOM     20  C   UNL d   1     -44.332  11.892  22.720  0.00  0.00     0.116 A 
ATOM     21  C   UNL d   1     -44.982  12.404  22.643  0.00  0.00     0.116 A 
ATOM     22  C   UNL d   1     -44.969  13.008  22.082  0.00  0.00     0.026 A 
ATOM     23  C   UNL d   1     -44.313  13.105  21.598  0.00  0.00     0.002 A 
BRANCH  20  24
ATOM     24  O   UNL d   1     -44.338  11.286  23.279  0.00  0.00    -0.326 OA
ATOM     25  C   UNL d   1     -43.768  10.682  23.234  0.00  0.00     0.181 C 
ENDBRANCH  20  24
BRANCH  21  26
ATOM     26  O   UNL d   1     -45.645  12.298  23.140  0.00  0.00    -0.326 OA
ATOM     27  C   UNL d   1     -46.276  12.821  23.072  0.00  0.00     0.181 C 
ENDBRANCH  21  26
ENDBRANCH  17  18
ENDBRANCH  16  17
ENDBRANCH   3  16
TORSDOF 7
ENDMDL
MODEL 5
REMARK VINA RESULT:      -4.9      1.810      6.346
REMARK  7 active torsions:
REMARK  status: ('A' for Active; 'I' for Inactive)
REMARK    1  A    between atoms: C_4  and  C_1 
REMARK    2  A    between atoms: C_6  and  C_3 
REMARK       I    between atoms: N_13  and  C_6 
REMARK    3  A    between atoms: O_18  and  C_8 
REMARK    4  A    between atoms: O_19  and  C_10 
REMARK    5  A    between atoms: C_20  and  N_13 
REMARK    6  A    between atoms: C_15  and  C_22 
REMARK    7  A    between atoms: C_22  and  C_20 
ROOT
ATOM      1  C   UNL d   1     -44.541  12.804  22.117  0.00  0.00     0.302 C 
ATOM      2  O   UNL d   1     -44.266  12.071  22.369  0.00  0.00    -0.263 OA
ATOM      3  N   UNL d   1     -44.038  13.307  21.709  0.00  0.00    -0.205 NA
ENDROOT
BRANCH   1   4
ATOM      4  C   UNL d   1     -45.318  13.031  22.275  0.00  0.00     0.158 A 
ATOM      5  O   UNL d   1     -45.989  12.564  22.186  0.00  0.00    -0.302 OA
ATOM      6  C   UNL d   1     -46.643  13.014  22.407  0.00  0.00     0.101 A 
ATOM      7  C   UNL d   1     -46.377  13.767  22.635  0.00  0.00     0.027 A 
ATOM      8  C   UNL d   1     -45.552  13.775  22.552  0.00  0.00     0.032 A 
BRANCH   6   9
ATOM      9  C   UNL d   1     -47.422  12.762  22.403  0.00  0.00     0.033 A 
ATOM     10  C   UNL d   1     -47.718  12.328  23.043  0.00  0.00     0.060 A 
ATOM     11 CL   UNL d   1     -47.231  12.148  23.685  0.00  0.00    -0.082 Cl
ATOM     12  C   UNL d   1     -48.503  12.076  23.035  0.00  0.00     0.011 A 
ATOM     13  C   UNL d   1     -48.994  12.253  22.397  0.00  0.00     0.001 A 
ATOM     14  C   UNL d   1     -48.703  12.683  21.762  0.00  0.00     0.000 A 
ATOM     15  C   UNL d   1     -47.917  12.941  21.760  0.00  0.00     0.003 A 
ENDBRANCH   6   9
ENDBRANCH   1   4
BRANCH   3  16
ATOM     16  C   UNL d   1     -43.259  13.082  21.550  0.00  0.00     0.102 C 
BRANCH  16  17
ATOM     17  C   UNL d   1     -42.854  13.415  20.928  0.00  0.00     0.021 C 
BRANCH  17  18
ATOM     18  C   UNL d   1     -42.071  13.655  21.031  0.00  0.00     0.004 A 
ATOM     19  C   UNL d   1     -41.819  14.387  20.736  0.00  0.00     0.026 A 
ATOM     20  C   UNL d   1     -41.045  14.627  20.837  0.00  0.00     0.116 A 
ATOM     21  C   UNL d   1     -40.511  14.132  21.238  0.00  0.00     0.116 A 
ATOM     22  C   UNL d   1     -40.762  13.404  21.531  0.00  0.00     0.026 A 
ATOM     23  C   UNL d   1     -41.542  13.166  21.428  0.00  0.00     0.002 A 
BRANCH  20  24
ATOM     24  O   UNL d   1     -40.800  15.356  20.541  0.00  0.00    -0.326 OA
ATOM     25  C   UNL d   1     -41.370  15.920  20.318  0.00  0.00     0.181 C 
ENDBRANCH  20  24
BRANCH  21  26
ATOM     26  O   UNL d   1     -39.721  14.382  21.338  0.00  0.00    -0.326 OA
ATOM     27  C   UNL d   1     -39.198  13.886  21.734  0.00  0.00     0.181 C 
ENDBRANCH  21  26
ENDBRANCH  17  18
ENDBRANCH  16  17
ENDBRANCH   3  16
TORSDOF 7
ENDMDL
