MODEL 1
REMARK VINA RESULT:      26.8      0.000      0.000
REMARK  3 active torsions:
REMARK  status: ('A' for Active; 'I' for Inactive)
REMARK    1  A    between atoms: C_4  and  C_1 
REMARK       I    between atoms: N_6  and  C_4 
REMARK    2  A    between atoms: C_8  and  C_5 
REMARK    3  A    between atoms: C_7  and  N_6 
ROOT
ATOM      1  C   UNL d   1      46.218 -17.307  44.134  0.00  0.00     0.192 A 
ATOM      2  C   UNL d   1      46.280 -17.901  42.824  0.00  0.00     0.296 A 
ATOM      3  O   UNL d   1      46.245 -17.224  43.303  0.00  0.00    -0.290 OA
ATOM      4  C   UNL d   1      46.288 -18.657  43.162  0.00  0.00     0.063 A 
ATOM      5  C   UNL d   1      46.261 -18.731  43.993  0.00  0.00     0.004 A 
ATOM      6  C   UNL d   1      46.226 -18.062  44.477  0.00  0.00     0.010 A 
ATOM      7  O   UNL d   1      46.306 -17.820  42.006  0.00  0.00    -0.259 OA
ATOM      8  C   UNL d   1      46.192 -17.396  44.951  0.00  0.00     0.045 C 
ATOM      9  C   UNL d   1      46.269 -19.487  44.332  0.00  0.00    -0.000 A 
ATOM     10  C   UNL d   1      46.322 -19.323  42.689  0.00  0.00     0.005 A 
ATOM     11  C   UNL d   1      46.304 -20.152  43.845  0.00  0.00    -0.000 A 
ATOM     12  C   UNL d   1      46.330 -20.070  43.028  0.00  0.00     0.000 A 
ENDROOT
BRANCH   1  13
ATOM     13  C   UNL d   1      46.202 -16.501  44.000  0.00  0.00     0.285 C 
ATOM     14  N   UNL d   1      45.762 -16.010  44.497  0.00  0.00    -0.209 NA
ATOM     15  O   UNL d   1      46.626 -16.181  43.368  0.00  0.00    -0.267 OA
BRANCH  14  16
ATOM     16  C   UNL d   1      45.749 -15.199  44.358  0.00  0.00     0.090 A 
ATOM     17  C   UNL d   1      45.069 -14.773  44.513  0.00  0.00     0.082 A 
ATOM     18  C   UNL d   1      45.053 -13.959  44.374  0.00  0.00     0.008 A 
ATOM     19  C   UNL d   1      45.722 -13.578  44.080  0.00  0.00     0.000 A 
ATOM     20  C   UNL d   1      46.408 -14.014  43.924  0.00  0.00     0.002 A 
ATOM     21  C   UNL d   1      46.414 -14.824  44.066  0.00  0.00     0.019 A 
BRANCH  17  22
ATOM     22  C   UNL d   1      44.398 -15.158  44.808  0.00  0.00     0.212 C 
ATOM     23  O   UNL d   1      43.709 -14.724  44.952  0.00  0.00    -0.644 OA
ATOM     24  O   UNL d   1      44.421 -15.961  44.955  0.00  0.00    -0.644 OA
ENDBRANCH  17  22
ENDBRANCH  14  16
ENDBRANCH   1  13
TORSDOF 3
ENDMDL
