MODEL 1
REMARK VINA RESULT:      82.9      0.000      0.000
REMARK  6 active torsions:
REMARK  status: ('A' for Active; 'I' for Inactive)
REMARK    1  A    between atoms: N_2  and  S_1 
REMARK    2  A    between atoms: C_5  and  S_1 
REMARK    3  A    between atoms: C_4  and  C_3 
REMARK       I    between atoms: N_6  and  C_4 
REMARK    4  A    between atoms: C_15  and  N_6 
REMARK    5  A    between atoms: C_9  and  C_10 
REMARK    6  A    between atoms: O_20  and  C_9 
ROOT
ATOM      1  N   UNL d   1     -50.101  25.390  33.514  0.00  0.00    -0.226 N 
ATOM      2  C   UNL d   1     -49.355  25.666  33.741  0.00  0.00     0.133 A 
ATOM      3  C   UNL d   1     -50.035  24.593  33.323  0.00  0.00     0.092 A 
ATOM      4  C   UNL d   1     -48.829  25.030  33.689  0.00  0.00     0.025 A 
ATOM      5  C   UNL d   1     -49.252  24.371  33.432  0.00  0.00     0.021 A 
ENDROOT
BRANCH   2   6
ATOM      6  C   UNL d   1     -49.172  26.437  33.977  0.00  0.00     0.296 C 
ATOM      7  N   UNL d   1     -48.729  26.546  34.661  0.00  0.00    -0.207 NA
ATOM      8  O   UNL d   1     -49.431  27.077  33.533  0.00  0.00    -0.264 OA
BRANCH   7   9
ATOM      9  C   UNL d   1     -48.544  27.319  34.899  0.00  0.00     0.085 A 
ATOM     10  C   UNL d   1     -47.915  27.727  34.545  0.00  0.00     0.019 A 
ATOM     11  C   UNL d   1     -47.733  28.492  34.782  0.00  0.00     0.007 A 
ATOM     12  C   UNL d   1     -48.178  28.860  35.375  0.00  0.00     0.063 A 
ATOM     13  C   UNL d   1     -48.808  28.452  35.730  0.00  0.00     0.007 A 
ATOM     14  C   UNL d   1     -48.990  27.680  35.490  0.00  0.00     0.019 A 
BRANCH  12  15
ATOM     15  C   UNL d   1     -48.000  29.623  35.614  0.00  0.00     0.296 C 
ATOM     16  O   UNL d   1     -48.349  29.942  36.296  0.00  0.00    -0.259 OA
BRANCH  15  17
ATOM     17  O   UNL d   1     -47.467  30.085  35.175  0.00  0.00    -0.296 OA
ATOM     18  C   UNL d   1     -47.619  30.884  35.042  0.00  0.00     0.185 C 
ENDBRANCH  15  17
ENDBRANCH  12  15
ENDBRANCH   7   9
ENDBRANCH   2   6
BRANCH   1  19
ATOM     19  S   UNL d   1     -50.760  25.890  33.503  0.00  0.00     0.271 S 
ATOM     20  O   UNL d   1     -51.193  25.219  33.313  0.00  0.00    -0.200 OA
ATOM     21  O   UNL d   1     -50.312  26.561  33.695  0.00  0.00    -0.200 OA
BRANCH  19  22
ATOM     22  C   UNL d   1     -51.444  26.344  33.480  0.00  0.00     0.104 A 
ATOM     23  C   UNL d   1     -51.397  27.154  33.335  0.00  0.00     0.013 A 
ATOM     24  C   UNL d   1     -52.086  27.607  33.313  0.00  0.00     0.001 A 
ATOM     25  C   UNL d   1     -52.820  27.250  33.435  0.00  0.00     0.000 A 
ATOM     26  C   UNL d   1     -52.864  26.438  33.580  0.00  0.00     0.001 A 
ATOM     27  C   UNL d   1     -53.510  27.703  33.413  0.00  0.00     0.000 C 
ATOM     28  C   UNL d   1     -52.179  25.979  33.604  0.00  0.00     0.013 A 
ENDBRANCH  19  22
ENDBRANCH   1  19
TORSDOF 6
ENDMDL
