MODEL 1
REMARK VINA RESULT:      -3.6      0.000      0.000
REMARK  6 active torsions:
REMARK  status: ('A' for Active; 'I' for Inactive)
REMARK    1  A    between atoms: N_14  and  C_6 
REMARK    2  A    between atoms: C_20  and  N_14 
REMARK    3  A    between atoms: O_19  and  C_22 
REMARK    4  A    between atoms: C_23  and  O_19 
REMARK    5  A    between atoms: C_22  and  C_20 
REMARK    6  A    between atoms: C_21  and  C_23 
ROOT
ATOM      1  N   UNL d   1      58.531  -0.770  29.956  0.00  0.00    -0.193 N 
ATOM      2  C   UNL d   1      59.115  -1.078  29.454  0.00  0.00     0.168 A 
ATOM      3  C   UNL d   1      59.082  -1.856  29.203  0.00  0.00     0.073 A 
ATOM      4  C   UNL d   1      58.462  -2.324  29.458  0.00  0.00     0.185 A 
ATOM      5  N   UNL d   1      57.878  -2.016  29.961  0.00  0.00    -0.143 NA
ATOM      6  C   UNL d   1      58.582   0.010  30.196  0.00  0.00     0.167 A 
ATOM      7  N   UNL d   1      59.734  -0.598  29.204  0.00  0.00    -0.227 NA
ATOM      8  C   UNL d   1      59.659  -2.161  28.706  0.00  0.00     0.007 A 
ATOM      9  N   UNL d   1      58.414  -3.114  29.214  0.00  0.00    -0.225 NA
ATOM     10  C   UNL d   1      59.192   0.489  29.951  0.00  0.00     0.058 A 
ATOM     11  C   UNL d   1      59.626  -2.939  28.456  0.00  0.00     0.019 A 
ATOM     12  C   UNL d   1      59.776   0.180  29.449  0.00  0.00     0.086 A 
ATOM     13  C   UNL d   1      58.998  -3.422  28.711  0.00  0.00     0.083 A 
ATOM     14  C   UNL d   1      60.280  -1.678  28.456  0.00  0.00     0.000 C 
ATOM     15  C   UNL d   1      60.417   0.682  29.191  0.00  0.00     0.021 C 
ATOM     16  C   UNL d   1      58.959  -4.198  28.465  0.00  0.00     0.021 C 
ENDROOT
BRANCH   6  17
ATOM     17  N   UNL d   1      57.976   0.320  30.714  0.00  0.00    -0.223 NA
BRANCH  17  18
ATOM     18  C   UNL d   1      57.684   0.662  31.430  0.00  0.00     0.127 C 
BRANCH  18  19
ATOM     19  C   UNL d   1      56.859   0.578  31.633  0.00  0.00     0.143 C 
BRANCH  19  20
ATOM     20  O   UNL d   1      56.627   0.436  32.438  0.00  0.00    -0.298 OA
BRANCH  20  21
ATOM     21  C   UNL d   1      55.800   0.420  32.652  0.00  0.00     0.168 C 
BRANCH  21  22
ATOM     22  C   UNL d   1      55.544  -0.044  33.321  0.00  0.00     0.261 C 
ATOM     23  O   UNL d   1      54.827   0.173  33.736  0.00  0.00    -0.281 OA
ENDBRANCH  21  22
ENDBRANCH  20  21
ENDBRANCH  19  20
ENDBRANCH  18  19
ENDBRANCH  17  18
ENDBRANCH   6  17
TORSDOF 6
ENDMDL
MODEL 2
REMARK VINA RESULT:      -2.3      2.385      4.850
REMARK  6 active torsions:
REMARK  status: ('A' for Active; 'I' for Inactive)
REMARK    1  A    between atoms: N_14  and  C_6 
REMARK    2  A    between atoms: C_20  and  N_14 
REMARK    3  A    between atoms: O_19  and  C_22 
REMARK    4  A    between atoms: C_23  and  O_19 
REMARK    5  A    between atoms: C_22  and  C_20 
REMARK    6  A    between atoms: C_21  and  C_23 
ROOT
ATOM      1  N   UNL d   1      57.632  -1.247  30.643  0.00  0.00    -0.193 N 
ATOM      2  C   UNL d   1      57.612  -0.603  31.166  0.00  0.00     0.168 A 
ATOM      3  C   UNL d   1      57.086  -0.591  31.793  0.00  0.00     0.073 A 
ATOM      4  C   UNL d   1      56.580  -1.226  31.893  0.00  0.00     0.185 A 
ATOM      5  N   UNL d   1      56.600  -1.870  31.369  0.00  0.00    -0.143 NA
ATOM      6  C   UNL d   1      58.164  -1.241  30.023  0.00  0.00     0.167 A 
ATOM      7  N   UNL d   1      58.124   0.029  31.055  0.00  0.00    -0.227 NA
ATOM      8  C   UNL d   1      57.066   0.045  32.311  0.00  0.00     0.007 A 
ATOM      9  N   UNL d   1      56.042  -1.229  32.523  0.00  0.00    -0.225 NA
ATOM     10  C   UNL d   1      58.673  -0.618  29.909  0.00  0.00     0.058 A 
ATOM     11  C   UNL d   1      56.541   0.057  32.937  0.00  0.00     0.019 A 
ATOM     12  C   UNL d   1      58.653   0.026  30.432  0.00  0.00     0.086 A 
ATOM     13  C   UNL d   1      56.022  -0.585  33.046  0.00  0.00     0.083 A 
ATOM     14  C   UNL d   1      57.582   0.680  32.199  0.00  0.00     0.000 C 
ATOM     15  C   UNL d   1      59.188   0.682  30.314  0.00  0.00     0.021 C 
ATOM     16  C   UNL d   1      55.496  -0.580  33.668  0.00  0.00     0.021 C 
ENDROOT
BRANCH   6  17
ATOM     17  N   UNL d   1      58.178  -1.908  29.487  0.00  0.00    -0.223 NA
BRANCH  17  18
ATOM     18  C   UNL d   1      58.403  -2.319  28.784  0.00  0.00     0.127 C 
BRANCH  18  19
ATOM     19  C   UNL d   1      58.737  -3.102  28.840  0.00  0.00     0.143 C 
BRANCH  19  20
ATOM     20  O   UNL d   1      59.525  -3.255  28.563  0.00  0.00    -0.298 OA
BRANCH  20  21
ATOM     21  C   UNL d   1      59.831  -4.051  28.548  0.00  0.00     0.168 C 
BRANCH  21  22
ATOM     22  C   UNL d   1      60.673  -4.184  28.602  0.00  0.00     0.261 C 
ATOM     23  O   UNL d   1      60.979  -4.983  28.559  0.00  0.00    -0.281 OA
ENDBRANCH  21  22
ENDBRANCH  20  21
ENDBRANCH  19  20
ENDBRANCH  18  19
ENDBRANCH  17  18
ENDBRANCH   6  17
TORSDOF 6
ENDMDL
MODEL 3
REMARK VINA RESULT:      -1.3      8.988      9.135
REMARK  6 active torsions:
REMARK  status: ('A' for Active; 'I' for Inactive)
REMARK    1  A    between atoms: N_14  and  C_6 
REMARK    2  A    between atoms: C_20  and  N_14 
REMARK    3  A    between atoms: O_19  and  C_22 
REMARK    4  A    between atoms: C_23  and  O_19 
REMARK    5  A    between atoms: C_22  and  C_20 
REMARK    6  A    between atoms: C_21  and  C_23 
ROOT
ATOM      1  N   UNL d   1      58.829  -9.818  31.400  0.00  0.00    -0.193 N 
ATOM      2  C   UNL d   1      58.924  -9.818  30.575  0.00  0.00     0.168 A 
ATOM      3  C   UNL d   1      58.272  -9.818  30.080  0.00  0.00     0.073 A 
ATOM      4  C   UNL d   1      57.526  -9.818  30.414  0.00  0.00     0.185 A 
ATOM      5  N   UNL d   1      57.431  -9.818  31.239  0.00  0.00    -0.143 NA
ATOM      6  C   UNL d   1      59.492  -9.818  31.877  0.00  0.00     0.167 A 
ATOM      7  N   UNL d   1      59.679  -9.818  30.251  0.00  0.00    -0.227 NA
ATOM      8  C   UNL d   1      58.366  -9.818  29.265  0.00  0.00     0.007 A 
ATOM      9  N   UNL d   1      56.856  -9.818  29.927  0.00  0.00    -0.225 NA
ATOM     10  C   UNL d   1      60.240  -9.818  31.562  0.00  0.00     0.058 A 
ATOM     11  C   UNL d   1      57.715  -9.818  28.770  0.00  0.00     0.019 A 
ATOM     12  C   UNL d   1      60.335  -9.818  30.737  0.00  0.00     0.086 A 
ATOM     13  C   UNL d   1      56.951  -9.818  29.102  0.00  0.00     0.083 A 
ATOM     14  C   UNL d   1      59.125  -9.818  28.940  0.00  0.00     0.000 C 
ATOM     15  C   UNL d   1      61.122  -9.818  30.404  0.00  0.00     0.021 C 
ATOM     16  C   UNL d   1      56.298  -9.818  28.615  0.00  0.00     0.021 C 
ENDROOT
BRANCH   6  17
ATOM     17  N   UNL d   1      59.385  -9.818  32.727  0.00  0.00    -0.223 NA
BRANCH  17  18
ATOM     18  C   UNL d   1      59.645  -9.776  33.529  0.00  0.00     0.127 C 
BRANCH  18  19
ATOM     19  C   UNL d   1      59.085  -9.597  34.147  0.00  0.00     0.143 C 
BRANCH  19  20
ATOM     20  O   UNL d   1      59.295  -9.070  34.779  0.00  0.00    -0.298 OA
BRANCH  20  21
ATOM     21  C   UNL d   1      59.126  -9.278  35.590  0.00  0.00     0.168 C 
BRANCH  21  22
ATOM     22  C   UNL d   1      59.414  -8.785  36.224  0.00  0.00     0.261 C 
ATOM     23  O   UNL d   1      59.475  -7.939  36.108  0.00  0.00    -0.281 OA
ENDBRANCH  21  22
ENDBRANCH  20  21
ENDBRANCH  19  20
ENDBRANCH  18  19
ENDBRANCH  17  18
ENDBRANCH   6  17
TORSDOF 6
ENDMDL
MODEL 4
REMARK VINA RESULT:      -1.0      2.159      5.142
REMARK  6 active torsions:
REMARK  status: ('A' for Active; 'I' for Inactive)
REMARK    1  A    between atoms: N_14  and  C_6 
REMARK    2  A    between atoms: C_20  and  N_14 
REMARK    3  A    between atoms: O_19  and  C_22 
REMARK    4  A    between atoms: C_23  and  O_19 
REMARK    5  A    between atoms: C_22  and  C_20 
REMARK    6  A    between atoms: C_21  and  C_23 
ROOT
ATOM      1  N   UNL d   1      57.321   0.466  31.727  0.00  0.00    -0.193 N 
ATOM      2  C   UNL d   1      57.318   0.527  32.555  0.00  0.00     0.168 A 
ATOM      3  C   UNL d   1      56.614   0.517  32.972  0.00  0.00     0.073 A 
ATOM      4  C   UNL d   1      55.914   0.446  32.557  0.00  0.00     0.185 A 
ATOM      5  N   UNL d   1      55.916   0.385  31.729  0.00  0.00    -0.143 NA
ATOM      6  C   UNL d   1      58.034   0.477  31.329  0.00  0.00     0.167 A 
ATOM      7  N   UNL d   1      58.029   0.598  32.961  0.00  0.00    -0.227 NA
ATOM      8  C   UNL d   1      56.612   0.577  33.791  0.00  0.00     0.007 A 
ATOM      9  N   UNL d   1      55.193   0.435  32.965  0.00  0.00    -0.225 NA
ATOM     10  C   UNL d   1      58.739   0.547  31.725  0.00  0.00     0.058 A 
ATOM     11  C   UNL d   1      55.909   0.568  34.208  0.00  0.00     0.019 A 
ATOM     12  C   UNL d   1      58.737   0.608  32.553  0.00  0.00     0.086 A 
ATOM     13  C   UNL d   1      55.190   0.496  33.793  0.00  0.00     0.083 A 
ATOM     14  C   UNL d   1      57.327   0.649  34.198  0.00  0.00     0.000 C 
ATOM     15  C   UNL d   1      59.478   0.682  32.972  0.00  0.00     0.021 C 
ATOM     16  C   UNL d   1      54.486   0.485  34.202  0.00  0.00     0.021 C 
ENDROOT
BRANCH   6  17
ATOM     17  N   UNL d   1      58.027   0.414  30.475  0.00  0.00    -0.223 NA
BRANCH  17  18
ATOM     18  C   UNL d   1      58.348   0.205  29.722  0.00  0.00     0.127 C 
BRANCH  18  19
ATOM     19  C   UNL d   1      58.236  -0.585  29.419  0.00  0.00     0.143 C 
BRANCH  19  20
ATOM     20  O   UNL d   1      58.820  -0.939  28.914  0.00  0.00    -0.298 OA
BRANCH  20  21
ATOM     21  C   UNL d   1      58.803  -1.779  28.758  0.00  0.00     0.168 C 
BRANCH  21  22
ATOM     22  C   UNL d   1      59.533  -2.221  28.738  0.00  0.00     0.261 C 
ATOM     23  O   UNL d   1      59.515  -3.071  28.843  0.00  0.00    -0.281 OA
ENDBRANCH  21  22
ENDBRANCH  20  21
ENDBRANCH  19  20
ENDBRANCH  18  19
ENDBRANCH  17  18
ENDBRANCH   6  17
TORSDOF 6
ENDMDL
