MODEL 1
REMARK VINA RESULT:      -7.7      0.000      0.000
REMARK  4 active torsions:
REMARK  status: ('A' for Active; 'I' for Inactive)
REMARK    1  A    between atoms: C_6  and  S_1 
REMARK    2  A    between atoms: N_12  and  S_1 
REMARK    3  A    between atoms: N_4  and  C_2 
REMARK       I    between atoms: C_7  and  N_4 
REMARK    4  A    between atoms: C_10  and  C_7 
ROOT
ATOM      1  C   UNL d   1      50.200  34.560  52.696  0.00  0.00     0.197 A 
ATOM      2  N   UNL d   1      50.892  35.008  52.708  0.00  0.00    -0.221 NA
ATOM      3  S   UNL d   1      50.392  33.782  52.892  0.00  0.00    -0.047 SA
ATOM      4  C   UNL d   1      52.516  33.257  53.333  0.00  0.00     0.105 A 
ATOM      5  C   UNL d   1      51.210  33.749  53.026  0.00  0.00     0.051 A 
ATOM      6  C   UNL d   1      51.523  34.503  52.913  0.00  0.00     0.090 A 
ATOM      7  C   UNL d   1      51.708  33.123  53.236  0.00  0.00     0.021 A 
ATOM      8  C   UNL d   1      52.828  34.020  53.219  0.00  0.00     0.015 A 
ATOM      9  C   UNL d   1      52.332  34.637  53.010  0.00  0.00     0.020 A 
ENDROOT
BRANCH   1  10
ATOM     10  N   UNL d   1      49.445  34.843  52.519  0.00  0.00    -0.182 NA
ATOM     11  C   UNL d   1      49.056  35.374  52.994  0.00  0.00     0.287 C 
ATOM     12  O   UNL d   1      49.414  35.650  53.678  0.00  0.00    -0.265 OA
BRANCH  11  13
ATOM     13  C   UNL d   1      48.313  35.641  52.803  0.00  0.00     0.087 A 
ATOM     14  S   UNL d   1      47.944  36.064  53.386  0.00  0.00    -0.082 SA
ATOM     15  C   UNL d   1      47.209  36.298  53.128  0.00  0.00     0.036 A 
ATOM     16  C   UNL d   1      47.118  36.012  52.359  0.00  0.00     0.008 A 
ATOM     17  C   UNL d   1      47.795  35.607  52.154  0.00  0.00     0.012 A 
ENDBRANCH  11  13
ENDBRANCH   1  10
BRANCH   4  18
ATOM     18  S   UNL d   1      53.021  32.642  53.542  0.00  0.00     0.272 S 
ATOM     19  O   UNL d   1      53.074  33.131  54.425  0.00  0.00    -0.200 OA
ATOM     20  O   UNL d   1      53.018  32.108  52.705  0.00  0.00    -0.200 OA
BRANCH  18  21
ATOM     21  N   UNL d   1      53.537  32.130  53.934  0.00  0.00    -0.226 N 
ATOM     22  C   UNL d   1      53.660  31.367  53.637  0.00  0.00     0.111 C 
ATOM     23  C   UNL d   1      53.928  32.377  54.617  0.00  0.00     0.111 C 
ENDBRANCH  18  21
ENDBRANCH   4  18
TORSDOF 4
ENDMDL
MODEL 2
REMARK VINA RESULT:      -7.1      1.480      2.031
REMARK  4 active torsions:
REMARK  status: ('A' for Active; 'I' for Inactive)
REMARK    1  A    between atoms: C_6  and  S_1 
REMARK    2  A    between atoms: N_12  and  S_1 
REMARK    3  A    between atoms: N_4  and  C_2 
REMARK       I    between atoms: C_7  and  N_4 
REMARK    4  A    between atoms: C_10  and  C_7 
ROOT
ATOM      1  C   UNL d   1      51.419  33.913  52.476  0.00  0.00     0.197 A 
ATOM      2  N   UNL d   1      51.668  33.134  52.581  0.00  0.00    -0.221 NA
ATOM      3  S   UNL d   1      51.907  34.404  52.925  0.00  0.00    -0.047 SA
ATOM      4  C   UNL d   1      53.554  33.502  54.131  0.00  0.00     0.105 A 
ATOM      5  C   UNL d   1      52.463  33.924  53.311  0.00  0.00     0.051 A 
ATOM      6  C   UNL d   1      52.319  33.139  53.102  0.00  0.00     0.090 A 
ATOM      7  C   UNL d   1      53.082  34.106  53.827  0.00  0.00     0.021 A 
ATOM      8  C   UNL d   1      53.406  32.710  53.918  0.00  0.00     0.015 A 
ATOM      9  C   UNL d   1      52.791  32.534  53.406  0.00  0.00     0.020 A 
ENDROOT
BRANCH   1  10
ATOM     10  N   UNL d   1      50.789  34.159  52.003  0.00  0.00    -0.182 NA
ATOM     11  C   UNL d   1      50.048  34.299  52.302  0.00  0.00     0.287 C 
ATOM     12  O   UNL d   1      49.904  34.198  53.103  0.00  0.00    -0.265 OA
BRANCH  11  13
ATOM     13  C   UNL d   1      49.440  34.541  51.820  0.00  0.00     0.087 A 
ATOM     14  S   UNL d   1      48.878  34.996  52.184  0.00  0.00    -0.082 SA
ATOM     15  C   UNL d   1      48.304  35.200  51.647  0.00  0.00     0.036 A 
ATOM     16  C   UNL d   1      48.515  34.861  50.923  0.00  0.00     0.008 A 
ATOM     17  C   UNL d   1      49.214  34.454  51.025  0.00  0.00     0.012 A 
ENDBRANCH  11  13
ENDBRANCH   1  10
BRANCH   4  18
ATOM     18  S   UNL d   1      54.174  33.671  54.646  0.00  0.00     0.272 S 
ATOM     19  O   UNL d   1      54.691  33.031  54.058  0.00  0.00    -0.200 OA
ATOM     20  O   UNL d   1      53.730  34.307  55.265  0.00  0.00    -0.200 OA
BRANCH  18  21
ATOM     21  N   UNL d   1      54.899  33.706  55.038  0.00  0.00    -0.226 N 
ATOM     22  C   UNL d   1      54.927  33.594  55.858  0.00  0.00     0.111 C 
ATOM     23  C   UNL d   1      55.593  33.853  54.615  0.00  0.00     0.111 C 
ENDBRANCH  18  21
ENDBRANCH   4  18
TORSDOF 4
ENDMDL
MODEL 3
REMARK VINA RESULT:      -6.6      1.318      5.182
REMARK  4 active torsions:
REMARK  status: ('A' for Active; 'I' for Inactive)
REMARK    1  A    between atoms: C_6  and  S_1 
REMARK    2  A    between atoms: N_12  and  S_1 
REMARK    3  A    between atoms: N_4  and  C_2 
REMARK       I    between atoms: C_7  and  N_4 
REMARK    4  A    between atoms: C_10  and  C_7 
ROOT
ATOM      1  C   UNL d   1      51.441  33.739  53.160  0.00  0.00     0.197 A 
ATOM      2  N   UNL d   1      51.332  33.713  52.343  0.00  0.00    -0.221 NA
ATOM      3  S   UNL d   1      50.799  34.134  53.494  0.00  0.00    -0.047 SA
ATOM      4  C   UNL d   1      49.176  34.903  52.169  0.00  0.00     0.105 A 
ATOM      5  C   UNL d   1      50.289  34.355  52.879  0.00  0.00     0.051 A 
ATOM      6  C   UNL d   1      50.614  34.097  52.166  0.00  0.00     0.090 A 
ATOM      7  C   UNL d   1      49.568  34.760  52.880  0.00  0.00     0.021 A 
ATOM      8  C   UNL d   1      49.508  34.641  51.451  0.00  0.00     0.015 A 
ATOM      9  C   UNL d   1      50.222  34.241  51.454  0.00  0.00     0.020 A 
ENDROOT
BRANCH   1  10
ATOM     10  N   UNL d   1      52.082  33.423  53.571  0.00  0.00    -0.182 NA
ATOM     11  C   UNL d   1      52.769  33.838  53.694  0.00  0.00     0.287 C 
ATOM     12  O   UNL d   1      52.843  34.602  53.405  0.00  0.00    -0.265 OA
BRANCH  11  13
ATOM     13  C   UNL d   1      53.390  33.510  54.102  0.00  0.00     0.087 A 
ATOM     14  S   UNL d   1      53.711  33.986  54.673  0.00  0.00    -0.082 SA
ATOM     15  C   UNL d   1      54.324  33.597  55.038  0.00  0.00     0.036 A 
ATOM     16  C   UNL d   1      54.387  32.853  54.683  0.00  0.00     0.008 A 
ATOM     17  C   UNL d   1      53.814  32.795  54.106  0.00  0.00     0.012 A 
ENDBRANCH  11  13
ENDBRANCH   1  10
BRANCH   4  18
ATOM     18  S   UNL d   1      48.458  35.305  52.157  0.00  0.00     0.272 S 
ATOM     19  O   UNL d   1      48.387  34.929  51.222  0.00  0.00    -0.200 OA
ATOM     20  O   UNL d   1      48.459  35.708  53.064  0.00  0.00    -0.200 OA
BRANCH  18  21
ATOM     21  N   UNL d   1      47.726  35.628  51.952  0.00  0.00    -0.226 N 
ATOM     22  C   UNL d   1      47.444  36.291  52.359  0.00  0.00     0.111 C 
ATOM     23  C   UNL d   1      47.280  35.292  51.345  0.00  0.00     0.111 C 
ENDBRANCH  18  21
ENDBRANCH   4  18
TORSDOF 4
ENDMDL
