MODEL 1
REMARK VINA RESULT:      -7.6      0.000      0.000
REMARK  3 active torsions:
REMARK  status: ('A' for Active; 'I' for Inactive)
REMARK    1  A    between atoms: C_2  and  C_1 
REMARK    2  A    between atoms: C_4  and  C_1 
REMARK    3  A    between atoms: C_3  and  C_2 
ROOT
ATOM      1  C   UNL d   1     -47.777  13.835  22.962  0.00  0.00     0.000 A 
ATOM      2  C   UNL d   1     -47.699  13.038  23.186  0.00  0.00     0.000 A 
ATOM      3  C   UNL d   1     -46.966  12.704  23.223  0.00  0.00     0.000 A 
ATOM      4  C   UNL d   1     -46.359  13.945  22.815  0.00  0.00     0.000 A 
ATOM      5  C   UNL d   1     -47.109  14.286  22.777  0.00  0.00     0.000 A 
ATOM      6  C   UNL d   1     -48.359  12.603  23.365  0.00  0.00     0.000 A 
ATOM      7  C   UNL d   1     -46.278  13.151  23.038  0.00  0.00     0.000 A 
ATOM      8  C   UNL d   1     -46.860  11.919  23.442  0.00  0.00     0.000 A 
ATOM      9  C   UNL d   1     -48.277  11.813  23.587  0.00  0.00     0.000 A 
ATOM     10  C   UNL d   1     -47.527  11.471  23.625  0.00  0.00     0.000 A 
ENDROOT
BRANCH   1  11
ATOM     11  C   UNL d   1     -48.528  14.177  22.923  0.00  0.00     0.006 C 
BRANCH  11  12
ATOM     12  C   UNL d   1     -48.613  14.965  22.752  0.00  0.00     0.070 C 
BRANCH  12  13
ATOM     13  C   UNL d   1     -49.364  15.331  22.796  0.00  0.00     0.211 C 
ATOM     14  O   UNL d   1     -49.624  15.676  23.488  0.00  0.00    -0.644 OA
ATOM     15  O   UNL d   1     -49.862  15.350  22.138  0.00  0.00    -0.644 OA
ENDBRANCH  12  13
ENDBRANCH  11  12
ENDBRANCH   1  11
TORSDOF 3
ENDMDL
MODEL 2
REMARK VINA RESULT:      -7.6      2.085      3.044
REMARK  3 active torsions:
REMARK  status: ('A' for Active; 'I' for Inactive)
REMARK    1  A    between atoms: C_2  and  C_1 
REMARK    2  A    between atoms: C_4  and  C_1 
REMARK    3  A    between atoms: C_3  and  C_2 
ROOT
ATOM      1  C   UNL d   1     -48.226  13.972  22.463  0.00  0.00     0.000 A 
ATOM      2  C   UNL d   1     -48.885  13.600  22.120  0.00  0.00     0.000 A 
ATOM      3  C   UNL d   1     -49.566  14.016  22.008  0.00  0.00     0.000 A 
ATOM      4  C   UNL d   1     -48.961  15.195  22.573  0.00  0.00     0.000 A 
ATOM      5  C   UNL d   1     -48.264  14.768  22.688  0.00  0.00     0.000 A 
ATOM      6  C   UNL d   1     -48.839  12.819  21.902  0.00  0.00     0.000 A 
ATOM      7  C   UNL d   1     -49.619  14.826  22.232  0.00  0.00     0.000 A 
ATOM      8  C   UNL d   1     -50.232  13.673  21.672  0.00  0.00     0.000 A 
ATOM      9  C   UNL d   1     -49.495  12.453  21.563  0.00  0.00     0.000 A 
ATOM     10  C   UNL d   1     -50.192  12.880  21.448  0.00  0.00     0.000 A 
ENDROOT
BRANCH   1  11
ATOM     11  C   UNL d   1     -47.528  13.545  22.578  0.00  0.00     0.006 C 
BRANCH  11  12
ATOM     12  C   UNL d   1     -46.892  13.888  22.946  0.00  0.00     0.070 C 
BRANCH  12  13
ATOM     13  C   UNL d   1     -46.190  13.451  23.075  0.00  0.00     0.211 C 
ATOM     14  O   UNL d   1     -46.130  12.927  23.698  0.00  0.00    -0.644 OA
ATOM     15  O   UNL d   1     -45.540  13.541  22.574  0.00  0.00    -0.644 OA
ENDBRANCH  12  13
ENDBRANCH  11  12
ENDBRANCH   1  11
TORSDOF 3
ENDMDL
MODEL 3
REMARK VINA RESULT:      -7.5      1.979      3.321
REMARK  3 active torsions:
REMARK  status: ('A' for Active; 'I' for Inactive)
REMARK    1  A    between atoms: C_2  and  C_1 
REMARK    2  A    between atoms: C_4  and  C_1 
REMARK    3  A    between atoms: C_3  and  C_2 
ROOT
ATOM      1  C   UNL d   1     -48.227  13.648  22.236  0.00  0.00     0.000 A 
ATOM      2  C   UNL d   1     -48.858  14.170  22.378  0.00  0.00     0.000 A 
ATOM      3  C   UNL d   1     -49.565  14.052  22.010  0.00  0.00     0.000 A 
ATOM      4  C   UNL d   1     -49.045  12.886  21.344  0.00  0.00     0.000 A 
ATOM      5  C   UNL d   1     -48.321  13.007  21.721  0.00  0.00     0.000 A 
ATOM      6  C   UNL d   1     -48.757  14.796  22.885  0.00  0.00     0.000 A 
ATOM      7  C   UNL d   1     -49.675  13.405  21.483  0.00  0.00     0.000 A 
ATOM      8  C   UNL d   1     -50.205  14.553  22.132  0.00  0.00     0.000 A 
ATOM      9  C   UNL d   1     -49.384  15.312  23.023  0.00  0.00     0.000 A 
ATOM     10  C   UNL d   1     -50.108  15.191  22.646  0.00  0.00     0.000 A 
ENDROOT
BRANCH   1  11
ATOM     11  C   UNL d   1     -47.502  13.769  22.613  0.00  0.00     0.006 C 
BRANCH  11  12
ATOM     12  C   UNL d   1     -46.896  13.237  22.522  0.00  0.00     0.070 C 
BRANCH  12  13
ATOM     13  C   UNL d   1     -46.165  13.356  22.910  0.00  0.00     0.211 C 
ATOM     14  O   UNL d   1     -46.059  13.133  23.687  0.00  0.00    -0.644 OA
ATOM     15  O   UNL d   1     -45.530  13.704  22.513  0.00  0.00    -0.644 OA
ENDBRANCH  12  13
ENDBRANCH  11  12
ENDBRANCH   1  11
TORSDOF 3
ENDMDL
MODEL 4
REMARK VINA RESULT:      -7.5      1.495      2.491
REMARK  3 active torsions:
REMARK  status: ('A' for Active; 'I' for Inactive)
REMARK    1  A    between atoms: C_2  and  C_1 
REMARK    2  A    between atoms: C_4  and  C_1 
REMARK    3  A    between atoms: C_3  and  C_2 
ROOT
ATOM      1  C   UNL d   1     -48.145  12.311  23.270  0.00  0.00     0.000 A 
ATOM      2  C   UNL d   1     -47.559  12.889  23.160  0.00  0.00     0.000 A 
ATOM      3  C   UNL d   1     -46.788  12.712  23.316  0.00  0.00     0.000 A 
ATOM      4  C   UNL d   1     -47.154  11.372  23.697  0.00  0.00     0.000 A 
ATOM      5  C   UNL d   1     -47.943  11.554  23.538  0.00  0.00     0.000 A 
ATOM      6  C   UNL d   1     -47.766  13.628  22.897  0.00  0.00     0.000 A 
ATOM      7  C   UNL d   1     -46.567  11.947  23.588  0.00  0.00     0.000 A 
ATOM      8  C   UNL d   1     -46.189  13.265  23.216  0.00  0.00     0.000 A 
ATOM      9  C   UNL d   1     -47.182  14.200  22.789  0.00  0.00     0.000 A 
ATOM     10  C   UNL d   1     -46.393  14.018  22.949  0.00  0.00     0.000 A 
ENDROOT
BRANCH   1  11
ATOM     11  C   UNL d   1     -48.935  12.493  23.111  0.00  0.00     0.006 C 
BRANCH  11  12
ATOM     12  C   UNL d   1     -49.511  11.926  23.185  0.00  0.00     0.070 C 
BRANCH  12  13
ATOM     13  C   UNL d   1     -50.315  12.119  23.058  0.00  0.00     0.211 C 
ATOM     14  O   UNL d   1     -50.619  12.178  22.303  0.00  0.00    -0.644 OA
ATOM     15  O   UNL d   1     -50.821  12.255  23.696  0.00  0.00    -0.644 OA
ENDBRANCH  12  13
ENDBRANCH  11  12
ENDBRANCH   1  11
TORSDOF 3
ENDMDL
MODEL 5
REMARK VINA RESULT:      -5.5      8.064      8.958
REMARK  3 active torsions:
REMARK  status: ('A' for Active; 'I' for Inactive)
REMARK    1  A    between atoms: C_2  and  C_1 
REMARK    2  A    between atoms: C_4  and  C_1 
REMARK    3  A    between atoms: C_3  and  C_2 
ROOT
ATOM      1  C   UNL d   1     -40.239  14.843  18.864  0.00  0.00     0.000 A 
ATOM      2  C   UNL d   1     -40.371  15.101  19.643  0.00  0.00     0.000 A 
ATOM      3  C   UNL d   1     -39.939  14.787  20.246  0.00  0.00     0.000 A 
ATOM      4  C   UNL d   1     -39.226  13.944  19.323  0.00  0.00     0.000 A 
ATOM      5  C   UNL d   1     -39.668  14.265  18.705  0.00  0.00     0.000 A 
ATOM      6  C   UNL d   1     -40.933  15.668  19.789  0.00  0.00     0.000 A 
ATOM      7  C   UNL d   1     -39.355  14.200  20.100  0.00  0.00     0.000 A 
ATOM      8  C   UNL d   1     -40.050  15.025  21.025  0.00  0.00     0.000 A 
ATOM      9  C   UNL d   1     -41.061  15.922  20.563  0.00  0.00     0.000 A 
ATOM     10  C   UNL d   1     -40.620  15.601  21.181  0.00  0.00     0.000 A 
ENDROOT
BRANCH   1  11
ATOM     11  C   UNL d   1     -40.681  15.165  18.245  0.00  0.00     0.006 C 
BRANCH  11  12
ATOM     12  C   UNL d   1     -40.509  14.977  17.474  0.00  0.00     0.070 C 
BRANCH  12  13
ATOM     13  C   UNL d   1     -40.908  15.358  16.846  0.00  0.00     0.211 C 
ATOM     14  O   UNL d   1     -41.686  15.183  16.673  0.00  0.00    -0.644 OA
ATOM     15  O   UNL d   1     -40.522  15.922  16.383  0.00  0.00    -0.644 OA
ENDBRANCH  12  13
ENDBRANCH  11  12
ENDBRANCH   1  11
TORSDOF 3
ENDMDL
MODEL 6
REMARK VINA RESULT:      -5.4      8.001      9.172
REMARK  3 active torsions:
REMARK  status: ('A' for Active; 'I' for Inactive)
REMARK    1  A    between atoms: C_2  and  C_1 
REMARK    2  A    between atoms: C_4  and  C_1 
REMARK    3  A    between atoms: C_3  and  C_2 
ROOT
ATOM      1  C   UNL d   1     -40.502  15.345  18.606  0.00  0.00     0.000 A 
ATOM      2  C   UNL d   1     -40.053  14.780  18.193  0.00  0.00     0.000 A 
ATOM      3  C   UNL d   1     -40.049  14.785  17.387  0.00  0.00     0.000 A 
ATOM      4  C   UNL d   1     -40.939  15.918  17.371  0.00  0.00     0.000 A 
ATOM      5  C   UNL d   1     -40.943  15.912  18.196  0.00  0.00     0.000 A 
ATOM      6  C   UNL d   1     -39.624  14.228  18.603  0.00  0.00     0.000 A 
ATOM      7  C   UNL d   1     -40.493  15.356  16.956  0.00  0.00     0.000 A 
ATOM      8  C   UNL d   1     -39.615  14.239  16.953  0.00  0.00     0.000 A 
ATOM      9  C   UNL d   1     -39.180  13.669  18.190  0.00  0.00     0.000 A 
ATOM     10  C   UNL d   1     -39.176  13.675  17.365  0.00  0.00     0.000 A 
ENDROOT
BRANCH   1  11
ATOM     11  C   UNL d   1     -40.506  15.339  19.432  0.00  0.00     0.006 C 
BRANCH  11  12
ATOM     12  C   UNL d   1     -40.890  15.922  19.846  0.00  0.00     0.070 C 
BRANCH  12  13
ATOM     13  C   UNL d   1     -40.957  15.878  20.678  0.00  0.00     0.211 C 
ATOM     14  O   UNL d   1     -41.684  15.792  21.039  0.00  0.00    -0.644 OA
ATOM     15  O   UNL d   1     -40.286  15.921  21.157  0.00  0.00    -0.644 OA
ENDBRANCH  12  13
ENDBRANCH  11  12
ENDBRANCH   1  11
TORSDOF 3
ENDMDL
