MODEL 1
REMARK VINA RESULT:       1.4      0.000      0.000
REMARK  4 active torsions:
REMARK  status: ('A' for Active; 'I' for Inactive)
REMARK       I    between atoms: N_2  and  C_1 
REMARK    1  A    between atoms: C_3  and  C_1 
REMARK    2  A    between atoms: C_7  and  N_2 
REMARK    3  A    between atoms: O_17  and  C_9 
REMARK    4  A    between atoms: C_18  and  O_17 
ROOT
ATOM      1  C   UNL d   1     -41.407-123.427 -54.336  0.00  0.00     0.279 C 
ATOM      2  N   UNL d   1     -41.272-123.778 -53.595  0.00  0.00    -0.208 NA
ATOM      3  O   UNL d   1     -41.141-123.817 -55.012  0.00  0.00    -0.265 OA
ENDROOT
BRANCH   2   4
ATOM      4  C   UNL d   1     -41.532-123.400 -52.909  0.00  0.00     0.085 A 
ATOM      5  C   UNL d   1     -41.124-122.766 -52.608  0.00  0.00     0.021 A 
ATOM      6  C   UNL d   1     -41.384-122.388 -51.922  0.00  0.00     0.026 A 
ATOM      7  C   UNL d   1     -42.052-122.645 -51.539  0.00  0.00     0.100 A 
ATOM      8  C   UNL d   1     -42.494-123.306 -51.837  0.00  0.00     0.026 A 
ATOM      9  C   UNL d   1     -42.217-123.670 -52.525  0.00  0.00     0.021 A 
BRANCH   7  10
ATOM     10  O   UNL d   1     -42.299-122.256 -50.854  0.00  0.00    -0.305 OA
BRANCH  10  11
ATOM     11  C   UNL d   1     -42.385-122.675 -50.167  0.00  0.00     0.123 C 
ATOM     12  C   UNL d   1     -42.969-122.451 -49.630  0.00  0.00     0.029 C 
ENDBRANCH  10  11
ENDBRANCH   7  10
ENDBRANCH   2   4
BRANCH   1  13
ATOM     13  C   UNL d   1     -41.803-122.698 -54.391  0.00  0.00     0.058 A 
ATOM     14  C   UNL d   1     -41.376-121.995 -54.335  0.00  0.00     0.006 A 
ATOM     15  C   UNL d   1     -41.758-121.275 -54.389  0.00  0.00     0.021 A 
ATOM     16  C   UNL d   1     -42.595-121.240 -54.502  0.00  0.00     0.103 A 
ATOM     17  C   UNL d   1     -43.008-121.953 -54.556  0.00  0.00     0.021 A 
ATOM     18  N   UNL d   1     -42.877-120.603 -54.541  0.00  0.00    -0.148 N 
ATOM     19  C   UNL d   1     -42.613-122.682 -54.501  0.00  0.00     0.006 A 
ENDBRANCH   1  13
TORSDOF 4
ENDMDL
MODEL 2
REMARK VINA RESULT:       2.0      1.527      3.711
REMARK  4 active torsions:
REMARK  status: ('A' for Active; 'I' for Inactive)
REMARK       I    between atoms: N_2  and  C_1 
REMARK    1  A    between atoms: C_3  and  C_1 
REMARK    2  A    between atoms: C_7  and  N_2 
REMARK    3  A    between atoms: O_17  and  C_9 
REMARK    4  A    between atoms: C_18  and  O_17 
ROOT
ATOM      1  C   UNL d   1     -41.382-120.987 -51.654  0.00  0.00     0.279 C 
ATOM      2  N   UNL d   1     -41.362-121.004 -52.484  0.00  0.00    -0.208 NA
ATOM      3  O   UNL d   1     -41.125-120.306 -51.266  0.00  0.00    -0.265 OA
ENDROOT
BRANCH   2   4
ATOM      4  C   UNL d   1     -41.615-121.678 -52.887  0.00  0.00     0.085 A 
ATOM      5  C   UNL d   1     -41.126-122.322 -52.961  0.00  0.00     0.021 A 
ATOM      6  C   UNL d   1     -41.379-122.996 -53.364  0.00  0.00     0.026 A 
ATOM      7  C   UNL d   1     -42.122-123.025 -53.691  0.00  0.00     0.100 A 
ATOM      8  C   UNL d   1     -42.649-122.362 -53.625  0.00  0.00     0.026 A 
ATOM      9  C   UNL d   1     -42.376-121.698 -53.218  0.00  0.00     0.021 A 
BRANCH   7  10
ATOM     10  O   UNL d   1     -42.360-123.707 -54.091  0.00  0.00    -0.305 OA
BRANCH  10  11
ATOM     11  C   UNL d   1     -42.153-123.807 -54.867  0.00  0.00     0.123 C 
ATOM     12  C   UNL d   1     -42.676-123.567 -55.456  0.00  0.00     0.029 C 
ENDBRANCH  10  11
ENDBRANCH   7  10
ENDBRANCH   2   4
BRANCH   1  13
ATOM     13  C   UNL d   1     -41.656-121.645 -51.225  0.00  0.00     0.058 A 
ATOM     14  C   UNL d   1     -42.455-121.701 -51.029  0.00  0.00     0.006 A 
ATOM     15  C   UNL d   1     -42.732-122.345 -50.608  0.00  0.00     0.021 A 
ATOM     16  C   UNL d   1     -42.204-122.961 -50.369  0.00  0.00     0.103 A 
ATOM     17  C   UNL d   1     -41.408-122.889 -50.574  0.00  0.00     0.021 A 
ATOM     18  N   UNL d   1     -42.486-123.490 -50.012  0.00  0.00    -0.148 N 
ATOM     19  C   UNL d   1     -41.133-122.231 -51.002  0.00  0.00     0.006 A 
ENDBRANCH   1  13
TORSDOF 4
ENDMDL
MODEL 3
REMARK VINA RESULT:       2.9      1.400      3.463
REMARK  4 active torsions:
REMARK  status: ('A' for Active; 'I' for Inactive)
REMARK       I    between atoms: N_2  and  C_1 
REMARK    1  A    between atoms: C_3  and  C_1 
REMARK    2  A    between atoms: C_7  and  N_2 
REMARK    3  A    between atoms: O_17  and  C_9 
REMARK    4  A    between atoms: C_18  and  O_17 
ROOT
ATOM      1  C   UNL d   1     -42.547-123.350 -51.101  0.00  0.00     0.279 C 
ATOM      2  N   UNL d   1     -42.550-123.811 -51.792  0.00  0.00    -0.208 NA
ATOM      3  O   UNL d   1     -42.876-123.665 -50.415  0.00  0.00    -0.265 OA
ENDROOT
BRANCH   2   4
ATOM      4  C   UNL d   1     -42.224-123.510 -52.488  0.00  0.00     0.085 A 
ATOM      5  C   UNL d   1     -42.638-122.977 -52.940  0.00  0.00     0.021 A 
ATOM      6  C   UNL d   1     -42.311-122.676 -53.635  0.00  0.00     0.026 A 
ATOM      7  C   UNL d   1     -41.572-122.908 -53.878  0.00  0.00     0.100 A 
ATOM      8  C   UNL d   1     -41.123-123.464 -53.419  0.00  0.00     0.026 A 
ATOM      9  C   UNL d   1     -41.467-123.754 -52.727  0.00  0.00     0.021 A 
BRANCH   7  10
ATOM     10  O   UNL d   1     -41.260-122.598 -54.576  0.00  0.00    -0.305 OA
BRANCH  10  11
ATOM     11  C   UNL d   1     -41.700-122.078 -55.013  0.00  0.00     0.123 C 
ATOM     12  C   UNL d   1     -41.455-121.886 -55.776  0.00  0.00     0.029 C 
ENDBRANCH  10  11
ENDBRANCH   7  10
ENDBRANCH   2   4
BRANCH   1  13
ATOM     13  C   UNL d   1     -42.217-122.586 -51.106  0.00  0.00     0.058 A 
ATOM     14  C   UNL d   1     -42.667-121.948 -51.373  0.00  0.00     0.006 A 
ATOM     15  C   UNL d   1     -42.350-121.195 -51.381  0.00  0.00     0.021 A 
ATOM     16  C   UNL d   1     -41.558-121.059 -51.115  0.00  0.00     0.103 A 
ATOM     17  C   UNL d   1     -41.123-121.708 -50.852  0.00  0.00     0.021 A 
ATOM     18  N   UNL d   1     -41.332-120.400 -51.141  0.00  0.00    -0.148 N 
ATOM     19  C   UNL d   1     -41.451-122.471 -50.847  0.00  0.00     0.006 A 
ENDBRANCH   1  13
TORSDOF 4
ENDMDL
MODEL 4
REMARK VINA RESULT:       3.0      2.104      4.602
REMARK  4 active torsions:
REMARK  status: ('A' for Active; 'I' for Inactive)
REMARK       I    between atoms: N_2  and  C_1 
REMARK    1  A    between atoms: C_3  and  C_1 
REMARK    2  A    between atoms: C_7  and  N_2 
REMARK    3  A    between atoms: O_17  and  C_9 
REMARK    4  A    between atoms: C_18  and  O_17 
ROOT
ATOM      1  C   UNL d   1     -43.488-122.070 -49.592  0.00  0.00     0.279 C 
ATOM      2  N   UNL d   1     -43.494-121.907 -50.407  0.00  0.00    -0.208 NA
ATOM      3  O   UNL d   1     -44.090-121.758 -49.123  0.00  0.00    -0.265 OA
ENDROOT
BRANCH   2   4
ATOM      4  C   UNL d   1     -42.898-122.212 -50.890  0.00  0.00     0.085 A 
ATOM      5  C   UNL d   1     -42.976-122.949 -51.224  0.00  0.00     0.021 A 
ATOM      6  C   UNL d   1     -42.380-123.254 -51.707  0.00  0.00     0.026 A 
ATOM      7  C   UNL d   1     -41.709-122.822 -51.856  0.00  0.00     0.100 A 
ATOM      8  C   UNL d   1     -41.609-122.050 -51.516  0.00  0.00     0.026 A 
ATOM      9  C   UNL d   1     -42.216-121.763 -51.036  0.00  0.00     0.021 A 
BRANCH   7  10
ATOM     10  O   UNL d   1     -41.123-123.141 -52.341  0.00  0.00    -0.305 OA
BRANCH  10  11
ATOM     11  C   UNL d   1     -41.317-123.717 -52.875  0.00  0.00     0.123 C 
ATOM     12  C   UNL d   1     -41.142-123.601 -53.673  0.00  0.00     0.029 C 
ENDBRANCH  10  11
ENDBRANCH   7  10
ENDBRANCH   2   4
BRANCH   1  13
ATOM     13  C   UNL d   1     -42.886-122.537 -49.260  0.00  0.00     0.058 A 
ATOM     14  C   UNL d   1     -42.265-122.178 -48.854  0.00  0.00     0.006 A 
ATOM     15  C   UNL d   1     -41.670-122.631 -48.525  0.00  0.00     0.021 A 
ATOM     16  C   UNL d   1     -41.682-123.474 -48.597  0.00  0.00     0.103 A 
ATOM     17  C   UNL d   1     -42.310-123.817 -49.006  0.00  0.00     0.021 A 
ATOM     18  N   UNL d   1     -41.153-123.817 -48.300  0.00  0.00    -0.148 N 
ATOM     19  C   UNL d   1     -42.912-123.350 -49.338  0.00  0.00     0.006 A 
ENDBRANCH   1  13
TORSDOF 4
ENDMDL
