MODEL 1
REMARK VINA RESULT:      -3.1      0.000      0.000
REMARK  0 active torsions:
REMARK  status: ('A' for Active; 'I' for Inactive)
ROOT
ATOM      1  N   UNL d   1      29.807  16.254 -23.709  0.00  0.00    -0.300 N 
ATOM      2  C   UNL d   1      29.369  17.339 -24.519  0.00  0.00     0.295 A 
ATOM      3  N   UNL d   1      30.165  17.547 -24.648  0.00  0.00    -0.205 NA
ATOM      4  C   UNL d   1      29.187  16.688 -24.047  0.00  0.00     0.123 A 
ATOM      5  C   UNL d   1      30.581  16.457 -23.833  0.00  0.00     0.082 A 
ATOM      6  C   UNL d   1      30.766  17.101 -24.301  0.00  0.00     0.101 A 
ATOM      7  O   UNL d   1      28.763  17.761 -24.849  0.00  0.00    -0.264 OA
ATOM      8  C   UNL d   1      29.472  15.655 -23.278  0.00  0.00     0.080 A 
ATOM      9  C   UNL d   1      28.471  16.341 -23.814  0.00  0.00     0.024 A 
ATOM     10  C   UNL d   1      31.185  16.004 -23.482  0.00  0.00     0.019 A 
ATOM     11  C   UNL d   1      31.563  17.309 -24.429  0.00  0.00     0.021 A 
ATOM     12  C   UNL d   1      28.661  15.685 -23.326  0.00  0.00     0.021 A 
ATOM     13  C   UNL d   1      31.982  16.212 -23.610  0.00  0.00     0.002 A 
ATOM     14  C   UNL d   1      32.153  16.856 -24.078  0.00  0.00     0.002 A 
ENDROOT
TORSDOF 0
ENDMDL
MODEL 2
REMARK VINA RESULT:      -3.1      1.247      2.834
REMARK  0 active torsions:
REMARK  status: ('A' for Active; 'I' for Inactive)
ROOT
ATOM      1  N   UNL d   1      30.430  16.920 -24.262  0.00  0.00    -0.300 N 
ATOM      2  C   UNL d   1      31.415  16.175 -23.556  0.00  0.00     0.295 A 
ATOM      3  N   UNL d   1      30.806  15.733 -23.199  0.00  0.00    -0.205 NA
ATOM      4  C   UNL d   1      31.227  16.773 -24.091  0.00  0.00     0.123 A 
ATOM      5  C   UNL d   1      29.837  16.489 -23.916  0.00  0.00     0.082 A 
ATOM      6  C   UNL d   1      30.019  15.896 -23.384  0.00  0.00     0.101 A 
ATOM      7  O   UNL d   1      32.194  16.034 -23.390  0.00  0.00    -0.264 OA
ATOM      8  C   UNL d   1      30.407  17.528 -24.798  0.00  0.00     0.080 A 
ATOM      9  C   UNL d   1      31.688  17.303 -24.532  0.00  0.00     0.024 A 
ATOM     10  C   UNL d   1      29.044  16.657 -24.105  0.00  0.00     0.019 A 
ATOM     11  C   UNL d   1      29.410  15.453 -23.028  0.00  0.00     0.021 A 
ATOM     12  C   UNL d   1      31.160  17.779 -24.978  0.00  0.00     0.021 A 
ATOM     13  C   UNL d   1      28.435  16.214 -23.749  0.00  0.00     0.002 A 
ATOM     14  C   UNL d   1      28.629  15.625 -23.221  0.00  0.00     0.002 A 
ENDROOT
TORSDOF 0
ENDMDL
MODEL 3
REMARK VINA RESULT:      -3.1      0.758      2.386
REMARK  0 active torsions:
REMARK  status: ('A' for Active; 'I' for Inactive)
ROOT
ATOM      1  N   UNL d   1      30.750  16.250 -23.745  0.00  0.00    -0.300 N 
ATOM      2  C   UNL d   1      30.565  17.355 -24.623  0.00  0.00     0.295 A 
ATOM      3  N   UNL d   1      29.741  17.265 -24.539  0.00  0.00    -0.205 NA
ATOM      4  C   UNL d   1      31.074  16.844 -24.223  0.00  0.00     0.123 A 
ATOM      5  C   UNL d   1      29.949  16.163 -23.664  0.00  0.00     0.082 A 
ATOM      6  C   UNL d   1      29.440  16.666 -24.058  0.00  0.00     0.101 A 
ATOM      7  O   UNL d   1      30.882  17.934 -25.089  0.00  0.00    -0.264 OA
ATOM      8  C   UNL d   1      31.370  15.837 -23.424  0.00  0.00     0.080 A 
ATOM      9  C   UNL d   1      31.900  16.784 -24.188  0.00  0.00     0.024 A 
ATOM     10  C   UNL d   1      29.650  15.557 -23.176  0.00  0.00     0.019 A 
ATOM     11  C   UNL d   1      28.616  16.577 -23.974  0.00  0.00     0.021 A 
ATOM     12  C   UNL d   1      32.080  16.142 -23.678  0.00  0.00     0.021 A 
ATOM     13  C   UNL d   1      28.826  15.468 -23.093  0.00  0.00     0.002 A 
ATOM     14  C   UNL d   1      28.329  15.976 -23.491  0.00  0.00     0.002 A 
ENDROOT
TORSDOF 0
ENDMDL
MODEL 4
REMARK VINA RESULT:      -3.0      0.920      1.656
REMARK  0 active torsions:
REMARK  status: ('A' for Active; 'I' for Inactive)
ROOT
ATOM      1  N   UNL d   1      30.000  16.871 -24.180  0.00  0.00    -0.300 N 
ATOM      2  C   UNL d   1      29.436  15.828 -23.393  0.00  0.00     0.295 A 
ATOM      3  N   UNL d   1      30.206  15.564 -23.215  0.00  0.00    -0.205 NA
ATOM      4  C   UNL d   1      29.331  16.486 -23.879  0.00  0.00     0.123 A 
ATOM      5  C   UNL d   1      30.748  16.615 -24.007  0.00  0.00     0.082 A 
ATOM      6  C   UNL d   1      30.858  15.963 -23.526  0.00  0.00     0.101 A 
ATOM      7  O   UNL d   1      28.783  15.453 -23.100  0.00  0.00    -0.264 OA
ATOM      8  C   UNL d   1      29.736  17.490 -24.632  0.00  0.00     0.080 A 
ATOM      9  C   UNL d   1      28.657  16.880 -24.156  0.00  0.00     0.024 A 
ATOM     10  C   UNL d   1      31.404  17.021 -24.323  0.00  0.00     0.019 A 
ATOM     11  C   UNL d   1      31.628  15.700 -23.348  0.00  0.00     0.021 A 
ATOM     12  C   UNL d   1      28.923  17.518 -24.635  0.00  0.00     0.021 A 
ATOM     13  C   UNL d   1      32.174  16.757 -24.145  0.00  0.00     0.002 A 
ATOM     14  C   UNL d   1      32.270  16.107 -23.665  0.00  0.00     0.002 A 
ENDROOT
TORSDOF 0
ENDMDL
MODEL 5
REMARK VINA RESULT:      -2.9      6.319      6.982
REMARK  0 active torsions:
REMARK  status: ('A' for Active; 'I' for Inactive)
ROOT
ATOM      1  N   UNL d   1      32.916  22.176 -20.184  0.00  0.00    -0.300 N 
ATOM      2  C   UNL d   1      32.201  22.936 -21.152  0.00  0.00     0.295 A 
ATOM      3  N   UNL d   1      32.174  22.261 -21.641  0.00  0.00    -0.205 NA
ATOM      4  C   UNL d   1      32.575  22.894 -20.418  0.00  0.00     0.123 A 
ATOM      5  C   UNL d   1      32.890  21.521 -20.659  0.00  0.00     0.082 A 
ATOM      6  C   UNL d   1      32.521  21.557 -21.387  0.00  0.00     0.101 A 
ATOM      7  O   UNL d   1      31.869  23.636 -21.379  0.00  0.00    -0.264 OA
ATOM      8  C   UNL d   1      33.240  22.293 -19.450  0.00  0.00     0.080 A 
ATOM      9  C   UNL d   1      32.697  23.448 -19.815  0.00  0.00     0.024 A 
ATOM     10  C   UNL d   1      33.241  20.811 -20.400  0.00  0.00     0.019 A 
ATOM     11  C   UNL d   1      32.493  20.883 -21.876  0.00  0.00     0.021 A 
ATOM     12  C   UNL d   1      33.120  23.059 -19.202  0.00  0.00     0.021 A 
ATOM     13  C   UNL d   1      33.214  20.137 -20.888  0.00  0.00     0.002 A 
ATOM     14  C   UNL d   1      32.843  20.186 -21.612  0.00  0.00     0.002 A 
ENDROOT
TORSDOF 0
ENDMDL
MODEL 6
REMARK VINA RESULT:      -2.8      7.017      7.607
REMARK  0 active torsions:
REMARK  status: ('A' for Active; 'I' for Inactive)
ROOT
ATOM      1  N   UNL d   1      32.841  22.047 -20.485  0.00  0.00    -0.300 N 
ATOM      2  C   UNL d   1      32.112  23.052 -21.180  0.00  0.00     0.295 A 
ATOM      3  N   UNL d   1      32.123  23.519 -20.490  0.00  0.00    -0.205 NA
ATOM      4  C   UNL d   1      32.473  22.311 -21.179  0.00  0.00     0.123 A 
ATOM      5  C   UNL d   1      32.852  22.501 -19.814  0.00  0.00     0.082 A 
ATOM      6  C   UNL d   1      32.495  23.236 -19.810  0.00  0.00     0.101 A 
ATOM      7  O   UNL d   1      31.754  23.308 -21.858  0.00  0.00    -0.264 OA
ATOM      8  C   UNL d   1      33.145  21.312 -20.640  0.00  0.00     0.080 A 
ATOM      9  C   UNL d   1      32.560  21.724 -21.758  0.00  0.00     0.024 A 
ATOM     10  C   UNL d   1      33.228  22.211 -19.130  0.00  0.00     0.019 A 
ATOM     11  C   UNL d   1      32.506  23.702 -19.120  0.00  0.00     0.021 A 
ATOM     12  C   UNL d   1      32.988  21.092 -21.407  0.00  0.00     0.021 A 
ATOM     13  C   UNL d   1      33.239  22.678 -18.439  0.00  0.00     0.002 A 
ATOM     14  C   UNL d   1      32.881  23.409 -18.448  0.00  0.00     0.002 A 
ENDROOT
TORSDOF 0
ENDMDL
MODEL 7
REMARK VINA RESULT:      -2.7      1.403      2.207
REMARK  0 active torsions:
REMARK  status: ('A' for Active; 'I' for Inactive)
ROOT
ATOM      1  N   UNL d   1      31.026  17.336 -24.415  0.00  0.00    -0.300 N 
ATOM      2  C   UNL d   1      30.999  16.158 -23.616  0.00  0.00     0.295 A 
ATOM      3  N   UNL d   1      31.736  16.376 -23.295  0.00  0.00    -0.205 NA
ATOM      4  C   UNL d   1      30.641  16.641 -24.180  0.00  0.00     0.123 A 
ATOM      5  C   UNL d   1      31.743  17.547 -24.103  0.00  0.00     0.082 A 
ATOM      6  C   UNL d   1      32.103  17.072 -23.543  0.00  0.00     0.101 A 
ATOM      7  O   UNL d   1      30.622  15.481 -23.388  0.00  0.00    -0.264 OA
ATOM      8  C   UNL d   1      30.555  17.696 -24.967  0.00  0.00     0.080 A 
ATOM      9  C   UNL d   1      29.927  16.586 -24.599  0.00  0.00     0.024 A 
ATOM     10  C   UNL d   1      32.109  18.251 -24.356  0.00  0.00     0.019 A 
ATOM     11  C   UNL d   1      32.840  17.290 -23.222  0.00  0.00     0.021 A 
ATOM     12  C   UNL d   1      29.880  17.261 -25.097  0.00  0.00     0.021 A 
ATOM     13  C   UNL d   1      32.846  18.468 -24.034  0.00  0.00     0.002 A 
ATOM     14  C   UNL d   1      33.194  17.987 -23.478  0.00  0.00     0.002 A 
ENDROOT
TORSDOF 0
ENDMDL
MODEL 8
REMARK VINA RESULT:      -2.3      6.009      6.865
REMARK  0 active torsions:
REMARK  status: ('A' for Active; 'I' for Inactive)
ROOT
ATOM      1  N   UNL d   1      32.877  21.620 -21.837  0.00  0.00    -0.300 N 
ATOM      2  C   UNL d   1      33.028  20.949 -20.591  0.00  0.00     0.295 A 
ATOM      3  N   UNL d   1      32.818  21.655 -20.201  0.00  0.00    -0.205 NA
ATOM      4  C   UNL d   1      33.057  20.931 -21.415  0.00  0.00     0.123 A 
ATOM      5  C   UNL d   1      32.673  22.306 -21.458  0.00  0.00     0.082 A 
ATOM      6  C   UNL d   1      32.642  22.330 -20.642  0.00  0.00     0.101 A 
ATOM      7  O   UNL d   1      33.204  20.275 -20.181  0.00  0.00    -0.264 OA
ATOM      8  C   UNL d   1      32.949  21.445 -22.625  0.00  0.00     0.080 A 
ATOM      9  C   UNL d   1      33.241  20.334 -21.960  0.00  0.00     0.024 A 
ATOM     10  C   UNL d   1      32.496  22.986 -21.906  0.00  0.00     0.019 A 
ATOM     11  C   UNL d   1      32.433  23.036 -20.252  0.00  0.00     0.021 A 
ATOM     12  C   UNL d   1      33.170  20.668 -22.727  0.00  0.00     0.021 A 
ATOM     13  C   UNL d   1      32.287  23.691 -21.516  0.00  0.00     0.002 A 
ATOM     14  C   UNL d   1      32.259  23.702 -20.702  0.00  0.00     0.002 A 
ENDROOT
TORSDOF 0
ENDMDL
MODEL 9
REMARK VINA RESULT:      -2.3      4.097      5.033
REMARK  0 active torsions:
REMARK  status: ('A' for Active; 'I' for Inactive)
ROOT
ATOM      1  N   UNL d   1      33.212  20.012 -21.953  0.00  0.00    -0.300 N 
ATOM      2  C   UNL d   1      33.233  21.024 -22.954  0.00  0.00     0.295 A 
ATOM      3  N   UNL d   1      33.241  20.428 -23.536  0.00  0.00    -0.205 NA
ATOM      4  C   UNL d   1      33.219  20.815 -22.156  0.00  0.00     0.123 A 
ATOM      5  C   UNL d   1      33.219  19.433 -22.519  0.00  0.00     0.082 A 
ATOM      6  C   UNL d   1      33.233  19.634 -23.311  0.00  0.00     0.101 A 
ATOM      7  O   UNL d   1      33.240  21.808 -23.151  0.00  0.00    -0.264 OA
ATOM      8  C   UNL d   1      33.198  19.970 -21.143  0.00  0.00     0.080 A 
ATOM      9  C   UNL d   1      33.208  21.260 -21.457  0.00  0.00     0.024 A 
ATOM     10  C   UNL d   1      33.212  18.633 -22.287  0.00  0.00     0.019 A 
ATOM     11  C   UNL d   1      33.241  19.039 -23.893  0.00  0.00     0.021 A 
ATOM     12  C   UNL d   1      33.195  20.716 -20.817  0.00  0.00     0.021 A 
ATOM     13  C   UNL d   1      33.219  18.037 -22.869  0.00  0.00     0.002 A 
ATOM     14  C   UNL d   1      33.234  18.251 -23.655  0.00  0.00     0.002 A 
ENDROOT
TORSDOF 0
ENDMDL
