MODEL 1
REMARK VINA RESULT:      -3.3      0.000      0.000
REMARK  7 active torsions:
REMARK  status: ('A' for Active; 'I' for Inactive)
REMARK    1  A    between atoms: C_3  and  N_1 
REMARK       I    between atoms: C_2  and  N_4 
REMARK    2  A    between atoms: C_11  and  C_2 
REMARK    3  A    between atoms: N_4  and  C_12 
REMARK    4  A    between atoms: O_5  and  C_11 
REMARK    5  A    between atoms: C_6  and  O_5 
REMARK    6  A    between atoms: O_15  and  C_8 
REMARK    7  A    between atoms: C_20  and  O_15 
ROOT
ATOM      1  C   UNL d   1      33.057  19.369 -23.400  0.00  0.00     0.353 C 
ATOM      2  N   UNL d   1      33.085  19.954 -22.821  0.00  0.00    -0.363 NA
ATOM      3  O   UNL d   1      33.241  19.554 -24.183  0.00  0.00    -0.249 OA
ENDROOT
BRANCH   1   4
ATOM      4  C   UNL d   1      32.845  18.598 -23.204  0.00  0.00     0.199 C 
BRANCH   4   5
ATOM      5  O   UNL d   1      32.320  18.173 -23.683  0.00  0.00    -0.297 OA
BRANCH   5   6
ATOM      6  C   UNL d   1      32.235  17.359 -23.589  0.00  0.00     0.123 A 
ATOM      7  C   UNL d   1      31.536  16.982 -23.839  0.00  0.00     0.123 A 
ATOM      8  C   UNL d   1      31.449  16.168 -23.747  0.00  0.00     0.027 A 
ATOM      9  C   UNL d   1      32.057  15.729 -23.405  0.00  0.00     0.002 A 
ATOM     10  C   UNL d   1      32.748  16.102 -23.157  0.00  0.00     0.002 A 
ATOM     11  C   UNL d   1      32.841  16.920 -23.248  0.00  0.00     0.027 A 
BRANCH   7  12
ATOM     12  O   UNL d   1      30.926  17.429 -24.184  0.00  0.00    -0.303 OA
BRANCH  12  13
ATOM     13  C   UNL d   1      30.241  17.052 -24.449  0.00  0.00     0.123 C 
ATOM     14  C   UNL d   1      29.630  17.493 -24.782  0.00  0.00     0.029 C 
ENDBRANCH  12  13
ENDBRANCH   7  12
ENDBRANCH   5   6
ENDBRANCH   4   5
ENDBRANCH   1   4
BRANCH   2  15
ATOM     15  C   UNL d   1      33.111  20.533 -22.237  0.00  0.00     0.135 A 
ATOM     16  C   UNL d   1      33.180  21.326 -22.437  0.00  0.00     0.034 A 
ATOM     17  C   UNL d   1      33.206  21.905 -21.852  0.00  0.00     0.020 A 
ATOM     18  C   UNL d   1      33.163  21.691 -21.055  0.00  0.00     0.064 A 
ATOM     19  C   UNL d   1      33.094  20.896 -20.846  0.00  0.00     0.020 A 
ATOM     20  C   UNL d   1      33.067  20.307 -21.432  0.00  0.00     0.034 A 
BRANCH  18  21
ATOM     21  N   UNL d   1      33.189  22.269 -20.471  0.00  0.00    -0.304 N 
ATOM     22  C   UNL d   1      33.212  22.049 -19.675  0.00  0.00     0.080 A 
ATOM     23  C   UNL d   1      33.238  22.620 -19.093  0.00  0.00     0.019 A 
ATOM     24  C   UNL d   1      33.241  23.422 -19.297  0.00  0.00     0.003 A 
ATOM     25  C   UNL d   1      33.218  23.643 -20.092  0.00  0.00     0.019 A 
ATOM     26  C   UNL d   1      33.191  23.068 -20.689  0.00  0.00     0.080 A 
ENDBRANCH  18  21
ENDBRANCH   2  15
TORSDOF 7
ENDMDL
MODEL 2
REMARK VINA RESULT:      -2.7      1.820      6.088
REMARK  7 active torsions:
REMARK  status: ('A' for Active; 'I' for Inactive)
REMARK    1  A    between atoms: C_3  and  N_1 
REMARK       I    between atoms: C_2  and  N_4 
REMARK    2  A    between atoms: C_11  and  C_2 
REMARK    3  A    between atoms: N_4  and  C_12 
REMARK    4  A    between atoms: O_5  and  C_11 
REMARK    5  A    between atoms: C_6  and  O_5 
REMARK    6  A    between atoms: O_15  and  C_8 
REMARK    7  A    between atoms: C_20  and  O_15 
ROOT
ATOM      1  C   UNL d   1      33.148  20.165 -21.675  0.00  0.00     0.353 C 
ATOM      2  N   UNL d   1      32.998  19.512 -22.153  0.00  0.00    -0.363 NA
ATOM      3  O   UNL d   1      33.215  20.071 -20.858  0.00  0.00    -0.249 OA
ENDROOT
BRANCH   1   4
ATOM      4  C   UNL d   1      33.232  20.914 -22.006  0.00  0.00     0.199 C 
BRANCH   4   5
ATOM      5  O   UNL d   1      32.903  21.576 -21.632  0.00  0.00    -0.297 OA
BRANCH   5   6
ATOM      6  C   UNL d   1      32.758  22.266 -22.057  0.00  0.00     0.123 A 
ATOM      7  C   UNL d   1      32.440  22.934 -21.673  0.00  0.00     0.123 A 
ATOM      8  C   UNL d   1      32.294  23.624 -22.097  0.00  0.00     0.027 A 
ATOM      9  C   UNL d   1      32.463  23.653 -22.903  0.00  0.00     0.002 A 
ATOM     10  C   UNL d   1      32.777  22.992 -23.283  0.00  0.00     0.002 A 
ATOM     11  C   UNL d   1      32.926  22.295 -22.862  0.00  0.00     0.027 A 
BRANCH   7  12
ATOM     12  O   UNL d   1      32.271  22.901 -20.860  0.00  0.00    -0.303 OA
BRANCH  12  13
ATOM     13  C   UNL d   1      32.147  23.599 -20.439  0.00  0.00     0.123 C 
ATOM     14  C   UNL d   1      32.068  23.578 -19.619  0.00  0.00     0.029 C 
ENDBRANCH  12  13
ENDBRANCH   7  12
ENDBRANCH   5   6
ENDBRANCH   4   5
ENDBRANCH   1   4
BRANCH   2  15
ATOM     15  C   UNL d   1      32.848  18.864 -22.638  0.00  0.00     0.135 A 
ATOM     16  C   UNL d   1      32.320  18.924 -23.264  0.00  0.00     0.034 A 
ATOM     17  C   UNL d   1      32.171  18.275 -23.749  0.00  0.00     0.020 A 
ATOM     18  C   UNL d   1      32.553  17.556 -23.609  0.00  0.00     0.064 A 
ATOM     19  C   UNL d   1      33.085  17.488 -22.982  0.00  0.00     0.020 A 
ATOM     20  C   UNL d   1      33.239  18.140 -22.489  0.00  0.00     0.034 A 
BRANCH  18  21
ATOM     21  N   UNL d   1      32.404  16.908 -24.094  0.00  0.00    -0.304 N 
ATOM     22  C   UNL d   1      31.629  16.637 -24.189  0.00  0.00     0.080 A 
ATOM     23  C   UNL d   1      31.477  15.995 -24.669  0.00  0.00     0.019 A 
ATOM     24  C   UNL d   1      32.098  15.614 -25.062  0.00  0.00     0.003 A 
ATOM     25  C   UNL d   1      32.871  15.885 -24.968  0.00  0.00     0.019 A 
ATOM     26  C   UNL d   1      33.033  16.536 -24.481  0.00  0.00     0.080 A 
ENDBRANCH  18  21
ENDBRANCH   2  15
TORSDOF 7
ENDMDL
