MODEL 1
REMARK VINA RESULT:      69.9      0.000      0.000
REMARK  2 active torsions:
REMARK  status: ('A' for Active; 'I' for Inactive)
REMARK    1  A    between atoms: C_9  and  N_1 
REMARK    2  A    between atoms: C_2  and  C_10 
ROOT
ATOM      1  C   UNL d   1      58.383  49.579  54.319  0.00  0.00     0.070 A 
ATOM      2  C   UNL d   1      59.227  49.597  52.879  0.00  0.00     0.024 A 
ATOM      3  C   UNL d   1      59.195  49.692  54.320  0.00  0.00     0.018 A 
ATOM      4  C   UNL d   1      57.971  49.473  53.621  0.00  0.00     0.018 A 
ATOM      5  C   UNL d   1      59.623  49.702  53.589  0.00  0.00     0.004 A 
ATOM      6  C   UNL d   1      58.398  49.482  52.893  0.00  0.00     0.004 A 
ENDROOT
BRANCH   2   7
ATOM      7  C   UNL d   1      59.576  49.605  52.284  0.00  0.00     0.111 A 
ATOM      8  N   UNL d   1      60.488  49.590  52.227  0.00  0.00    -0.239 NA
ATOM      9  C   UNL d   1      60.641  49.607  51.386  0.00  0.00     0.088 A 
ATOM     10  C   UNL d   1      61.332  49.602  51.038  0.00  0.00     0.020 A 
ATOM     11  C   UNL d   1      59.930  49.630  50.969  0.00  0.00     0.049 A 
ATOM     12  C   UNL d   1      61.346  49.622  50.184  0.00  0.00     0.002 A 
ATOM     13  C   UNL d   1      60.653  49.645  49.779  0.00  0.00     0.001 A 
ATOM     14  C   UNL d   1      59.923  49.649  50.150  0.00  0.00     0.008 A 
ATOM     15  S   UNL d   1      59.262  49.627  51.598  0.00  0.00    -0.066 SA
ENDBRANCH   2   7
BRANCH   1  16
ATOM     16  N   UNL d   1      57.961  49.569  55.039  0.00  0.00    -0.242 N 
ATOM     17  C   UNL d   1      57.139  49.531  55.042  0.00  0.00     0.267 A 
ATOM     18  C   UNL d   1      56.896  49.531  55.831  0.00  0.00     0.066 A 
ATOM     19  O   UNL d   1      56.598  49.496  54.370  0.00  0.00    -0.267 OA
ATOM     20  C   UNL d   1      57.591  49.570  56.311  0.00  0.00     0.066 A 
ATOM     21  C   UNL d   1      58.250  49.594  55.794  0.00  0.00     0.267 A 
ATOM     22  O   UNL d   1      59.036  49.634  56.030  0.00  0.00    -0.267 OA
ENDBRANCH   1  16
TORSDOF 2
ENDMDL
