MODEL 1
REMARK VINA RESULT:     118.7      0.000      0.000
REMARK  6 active torsions:
REMARK  status: ('A' for Active; 'I' for Inactive)
REMARK    1  A    between atoms: S_6  and  N_1 
REMARK    2  A    between atoms: C_2  and  C_4 
REMARK    3  A    between atoms: C_12  and  C_3 
REMARK    4  A    between atoms: C_17  and  N_8 
REMARK    5  A    between atoms: C_16  and  C_10 
REMARK    6  A    between atoms: O_27  and  C_24 
ROOT
ATOM      1  N   UNL d   1     -55.297-100.104 -43.398  0.00  0.00    -0.155 N 
ATOM      2  C   UNL d   1     -55.919-100.624 -43.558  0.00  0.00     0.099 A 
ATOM      3  N   UNL d   1     -54.951-100.362 -42.701  0.00  0.00    -0.156 NA
ATOM      4  C   UNL d   1     -55.353-101.036 -42.431  0.00  0.00     0.103 A 
ATOM      5  C   UNL d   1     -55.952-101.178 -42.981  0.00  0.00     0.041 A 
ENDROOT
BRANCH   2   6
ATOM      6  C   UNL d   1     -56.419-100.536 -44.248  0.00  0.00     0.058 A 
ATOM      7  C   UNL d   1     -56.356-100.954 -44.932  0.00  0.00     0.110 A 
ATOM      8  N   UNL d   1     -56.972-100.655 -45.421  0.00  0.00    -0.165 NA
ATOM      9  N   UNL d   1     -57.386-100.065 -45.012  0.00  0.00    -0.228 N 
ATOM     10  C   UNL d   1     -57.038 -99.989 -44.273  0.00  0.00     0.103 A 
BRANCH   7  11
ATOM     11  C   UNL d   1     -55.818-101.542 -45.124  0.00  0.00     0.049 A 
ATOM     12  S   UNL d   1     -55.387-101.901 -45.473  0.00  0.00    -0.085 SA
ATOM     13  C   UNL d   1     -55.140-102.517 -44.960  0.00  0.00     0.035 A 
ATOM     14  C   UNL d   1     -55.454-102.530 -44.228  0.00  0.00     0.007 A 
ATOM     15  C   UNL d   1     -55.913-101.911 -44.271  0.00  0.00     0.009 A 
ENDBRANCH   7  11
BRANCH   9  16
ATOM     16  C   UNL d   1     -58.025 -99.642 -45.304  0.00  0.00     0.083 A 
ATOM     17  C   UNL d   1     -58.722 -99.593 -44.882  0.00  0.00     0.019 A 
ATOM     18  C   UNL d   1     -59.288 -99.173 -45.223  0.00  0.00     0.002 A 
ATOM     19  C   UNL d   1     -59.307 -98.764 -45.943  0.00  0.00     0.000 A 
ATOM     20  C   UNL d   1     -58.576 -98.836 -46.348  0.00  0.00     0.002 A 
ATOM     21  C   UNL d   1     -57.935 -99.261 -46.053  0.00  0.00     0.019 A 
ENDBRANCH   9  16
ENDBRANCH   2   6
BRANCH   1  22
ATOM     22  S   UNL d   1     -55.050 -99.446 -43.836  0.00  0.00     0.266 S 
ATOM     23  O   UNL d   1     -54.778 -99.087 -43.142  0.00  0.00    -0.203 OA
ATOM     24  O   UNL d   1     -55.321 -99.805 -44.527  0.00  0.00    -0.203 OA
ATOM     25  C   UNL d   1     -54.802 -98.786 -44.274  0.00  0.00     0.165 C 
ENDBRANCH   1  22
BRANCH   4  26
ATOM     26  C   UNL d   1     -55.201-101.482 -41.756  0.00  0.00     0.020 A 
ATOM     27  C   UNL d   1     -54.966-102.273 -41.789  0.00  0.00     0.004 A 
ATOM     28  C   UNL d   1     -54.822-102.692 -41.101  0.00  0.00     0.024 A 
ATOM     29  C   UNL d   1     -54.914-102.318 -40.370  0.00  0.00     0.094 A 
ATOM     30  C   UNL d   1     -55.149-101.527 -40.336  0.00  0.00     0.024 A 
ATOM     31  C   UNL d   1     -55.285-101.136 -41.006  0.00  0.00     0.004 A 
BRANCH  29  32
ATOM     32  O   UNL d   1     -54.762-102.763 -39.673  0.00  0.00    -0.328 OA
ATOM     33  C   UNL d   1     -55.095-102.535 -38.960  0.00  0.00     0.181 C 
ENDBRANCH  29  32
ENDBRANCH   4  26
TORSDOF 6
ENDMDL
