MODEL 1
REMARK VINA RESULT:      -9.1      0.000      0.000
REMARK  6 active torsions:
REMARK  status: ('A' for Active; 'I' for Inactive)
REMARK    1  A    between atoms: C_5  and  C_1 
REMARK    2  A    between atoms: N_8  and  C_5 
REMARK    3  A    between atoms: C_9  and  C_5 
REMARK    4  A    between atoms: C_19  and  C_7 
REMARK    5  A    between atoms: C_10  and  N_8 
REMARK    6  A    between atoms: O_20  and  C_16 
ROOT
ATOM      1  C   UNL d   1      53.358  32.276  53.318  0.00  0.00     0.109 C 
ENDROOT
BRANCH   1   2
ATOM      2  C   UNL d   1      53.850  32.745  53.786  0.00  0.00     0.160 A 
ATOM      3  C   UNL d   1      54.642  32.889  53.575  0.00  0.00     0.258 A 
ATOM      4  C   UNL d   1      55.118  33.372  54.073  0.00  0.00     0.238 A 
ATOM      5  O   UNL d   1      54.950  32.566  52.893  0.00  0.00    -0.281 OA
ATOM      6  O   UNL d   1      55.910  33.516  53.862  0.00  0.00    -0.283 OA
ATOM      7  C   UNL d   1      54.810  33.696  54.756  0.00  0.00     0.073 A 
ATOM      8  C   UNL d   1      54.019  33.551  54.968  0.00  0.00     0.146 A 
ATOM      9  O   UNL d   1      53.545  33.085  54.493  0.00  0.00    -0.299 OA
BRANCH   8  10
ATOM     10  C   UNL d   1      53.712  33.887  55.668  0.00  0.00     0.259 C 
ATOM     11  O   UNL d   1      53.420  34.675  55.682  0.00  0.00    -0.281 OA
ENDBRANCH   8  10
ENDBRANCH   1   2
BRANCH   1  12
ATOM     12  N   UNL d   1      52.955  32.589  52.666  0.00  0.00    -0.225 NA
BRANCH  12  13
ATOM     13  C   UNL d   1      52.258  33.011  52.773  0.00  0.00     0.163 A 
ATOM     14  N   UNL d   1      51.630  32.676  53.190  0.00  0.00    -0.225 NA
ATOM     15  C   UNL d   1      50.938  33.097  53.296  0.00  0.00     0.101 A 
ATOM     16  C   UNL d   1      50.868  33.856  52.987  0.00  0.00     0.021 A 
ATOM     17  C   UNL d   1      51.485  34.208  52.568  0.00  0.00     0.005 A 
ATOM     18  C   UNL d   1      52.182  33.786  52.460  0.00  0.00     0.039 A 
ENDBRANCH  12  13
ENDBRANCH   1  12
BRANCH   1  19
ATOM     19  C   UNL d   1      53.268  31.467  53.510  0.00  0.00     0.020 A 
ATOM     20  C   UNL d   1      53.181  31.236  54.296  0.00  0.00     0.004 A 
ATOM     21  C   UNL d   1      53.094  30.439  54.478  0.00  0.00     0.024 A 
ATOM     22  C   UNL d   1      53.093  29.874  53.878  0.00  0.00     0.094 A 
ATOM     23  C   UNL d   1      53.180  30.100  53.090  0.00  0.00     0.024 A 
ATOM     24  C   UNL d   1      53.268  30.903  52.910  0.00  0.00     0.004 A 
BRANCH  22  25
ATOM     25  O   UNL d   1      53.003  29.062  54.067  0.00  0.00    -0.328 OA
ATOM     26  C   UNL d   1      53.369  28.730  54.757  0.00  0.00     0.181 C 
ENDBRANCH  22  25
ENDBRANCH   1  19
TORSDOF 6
ENDMDL
MODEL 2
REMARK VINA RESULT:      -8.0      1.154      3.092
REMARK  6 active torsions:
REMARK  status: ('A' for Active; 'I' for Inactive)
REMARK    1  A    between atoms: C_5  and  C_1 
REMARK    2  A    between atoms: N_8  and  C_5 
REMARK    3  A    between atoms: C_9  and  C_5 
REMARK    4  A    between atoms: C_19  and  C_7 
REMARK    5  A    between atoms: C_10  and  N_8 
REMARK    6  A    between atoms: O_20  and  C_16 
ROOT
ATOM      1  C   UNL d   1      52.993  32.605  53.075  0.00  0.00     0.109 C 
ENDROOT
BRANCH   1   2
ATOM      2  C   UNL d   1      53.604  32.799  53.596  0.00  0.00     0.160 A 
ATOM      3  C   UNL d   1      54.342  33.067  53.320  0.00  0.00     0.258 A 
ATOM      4  C   UNL d   1      54.943  33.257  53.876  0.00  0.00     0.238 A 
ATOM      5  O   UNL d   1      54.476  33.144  52.520  0.00  0.00    -0.281 OA
ATOM      6  O   UNL d   1      55.682  33.526  53.600  0.00  0.00    -0.283 OA
ATOM      7  C   UNL d   1      54.809  33.180  54.678  0.00  0.00     0.073 A 
ATOM      8  C   UNL d   1      54.072  32.912  54.954  0.00  0.00     0.146 A 
ATOM      9  O   UNL d   1      53.478  32.724  54.425  0.00  0.00    -0.299 OA
BRANCH   8  10
ATOM     10  C   UNL d   1      53.943  32.836  55.775  0.00  0.00     0.259 C 
ATOM     11  O   UNL d   1      54.057  32.101  56.168  0.00  0.00    -0.281 OA
ENDBRANCH   8  10
ENDBRANCH   1   2
BRANCH   1  12
ATOM     12  N   UNL d   1      53.033  31.931  52.595  0.00  0.00    -0.225 NA
BRANCH  12  13
ATOM     13  C   UNL d   1      52.880  31.189  52.910  0.00  0.00     0.163 A 
ATOM     14  N   UNL d   1      52.122  30.996  53.173  0.00  0.00    -0.225 NA
ATOM     15  C   UNL d   1      51.971  30.258  53.486  0.00  0.00     0.101 A 
ATOM     16  C   UNL d   1      52.577  29.703  53.540  0.00  0.00     0.021 A 
ATOM     17  C   UNL d   1      53.342  29.876  53.283  0.00  0.00     0.005 A 
ATOM     18  C   UNL d   1      53.494  30.620  52.967  0.00  0.00     0.039 A 
ENDBRANCH  12  13
ENDBRANCH   1  12
BRANCH   1  19
ATOM     19  C   UNL d   1      52.323  33.102  53.035  0.00  0.00     0.020 A 
ATOM     20  C   UNL d   1      51.778  33.114  53.654  0.00  0.00     0.004 A 
ATOM     21  C   UNL d   1      51.122  33.606  53.608  0.00  0.00     0.024 A 
ATOM     22  C   UNL d   1      51.008  34.085  52.947  0.00  0.00     0.094 A 
ATOM     23  C   UNL d   1      51.549  34.078  52.326  0.00  0.00     0.024 A 
ATOM     24  C   UNL d   1      52.209  33.582  52.375  0.00  0.00     0.004 A 
BRANCH  22  25
ATOM     25  O   UNL d   1      50.337  34.586  52.904  0.00  0.00    -0.328 OA
ATOM     26  C   UNL d   1      49.754  34.485  52.295  0.00  0.00     0.181 C 
ENDBRANCH  22  25
ENDBRANCH   1  19
TORSDOF 6
ENDMDL
MODEL 3
REMARK VINA RESULT:      -7.7      0.983      3.176
REMARK  6 active torsions:
REMARK  status: ('A' for Active; 'I' for Inactive)
REMARK    1  A    between atoms: C_5  and  C_1 
REMARK    2  A    between atoms: N_8  and  C_5 
REMARK    3  A    between atoms: C_9  and  C_5 
REMARK    4  A    between atoms: C_19  and  C_7 
REMARK    5  A    between atoms: C_10  and  N_8 
REMARK    6  A    between atoms: O_20  and  C_16 
ROOT
ATOM      1  C   UNL d   1      53.195  32.005  53.219  0.00  0.00     0.109 C 
ENDROOT
BRANCH   1   2
ATOM      2  C   UNL d   1      53.108  31.192  53.337  0.00  0.00     0.160 A 
ATOM      3  C   UNL d   1      53.054  30.664  52.697  0.00  0.00     0.258 A 
ATOM      4  C   UNL d   1      52.966  29.842  52.849  0.00  0.00     0.238 A 
ATOM      5  O   UNL d   1      53.086  30.943  51.931  0.00  0.00    -0.281 OA
ATOM      6  O   UNL d   1      52.912  29.313  52.208  0.00  0.00    -0.283 OA
ATOM      7  C   UNL d   1      52.934  29.562  53.616  0.00  0.00     0.073 A 
ATOM      8  C   UNL d   1      52.988  30.090  54.256  0.00  0.00     0.146 A 
ATOM      9  O   UNL d   1      53.073  30.891  54.122  0.00  0.00    -0.299 OA
BRANCH   8  10
ATOM     10  C   UNL d   1      52.954  29.795  55.036  0.00  0.00     0.259 C 
ATOM     11  O   UNL d   1      53.185  29.007  55.215  0.00  0.00    -0.281 OA
ENDBRANCH   8  10
ENDBRANCH   1   2
BRANCH   1  12
ATOM     12  N   UNL d   1      52.743  32.410  52.656  0.00  0.00    -0.225 NA
BRANCH  12  13
ATOM     13  C   UNL d   1      52.104  32.870  52.890  0.00  0.00     0.163 A 
ATOM     14  N   UNL d   1      51.469  32.526  53.290  0.00  0.00    -0.225 NA
ATOM     15  C   UNL d   1      50.835  32.985  53.523  0.00  0.00     0.101 A 
ATOM     16  C   UNL d   1      50.828  33.791  53.358  0.00  0.00     0.021 A 
ATOM     17  C   UNL d   1      51.454  34.153  52.959  0.00  0.00     0.005 A 
ATOM     18  C   UNL d   1      52.093  33.692  52.725  0.00  0.00     0.039 A 
ENDBRANCH  12  13
ENDBRANCH   1  12
BRANCH   1  19
ATOM     19  C   UNL d   1      53.752  32.423  53.680  0.00  0.00     0.020 A 
ATOM     20  C   UNL d   1      53.605  32.567  54.479  0.00  0.00     0.004 A 
ATOM     21  C   UNL d   1      54.158  32.978  54.926  0.00  0.00     0.024 A 
ATOM     22  C   UNL d   1      54.856  33.245  54.580  0.00  0.00     0.094 A 
ATOM     23  C   UNL d   1      55.009  33.104  53.782  0.00  0.00     0.024 A 
ATOM     24  C   UNL d   1      54.451  32.690  53.334  0.00  0.00     0.004 A 
BRANCH  22  25
ATOM     25  O   UNL d   1      55.418  33.664  55.039  0.00  0.00    -0.328 OA
ATOM     26  C   UNL d   1      55.189  34.070  55.749  0.00  0.00     0.181 C 
ENDBRANCH  22  25
ENDBRANCH   1  19
TORSDOF 6
ENDMDL
MODEL 4
REMARK VINA RESULT:      -6.9      1.371      3.723
REMARK  6 active torsions:
REMARK  status: ('A' for Active; 'I' for Inactive)
REMARK    1  A    between atoms: C_5  and  C_1 
REMARK    2  A    between atoms: N_8  and  C_5 
REMARK    3  A    between atoms: C_9  and  C_5 
REMARK    4  A    between atoms: C_19  and  C_7 
REMARK    5  A    between atoms: C_10  and  N_8 
REMARK    6  A    between atoms: O_20  and  C_16 
ROOT
ATOM      1  C   UNL d   1      52.997  32.556  53.201  0.00  0.00     0.109 C 
ENDROOT
BRANCH   1   2
ATOM      2  C   UNL d   1      52.989  31.734  53.276  0.00  0.00     0.160 A 
ATOM      3  C   UNL d   1      52.999  31.237  52.608  0.00  0.00     0.258 A 
ATOM      4  C   UNL d   1      52.990  30.403  52.717  0.00  0.00     0.238 A 
ATOM      5  O   UNL d   1      53.018  31.558  51.859  0.00  0.00    -0.281 OA
ATOM      6  O   UNL d   1      53.001  29.906  52.049  0.00  0.00    -0.283 OA
ATOM      7  C   UNL d   1      52.971  30.082  53.467  0.00  0.00     0.073 A 
ATOM      8  C   UNL d   1      52.960  30.578  54.135  0.00  0.00     0.146 A 
ATOM      9  O   UNL d   1      52.969  31.390  54.043  0.00  0.00    -0.299 OA
BRANCH   8  10
ATOM     10  C   UNL d   1      52.941  30.241  54.897  0.00  0.00     0.259 C 
ATOM     11  O   UNL d   1      53.255  29.474  55.044  0.00  0.00    -0.281 OA
ENDBRANCH   8  10
ENDBRANCH   1   2
BRANCH   1  12
ATOM     12  N   UNL d   1      53.708  32.980  53.172  0.00  0.00    -0.225 NA
BRANCH  12  13
ATOM     13  C   UNL d   1      54.071  33.228  53.865  0.00  0.00     0.163 A 
ATOM     14  N   UNL d   1      53.642  33.645  54.433  0.00  0.00    -0.225 NA
ATOM     15  C   UNL d   1      54.005  33.890  55.122  0.00  0.00     0.101 A 
ATOM     16  C   UNL d   1      54.800  33.721  55.250  0.00  0.00     0.021 A 
ATOM     17  C   UNL d   1      55.246  33.305  54.694  0.00  0.00     0.005 A 
ATOM     18  C   UNL d   1      54.882  33.058  54.000  0.00  0.00     0.039 A 
ENDBRANCH  12  13
ENDBRANCH   1  12
BRANCH   1  19
ATOM     19  C   UNL d   1      52.269  32.965  53.154  0.00  0.00     0.020 A 
ATOM     20  C   UNL d   1      51.662  32.790  53.684  0.00  0.00     0.004 A 
ATOM     21  C   UNL d   1      50.949  33.196  53.631  0.00  0.00     0.024 A 
ATOM     22  C   UNL d   1      50.841  33.774  53.054  0.00  0.00     0.094 A 
ATOM     23  C   UNL d   1      51.446  33.952  52.522  0.00  0.00     0.024 A 
ATOM     24  C   UNL d   1      52.162  33.542  52.577  0.00  0.00     0.004 A 
BRANCH  22  25
ATOM     25  O   UNL d   1      50.113  34.186  53.004  0.00  0.00    -0.328 OA
ATOM     26  C   UNL d   1      49.812  34.454  52.256  0.00  0.00     0.181 C 
ENDBRANCH  22  25
ENDBRANCH   1  19
TORSDOF 6
ENDMDL
MODEL 5
REMARK VINA RESULT:      -6.9      1.464      3.422
REMARK  6 active torsions:
REMARK  status: ('A' for Active; 'I' for Inactive)
REMARK    1  A    between atoms: C_5  and  C_1 
REMARK    2  A    between atoms: N_8  and  C_5 
REMARK    3  A    between atoms: C_9  and  C_5 
REMARK    4  A    between atoms: C_19  and  C_7 
REMARK    5  A    between atoms: C_10  and  N_8 
REMARK    6  A    between atoms: O_20  and  C_16 
ROOT
ATOM      1  C   UNL d   1      53.001  32.591  53.093  0.00  0.00     0.109 C 
ENDROOT
BRANCH   1   2
ATOM      2  C   UNL d   1      52.346  33.069  52.932  0.00  0.00     0.160 A 
ATOM      3  C   UNL d   1      52.311  33.542  52.249  0.00  0.00     0.258 A 
ATOM      4  C   UNL d   1      51.630  34.016  52.113  0.00  0.00     0.238 A 
ATOM      5  O   UNL d   1      52.930  33.543  51.718  0.00  0.00    -0.281 OA
ATOM      6  O   UNL d   1      51.595  34.490  51.429  0.00  0.00    -0.283 OA
ATOM      7  C   UNL d   1      51.010  34.016  52.644  0.00  0.00     0.073 A 
ATOM      8  C   UNL d   1      51.045  33.543  53.327  0.00  0.00     0.146 A 
ATOM      9  O   UNL d   1      51.700  33.077  53.471  0.00  0.00    -0.299 OA
BRANCH   8  10
ATOM     10  C   UNL d   1      50.406  33.548  53.864  0.00  0.00     0.259 C 
ATOM     11  O   UNL d   1      49.897  34.215  53.929  0.00  0.00    -0.281 OA
ENDBRANCH   8  10
ENDBRANCH   1   2
BRANCH   1  12
ATOM     12  N   UNL d   1      53.151  31.903  52.658  0.00  0.00    -0.225 NA
BRANCH  12  13
ATOM     13  C   UNL d   1      52.972  31.166  52.975  0.00  0.00     0.163 A 
ATOM     14  N   UNL d   1      52.187  30.943  53.092  0.00  0.00    -0.225 NA
ATOM     15  C   UNL d   1      52.011  30.211  53.407  0.00  0.00     0.101 A 
ATOM     16  C   UNL d   1      52.619  29.694  53.608  0.00  0.00     0.021 A 
ATOM     17  C   UNL d   1      53.411  29.899  53.498  0.00  0.00     0.005 A 
ATOM     18  C   UNL d   1      53.589  30.636  53.181  0.00  0.00     0.039 A 
ENDBRANCH  12  13
ENDBRANCH   1  12
BRANCH   1  19
ATOM     19  C   UNL d   1      53.520  32.813  53.709  0.00  0.00     0.020 A 
ATOM     20  C   UNL d   1      53.250  32.847  54.487  0.00  0.00     0.004 A 
ATOM     21  C   UNL d   1      53.767  33.066  55.087  0.00  0.00     0.024 A 
ATOM     22  C   UNL d   1      54.550  33.251  54.913  0.00  0.00     0.094 A 
ATOM     23  C   UNL d   1      54.826  33.220  54.137  0.00  0.00     0.024 A 
ATOM     24  C   UNL d   1      54.304  32.999  53.535  0.00  0.00     0.004 A 
BRANCH  22  25
ATOM     25  O   UNL d   1      55.075  33.475  55.528  0.00  0.00    -0.328 OA
ATOM     26  C   UNL d   1      55.659  34.078  55.408  0.00  0.00     0.181 C 
ENDBRANCH  22  25
ENDBRANCH   1  19
TORSDOF 6
ENDMDL
MODEL 6
REMARK VINA RESULT:      -6.2      1.535      2.867
REMARK  6 active torsions:
REMARK  status: ('A' for Active; 'I' for Inactive)
REMARK    1  A    between atoms: C_5  and  C_1 
REMARK    2  A    between atoms: N_8  and  C_5 
REMARK    3  A    between atoms: C_9  and  C_5 
REMARK    4  A    between atoms: C_19  and  C_7 
REMARK    5  A    between atoms: C_10  and  N_8 
REMARK    6  A    between atoms: O_20  and  C_16 
ROOT
ATOM      1  C   UNL d   1      52.924  32.850  53.108  0.00  0.00     0.109 C 
ENDROOT
BRANCH   1   2
ATOM      2  C   UNL d   1      52.242  33.271  52.906  0.00  0.00     0.160 A 
ATOM      3  C   UNL d   1      52.176  33.669  52.179  0.00  0.00     0.258 A 
ATOM      4  C   UNL d   1      51.469  34.089  52.003  0.00  0.00     0.238 A 
ATOM      5  O   UNL d   1      52.792  33.651  51.644  0.00  0.00    -0.281 OA
ATOM      6  O   UNL d   1      51.404  34.487  51.274  0.00  0.00    -0.283 OA
ATOM      7  C   UNL d   1      50.853  34.108  52.538  0.00  0.00     0.073 A 
ATOM      8  C   UNL d   1      50.918  33.710  53.265  0.00  0.00     0.146 A 
ATOM      9  O   UNL d   1      51.600  33.298  53.449  0.00  0.00    -0.299 OA
BRANCH   8  10
ATOM     10  C   UNL d   1      50.283  33.734  53.806  0.00  0.00     0.259 C 
ATOM     11  O   UNL d   1      49.763  34.394  53.838  0.00  0.00    -0.281 OA
ENDBRANCH   8  10
ENDBRANCH   1   2
BRANCH   1  12
ATOM     12  N   UNL d   1      53.647  33.234  53.235  0.00  0.00    -0.225 NA
BRANCH  12  13
ATOM     13  C   UNL d   1      53.882  33.432  53.996  0.00  0.00     0.163 A 
ATOM     14  N   UNL d   1      53.487  34.024  54.413  0.00  0.00    -0.225 NA
ATOM     15  C   UNL d   1      53.722  34.219  55.170  0.00  0.00     0.101 A 
ATOM     16  C   UNL d   1      54.355  33.825  55.518  0.00  0.00     0.021 A 
ATOM     17  C   UNL d   1      54.763  33.230  55.117  0.00  0.00     0.005 A 
ATOM     18  C   UNL d   1      54.527  33.033  54.355  0.00  0.00     0.039 A 
ENDBRANCH  12  13
ENDBRANCH   1  12
BRANCH   1  19
ATOM     19  C   UNL d   1      52.878  32.019  53.183  0.00  0.00     0.020 A 
ATOM     20  C   UNL d   1      52.401  31.682  53.765  0.00  0.00     0.004 A 
ATOM     21  C   UNL d   1      52.361  30.864  53.833  0.00  0.00     0.024 A 
ATOM     22  C   UNL d   1      52.794  30.383  53.323  0.00  0.00     0.094 A 
ATOM     23  C   UNL d   1      53.273  30.715  52.740  0.00  0.00     0.024 A 
ATOM     24  C   UNL d   1      53.312  31.539  52.673  0.00  0.00     0.004 A 
BRANCH  22  25
ATOM     25  O   UNL d   1      52.751  29.549  53.395  0.00  0.00    -0.328 OA
ATOM     26  C   UNL d   1      53.102  29.148  54.056  0.00  0.00     0.181 C 
ENDBRANCH  22  25
ENDBRANCH   1  19
TORSDOF 6
ENDMDL
