MODEL 1
REMARK VINA RESULT:      72.8      0.000      0.000
REMARK  3 active torsions:
REMARK  status: ('A' for Active; 'I' for Inactive)
REMARK       I    between atoms: C_6  and  N_1 
REMARK    1  A    between atoms: C_11  and  C_5 
REMARK    2  A    between atoms: C_12  and  C_6 
REMARK    3  A    between atoms: C_27  and  N_10 
ROOT
ATOM      1  N   UNL d   1     -51.136  26.029  33.390  0.00  0.00    -0.264 N 
ATOM      2  C   UNL d   1     -51.710  26.631  33.381  0.00  0.00     0.198 A 
ATOM      3  C   UNL d   1     -51.536  25.304  33.415  0.00  0.00     0.138 A 
ATOM      4  N   UNL d   1     -52.448  26.272  33.400  0.00  0.00    -0.243 NA
ATOM      5  C   UNL d   1     -52.346  25.454  33.421  0.00  0.00     0.105 A 
ATOM      6  C   UNL d   1     -50.329  26.135  33.377  0.00  0.00     0.263 C 
ATOM      7  C   UNL d   1     -52.333  27.173  33.373  0.00  0.00     0.041 A 
ATOM      8  C   UNL d   1     -50.939  26.894  33.364  0.00  0.00     0.041 A 
ATOM      9  S   UNL d   1     -51.179  24.553  33.431  0.00  0.00    -0.058 SA
ATOM     10  N   UNL d   1     -51.387  28.245  33.332  0.00  0.00    -0.303 N 
ATOM     11  O   UNL d   1     -50.010  26.900  33.352  0.00  0.00    -0.267 OA
ATOM     12  C   UNL d   1     -50.776  27.701  33.339  0.00  0.00     0.080 A 
ATOM     13  C   UNL d   1     -52.159  27.982  33.349  0.00  0.00     0.080 A 
ENDROOT
BRANCH   6  14
ATOM     14  C   UNL d   1     -49.828  25.484  33.389  0.00  0.00     0.056 A 
ATOM     15  C   UNL d   1     -49.023  25.595  33.482  0.00  0.00     0.005 A 
ATOM     16  C   UNL d   1     -48.517  24.944  33.494  0.00  0.00     0.000 A 
ATOM     17  C   UNL d   1     -48.821  24.180  33.413  0.00  0.00     0.000 A 
ATOM     18  C   UNL d   1     -49.637  24.070  33.318  0.00  0.00     0.000 A 
ATOM     19  C   UNL d   1     -48.311  23.529  33.425  0.00  0.00     0.000 C 
ATOM     20  C   UNL d   1     -50.139  24.721  33.306  0.00  0.00     0.005 A 
ENDBRANCH   6  14
BRANCH   5  21
ATOM     21  C   UNL d   1     -52.945  24.892  33.444  0.00  0.00     0.020 A 
ATOM     22  C   UNL d   1     -52.766  24.091  33.307  0.00  0.00     0.004 A 
ATOM     23  C   UNL d   1     -53.378  23.519  33.331  0.00  0.00     0.030 A 
ATOM     24  C   UNL d   1     -54.157  23.759  33.491  0.00  0.00     0.140 A 
ATOM     25  C   UNL d   1     -54.326  24.546  33.625  0.00  0.00     0.030 A 
ATOM     26  F   UNL d   1     -54.757  23.192  33.514  0.00  0.00    -0.204 F 
ATOM     27  C   UNL d   1     -53.737  25.122  33.605  0.00  0.00     0.004 A 
ENDBRANCH   5  21
BRANCH  10  28
ATOM     28  C   UNL d   1     -51.224  29.061  33.307  0.00  0.00     0.080 C 
ATOM     29  C   UNL d   1     -50.456  29.330  33.451  0.00  0.00     0.021 C 
ENDBRANCH  10  28
TORSDOF 3
ENDMDL
MODEL 2
REMARK VINA RESULT:      75.4      1.255      3.191
REMARK  3 active torsions:
REMARK  status: ('A' for Active; 'I' for Inactive)
REMARK       I    between atoms: C_6  and  N_1 
REMARK    1  A    between atoms: C_11  and  C_5 
REMARK    2  A    between atoms: C_12  and  C_6 
REMARK    3  A    between atoms: C_27  and  N_10 
ROOT
ATOM      1  N   UNL d   1     -51.548  25.730  33.322  0.00  0.00    -0.264 N 
ATOM      2  C   UNL d   1     -51.677  24.909  33.317  0.00  0.00     0.198 A 
ATOM      3  C   UNL d   1     -52.290  26.098  33.322  0.00  0.00     0.138 A 
ATOM      4  N   UNL d   1     -52.488  24.783  33.313  0.00  0.00    -0.243 NA
ATOM      5  C   UNL d   1     -52.871  25.514  33.316  0.00  0.00     0.105 A 
ATOM      6  C   UNL d   1     -50.825  26.103  33.328  0.00  0.00     0.263 C 
ATOM      7  C   UNL d   1     -51.880  24.109  33.311  0.00  0.00     0.041 A 
ATOM      8  C   UNL d   1     -50.893  25.132  33.321  0.00  0.00     0.041 A 
ATOM      9  S   UNL d   1     -52.425  26.919  33.326  0.00  0.00    -0.058 SA
ATOM     10  N   UNL d   1     -50.491  23.766  33.314  0.00  0.00    -0.303 N 
ATOM     11  O   UNL d   1     -50.126  25.656  33.327  0.00  0.00    -0.267 OA
ATOM     12  C   UNL d   1     -50.299  24.561  33.320  0.00  0.00     0.080 A 
ATOM     13  C   UNL d   1     -51.276  23.542  33.309  0.00  0.00     0.080 A 
ENDROOT
BRANCH   6  14
ATOM     14  C   UNL d   1     -50.784  26.924  33.333  0.00  0.00     0.056 A 
ATOM     15  C   UNL d   1     -50.054  27.292  33.364  0.00  0.00     0.005 A 
ATOM     16  C   UNL d   1     -50.010  28.116  33.370  0.00  0.00     0.000 A 
ATOM     17  C   UNL d   1     -50.699  28.569  33.344  0.00  0.00     0.000 A 
ATOM     18  C   UNL d   1     -51.438  28.193  33.312  0.00  0.00     0.000 A 
ATOM     19  C   UNL d   1     -50.651  29.395  33.349  0.00  0.00     0.000 C 
ATOM     20  C   UNL d   1     -51.479  27.373  33.307  0.00  0.00     0.005 A 
ENDBRANCH   6  14
BRANCH   5  21
ATOM     21  C   UNL d   1     -53.684  25.635  33.313  0.00  0.00     0.020 A 
ATOM     22  C   UNL d   1     -54.199  24.981  33.311  0.00  0.00     0.004 A 
ATOM     23  C   UNL d   1     -55.028  25.107  33.309  0.00  0.00     0.030 A 
ATOM     24  C   UNL d   1     -55.325  25.882  33.308  0.00  0.00     0.140 A 
ATOM     25  C   UNL d   1     -54.814  26.519  33.311  0.00  0.00     0.030 A 
ATOM     26  F   UNL d   1     -56.141  26.001  33.306  0.00  0.00    -0.204 F 
ATOM     27  C   UNL d   1     -53.997  26.415  33.313  0.00  0.00     0.004 A 
ENDBRANCH   5  21
BRANCH  10  28
ATOM     28  C   UNL d   1     -49.892  23.188  33.313  0.00  0.00     0.080 C 
ATOM     29  C   UNL d   1     -49.105  23.413  33.432  0.00  0.00     0.021 C 
ENDBRANCH  10  28
TORSDOF 3
ENDMDL
