MODEL 1
REMARK VINA RESULT:      45.3      0.000      0.000
REMARK  4 active torsions:
REMARK  status: ('A' for Active; 'I' for Inactive)
REMARK       I    between atoms: N_2  and  C_1 
REMARK       I    between atoms: N_3  and  C_1 
REMARK    1  A    between atoms: C_7  and  N_3 
REMARK    2  A    between atoms: C_8  and  C_12 
REMARK    3  A    between atoms: C_17  and  C_8 
REMARK    4  A    between atoms: O_18  and  C_9 
ROOT
ATOM      1  C   UNL d   1     -55.088-101.641 -40.637  0.00  0.00     0.354 C 
ATOM      2  N   UNL d   1     -55.025-101.518 -41.451  0.00  0.00    -0.256 N 
ATOM      3  N   UNL d   1     -55.332-102.374 -40.353  0.00  0.00    -0.192 NA
ATOM      4  O   UNL d   1     -54.905-101.032 -40.110  0.00  0.00    -0.244 OA
ATOM      5  C   UNL d   1     -54.779-100.780 -41.735  0.00  0.00     0.085 A 
ATOM      6  C   UNL d   1     -55.207-102.125 -41.980  0.00  0.00     0.085 A 
ATOM      7  C   UNL d   1     -54.716-100.655 -42.557  0.00  0.00     0.019 A 
ATOM      8  C   UNL d   1     -55.144-101.999 -42.786  0.00  0.00     0.019 A 
ATOM      9  C   UNL d   1     -54.898-101.263 -43.072  0.00  0.00     0.003 A 
ENDROOT
BRANCH   3  10
ATOM     10  C   UNL d   1     -55.396-102.501 -39.533  0.00  0.00     0.086 A 
ATOM     11  C   UNL d   1     -54.722-102.490 -39.066  0.00  0.00     0.021 A 
ATOM     12  C   UNL d   1     -54.780-102.615 -38.253  0.00  0.00     0.026 A 
ATOM     13  C   UNL d   1     -55.522-102.752 -37.918  0.00  0.00     0.094 A 
ATOM     14  C   UNL d   1     -56.204-102.763 -38.394  0.00  0.00     0.026 A 
ATOM     15  C   UNL d   1     -56.132-102.636 -39.205  0.00  0.00     0.021 A 
BRANCH  13  16
ATOM     16  O   UNL d   1     -55.592-102.879 -37.100  0.00  0.00    -0.328 OA
ATOM     17  C   UNL d   1     -54.985-102.646 -36.591  0.00  0.00     0.181 C 
ENDBRANCH  13  16
ENDBRANCH   3  10
BRANCH   9  18
ATOM     18  C   UNL d   1     -54.835-101.138 -43.889  0.00  0.00     0.000 C 
BRANCH  18  19
ATOM     19  C   UNL d   1     -55.110-100.444 -44.229  0.00  0.00     0.000 A 
ATOM     20  C   UNL d   1     -54.712 -99.734 -44.100  0.00  0.00     0.000 A 
ATOM     21  C   UNL d   1     -54.991 -99.035 -44.443  0.00  0.00     0.000 A 
ATOM     22  C   UNL d   1     -55.671 -99.049 -44.917  0.00  0.00     0.000 A 
ATOM     23  C   UNL d   1     -56.070 -99.763 -45.045  0.00  0.00     0.000 A 
ATOM     24  C   UNL d   1     -55.791-100.458 -44.702  0.00  0.00     0.000 A 
ENDBRANCH  18  19
ENDBRANCH   9  18
TORSDOF 4
ENDMDL
