MODEL 1
REMARK VINA RESULT:      82.3      0.000      0.000
REMARK  4 active torsions:
REMARK  status: ('A' for Active; 'I' for Inactive)
REMARK    1  A    between atoms: N_2  and  S_1 
REMARK    2  A    between atoms: C_5  and  S_1 
REMARK    3  A    between atoms: C_4  and  N_2 
REMARK    4  A    between atoms: C_7  and  C_3 
ROOT
ATOM      1  S   UNL d   1     -58.696 -98.825 -45.801  0.00  0.00     0.285 S 
ATOM      2  O   UNL d   1     -57.938 -98.755 -46.166  0.00  0.00    -0.198 OA
ATOM      3  O   UNL d   1     -59.462 -98.894 -45.437  0.00  0.00    -0.198 OA
ENDROOT
BRANCH   1   4
ATOM      4  N   UNL d   1     -59.066 -98.756 -46.556  0.00  0.00    -0.158 NA
BRANCH   4   5
ATOM      5  C   UNL d   1     -59.297 -99.439 -46.996  0.00  0.00     0.094 A 
ATOM      6  C   UNL d   1     -59.638-100.041 -46.623  0.00  0.00     0.018 A 
ATOM      7  C   UNL d   1     -59.882-100.731 -47.009  0.00  0.00     0.002 A 
ATOM      8  C   UNL d   1     -59.737 -99.947 -45.839  0.00  0.00     0.002 C 
ATOM      9  C   UNL d   1     -59.756-100.785 -47.848  0.00  0.00     0.000 A 
ATOM     10  C   UNL d   1     -59.406-100.152 -48.186  0.00  0.00     0.002 A 
ATOM     11  C   UNL d   1     -59.960-101.422 -48.320  0.00  0.00     0.000 C 
ATOM     12  C   UNL d   1     -59.159 -99.456 -47.804  0.00  0.00     0.018 A 
ATOM     13  C   UNL d   1     -58.812 -98.854 -48.205  0.00  0.00     0.002 C 
ENDBRANCH   4   5
ENDBRANCH   1   4
BRANCH   1  14
ATOM     14  C   UNL d   1     -58.319 -98.894 -45.037  0.00  0.00     0.106 A 
ATOM     15  C   UNL d   1     -57.512 -99.102 -45.030  0.00  0.00     0.020 A 
ATOM     16  C   UNL d   1     -57.133 -99.173 -44.301  0.00  0.00     0.076 A 
ATOM     17  C   UNL d   1     -57.540 -99.041 -43.595  0.00  0.00     0.064 A 
ATOM     18  C   UNL d   1     -58.335 -98.837 -43.606  0.00  0.00     0.012 A 
ATOM     19 CL   UNL d   1     -57.144 -99.117 -42.866  0.00  0.00    -0.082 Cl
ATOM     20  C   UNL d   1     -58.745 -98.757 -44.298  0.00  0.00     0.014 A 
BRANCH  16  21
ATOM     21  C   UNL d   1     -56.321 -99.382 -44.290  0.00  0.00     0.212 C 
ATOM     22  O   UNL d   1     -55.909 -99.071 -43.664  0.00  0.00    -0.644 OA
ATOM     23  O   UNL d   1     -55.993 -99.882 -44.904  0.00  0.00    -0.644 OA
ENDBRANCH  16  21
ENDBRANCH   1  14
TORSDOF 4
ENDMDL
