MODEL 1
REMARK VINA RESULT:      74.9      0.000      0.000
REMARK  9 active torsions:
REMARK  status: ('A' for Active; 'I' for Inactive)
REMARK    1  A    between atoms: C_6  and  N_1 
REMARK    2  A    between atoms: C_2  and  O_5 
REMARK    3  A    between atoms: C_8  and  C_3 
REMARK    4  A    between atoms: C_4  and  C_9 
REMARK    5  A    between atoms: O_5  and  C_4 
REMARK    6  A    between atoms: C_7  and  C_8 
REMARK    7  A    between atoms: C_13  and  C_7 
REMARK    8  A    between atoms: C_10  and  C_13 
REMARK    9  A    between atoms: O_25  and  C_23 
ROOT
ATOM      1  C   UNL d   1     -50.496  26.865  35.736  0.00  0.00     0.108 A 
ATOM      2  C   UNL d   1     -49.992  27.450  36.029  0.00  0.00     0.062 A 
ATOM      3  C   UNL d   1     -51.058  26.512  36.240  0.00  0.00     0.049 A 
ATOM      4  C   UNL d   1     -50.048  27.684  36.827  0.00  0.00     0.007 A 
ATOM      5  C   UNL d   1     -51.110  26.746  37.030  0.00  0.00     0.096 A 
ATOM      6  C   UNL d   1     -50.606  27.331  37.323  0.00  0.00     0.024 A 
ENDROOT
BRANCH   1   7
ATOM      7  O   UNL d   1     -50.446  26.628  34.945  0.00  0.00    -0.273 OA
BRANCH   7   8
ATOM      8  C   UNL d   1     -51.126  26.373  34.550  0.00  0.00     0.300 C 
ATOM      9  O   UNL d   1     -51.814  26.825  34.570  0.00  0.00    -0.259 OA
BRANCH   8  10
ATOM     10  C   UNL d   1     -51.110  25.662  34.133  0.00  0.00     0.065 A 
ATOM     11  C   UNL d   1     -51.797  25.210  34.083  0.00  0.00     0.029 A 
ATOM     12  C   UNL d   1     -51.783  24.501  33.669  0.00  0.00     0.127 A 
ATOM     13  C   UNL d   1     -51.085  24.246  33.306  0.00  0.00     0.024 A 
ATOM     14  C   UNL d   1     -50.408  24.703  33.363  0.00  0.00     0.002 A 
ATOM     15  C   UNL d   1     -50.420  25.410  33.775  0.00  0.00     0.005 A 
BRANCH  12  16
ATOM     16  N   UNL d   1     -52.470  24.045  33.616  0.00  0.00    -0.114 N 
ATOM     17  O   UNL d   1     -52.434  23.232  33.744  0.00  0.00    -0.532 OA
ATOM     18  O   UNL d   1     -53.201  24.406  33.435  0.00  0.00    -0.532 OA
ENDBRANCH  12  16
ENDBRANCH   8  10
ENDBRANCH   7   8
ENDBRANCH   1   7
BRANCH   2  19
ATOM     19  C   UNL d   1     -49.433  27.803  35.530  0.00  0.00     0.198 C 
ATOM     20  O   UNL d   1     -49.364  27.553  34.745  0.00  0.00    -0.286 OA
BRANCH  19  21
ATOM     21  C   UNL d   1     -48.944  28.403  35.817  0.00  0.00     0.043 C 
BRANCH  21  22
ATOM     22  C   UNL d   1     -48.209  28.537  35.466  0.00  0.00     0.010 C 
BRANCH  22  23
ATOM     23  C   UNL d   1     -47.832  29.263  35.570  0.00  0.00     0.030 A 
ATOM     24  S   UNL d   1     -47.368  29.491  36.216  0.00  0.00    -0.086 SA
ATOM     25  C   UNL d   1     -47.100  30.261  36.091  0.00  0.00     0.035 A 
ATOM     26  C   UNL d   1     -47.396  30.519  35.365  0.00  0.00     0.007 A 
ATOM     27  C   UNL d   1     -47.848  29.904  35.042  0.00  0.00     0.007 A 
ENDBRANCH  22  23
ENDBRANCH  21  22
ENDBRANCH  19  21
ENDBRANCH   2  19
BRANCH   5  28
ATOM     28  O   UNL d   1     -51.668  26.394  37.526  0.00  0.00    -0.328 OA
ATOM     29  C   UNL d   1     -51.438  25.787  38.041  0.00  0.00     0.181 C 
ENDBRANCH   5  28
TORSDOF 9
ENDMDL
MODEL 2
REMARK VINA RESULT:      75.6      1.488      3.207
REMARK  9 active torsions:
REMARK  status: ('A' for Active; 'I' for Inactive)
REMARK    1  A    between atoms: C_6  and  N_1 
REMARK    2  A    between atoms: C_2  and  O_5 
REMARK    3  A    between atoms: C_8  and  C_3 
REMARK    4  A    between atoms: C_4  and  C_9 
REMARK    5  A    between atoms: O_5  and  C_4 
REMARK    6  A    between atoms: C_7  and  C_8 
REMARK    7  A    between atoms: C_13  and  C_7 
REMARK    8  A    between atoms: C_10  and  C_13 
REMARK    9  A    between atoms: O_25  and  C_23 
ROOT
ATOM      1  C   UNL d   1     -50.264  26.989  35.112  0.00  0.00     0.108 A 
ATOM      2  C   UNL d   1     -49.591  27.338  34.784  0.00  0.00     0.062 A 
ATOM      3  C   UNL d   1     -50.828  26.629  34.615  0.00  0.00     0.049 A 
ATOM      4  C   UNL d   1     -49.481  27.328  33.958  0.00  0.00     0.007 A 
ATOM      5  C   UNL d   1     -50.714  26.621  33.797  0.00  0.00     0.096 A 
ATOM      6  C   UNL d   1     -50.041  26.971  33.469  0.00  0.00     0.024 A 
ENDROOT
BRANCH   1   7
ATOM      7  O   UNL d   1     -50.381  26.995  35.931  0.00  0.00    -0.273 OA
BRANCH   7   8
ATOM      8  C   UNL d   1     -51.100  26.734  36.244  0.00  0.00     0.300 C 
ATOM      9  O   UNL d   1     -51.728  26.544  35.746  0.00  0.00    -0.259 OA
BRANCH   8  10
ATOM     10  C   UNL d   1     -51.185  26.665  37.062  0.00  0.00     0.065 A 
ATOM     11  C   UNL d   1     -51.775  26.177  37.365  0.00  0.00     0.029 A 
ATOM     12  C   UNL d   1     -51.861  26.107  38.178  0.00  0.00     0.127 A 
ATOM     13  C   UNL d   1     -51.358  26.523  38.686  0.00  0.00     0.024 A 
ATOM     14  C   UNL d   1     -50.775  27.006  38.374  0.00  0.00     0.002 A 
ATOM     15  C   UNL d   1     -50.688  27.077  37.563  0.00  0.00     0.005 A 
BRANCH  12  16
ATOM     16  N   UNL d   1     -52.452  25.617  38.486  0.00  0.00    -0.114 N 
ATOM     17  O   UNL d   1     -52.254  25.019  39.016  0.00  0.00    -0.532 OA
ATOM     18  O   UNL d   1     -53.249  25.729  38.262  0.00  0.00    -0.532 OA
ENDBRANCH  12  16
ENDBRANCH   8  10
ENDBRANCH   7   8
ENDBRANCH   1   7
BRANCH   2  19
ATOM     19  C   UNL d   1     -49.029  27.697  35.276  0.00  0.00     0.198 C 
ATOM     20  O   UNL d   1     -48.783  27.317  35.967  0.00  0.00    -0.286 OA
BRANCH  19  21
ATOM     21  C   UNL d   1     -48.716  28.434  35.075  0.00  0.00     0.043 C 
BRANCH  21  22
ATOM     22  C   UNL d   1     -48.065  28.729  35.487  0.00  0.00     0.010 C 
BRANCH  22  23
ATOM     23  C   UNL d   1     -47.838  29.516  35.386  0.00  0.00     0.030 A 
ATOM     24  S   UNL d   1     -47.312  29.943  35.860  0.00  0.00    -0.086 SA
ATOM     25  C   UNL d   1     -47.247  30.708  35.559  0.00  0.00     0.035 A 
ATOM     26  C   UNL d   1     -47.733  30.763  34.894  0.00  0.00     0.007 A 
ATOM     27  C   UNL d   1     -48.099  30.028  34.786  0.00  0.00     0.007 A 
ENDBRANCH  22  23
ENDBRANCH  21  22
ENDBRANCH  19  21
ENDBRANCH   2  19
BRANCH   5  28
ATOM     28  O   UNL d   1     -51.275  26.263  33.309  0.00  0.00    -0.328 OA
ATOM     29  C   UNL d   1     -51.354  25.439  33.306  0.00  0.00     0.181 C 
ENDBRANCH   5  28
TORSDOF 9
ENDMDL
MODEL 3
REMARK VINA RESULT:      75.8      3.481      6.154
REMARK  9 active torsions:
REMARK  status: ('A' for Active; 'I' for Inactive)
REMARK    1  A    between atoms: C_6  and  N_1 
REMARK    2  A    between atoms: C_2  and  O_5 
REMARK    3  A    between atoms: C_8  and  C_3 
REMARK    4  A    between atoms: C_4  and  C_9 
REMARK    5  A    between atoms: O_5  and  C_4 
REMARK    6  A    between atoms: C_7  and  C_8 
REMARK    7  A    between atoms: C_13  and  C_7 
REMARK    8  A    between atoms: C_10  and  C_13 
REMARK    9  A    between atoms: O_25  and  C_23 
ROOT
ATOM      1  C   UNL d   1     -47.868  29.758  35.355  0.00  0.00     0.108 A 
ATOM      2  C   UNL d   1     -48.380  29.111  35.320  0.00  0.00     0.062 A 
ATOM      3  C   UNL d   1     -47.384  29.868  36.024  0.00  0.00     0.049 A 
ATOM      4  C   UNL d   1     -48.410  28.572  35.955  0.00  0.00     0.007 A 
ATOM      5  C   UNL d   1     -47.417  29.332  36.651  0.00  0.00     0.096 A 
ATOM      6  C   UNL d   1     -47.929  28.684  36.616  0.00  0.00     0.024 A 
ENDROOT
BRANCH   1   7
ATOM      7  O   UNL d   1     -47.833  30.298  34.729  0.00  0.00    -0.273 OA
BRANCH   7   8
ATOM      8  C   UNL d   1     -47.132  30.711  34.583  0.00  0.00     0.300 C 
ATOM      9  O   UNL d   1     -46.403  30.338  34.663  0.00  0.00    -0.259 OA
BRANCH   8  10
ATOM     10  C   UNL d   1     -47.168  31.503  34.355  0.00  0.00     0.065 A 
ATOM     11  C   UNL d   1     -47.873  31.802  34.053  0.00  0.00     0.029 A 
ATOM     12  C   UNL d   1     -47.912  32.590  33.826  0.00  0.00     0.127 A 
ATOM     13  C   UNL d   1     -47.248  33.077  33.900  0.00  0.00     0.024 A 
ATOM     14  C   UNL d   1     -46.551  32.769  34.201  0.00  0.00     0.002 A 
ATOM     15  C   UNL d   1     -46.511  31.984  34.428  0.00  0.00     0.005 A 
BRANCH  12  16
ATOM     16  N   UNL d   1     -48.619  32.894  33.523  0.00  0.00    -0.114 N 
ATOM     17  O   UNL d   1     -48.665  33.687  33.306  0.00  0.00    -0.532 OA
ATOM     18  O   UNL d   1     -49.286  32.399  33.436  0.00  0.00    -0.532 OA
ENDBRANCH  12  16
ENDBRANCH   8  10
ENDBRANCH   7   8
ENDBRANCH   1   7
BRANCH   2  19
ATOM     19  C   UNL d   1     -48.862  29.000  34.655  0.00  0.00     0.198 C 
ATOM     20  O   UNL d   1     -49.175  29.654  34.259  0.00  0.00    -0.286 OA
BRANCH  19  21
ATOM     21  C   UNL d   1     -49.028  28.236  34.390  0.00  0.00     0.043 C 
BRANCH  21  22
ATOM     22  C   UNL d   1     -49.539  28.126  33.751  0.00  0.00     0.010 C 
BRANCH  22  23
ATOM     23  C   UNL d   1     -49.845  27.376  33.596  0.00  0.00     0.030 A 
ATOM     24  S   UNL d   1     -49.412  26.689  33.437  0.00  0.00    -0.086 SA
ATOM     25  C   UNL d   1     -49.940  26.066  33.314  0.00  0.00     0.035 A 
ATOM     26  C   UNL d   1     -50.706  26.362  33.396  0.00  0.00     0.007 A 
ATOM     27  C   UNL d   1     -50.649  27.171  33.570  0.00  0.00     0.007 A 
ENDBRANCH  22  23
ENDBRANCH  21  22
ENDBRANCH  19  21
ENDBRANCH   2  19
BRANCH   5  28
ATOM     28  O   UNL d   1     -46.936  29.444  37.312  0.00  0.00    -0.328 OA
ATOM     29  C   UNL d   1     -46.564  30.175  37.434  0.00  0.00     0.181 C 
ENDBRANCH   5  28
TORSDOF 9
ENDMDL
MODEL 4
REMARK VINA RESULT:      76.9      2.399      4.205
REMARK  9 active torsions:
REMARK  status: ('A' for Active; 'I' for Inactive)
REMARK    1  A    between atoms: C_6  and  N_1 
REMARK    2  A    between atoms: C_2  and  O_5 
REMARK    3  A    between atoms: C_8  and  C_3 
REMARK    4  A    between atoms: C_4  and  C_9 
REMARK    5  A    between atoms: O_5  and  C_4 
REMARK    6  A    between atoms: C_7  and  C_8 
REMARK    7  A    between atoms: C_13  and  C_7 
REMARK    8  A    between atoms: C_10  and  C_13 
REMARK    9  A    between atoms: O_25  and  C_23 
ROOT
ATOM      1  C   UNL d   1     -52.087  24.981  34.664  0.00  0.00     0.108 A 
ATOM      2  C   UNL d   1     -51.588  25.150  34.028  0.00  0.00     0.062 A 
ATOM      3  C   UNL d   1     -52.599  24.325  34.626  0.00  0.00     0.049 A 
ATOM      4  C   UNL d   1     -51.599  24.662  33.352  0.00  0.00     0.007 A 
ATOM      5  C   UNL d   1     -52.607  23.845  33.955  0.00  0.00     0.096 A 
ATOM      6  C   UNL d   1     -52.107  24.013  33.319  0.00  0.00     0.024 A 
ENDROOT
BRANCH   1   7
ATOM      7  O   UNL d   1     -52.082  25.461  35.338  0.00  0.00    -0.273 OA
BRANCH   7   8
ATOM      8  C   UNL d   1     -52.572  25.274  35.978  0.00  0.00     0.300 C 
ATOM      9  O   UNL d   1     -53.251  24.823  35.865  0.00  0.00    -0.259 OA
BRANCH   8  10
ATOM     10  C   UNL d   1     -52.375  25.545  36.731  0.00  0.00     0.065 A 
ATOM     11  C   UNL d   1     -52.842  25.324  37.372  0.00  0.00     0.029 A 
ATOM     12  C   UNL d   1     -52.648  25.593  38.123  0.00  0.00     0.127 A 
ATOM     13  C   UNL d   1     -51.990  26.081  38.233  0.00  0.00     0.024 A 
ATOM     14  C   UNL d   1     -51.532  26.295  37.588  0.00  0.00     0.002 A 
ATOM     15  C   UNL d   1     -51.724  26.028  36.839  0.00  0.00     0.005 A 
BRANCH  12  16
ATOM     16  N   UNL d   1     -53.115  25.373  38.770  0.00  0.00    -0.114 N 
ATOM     17  O   UNL d   1     -53.786  25.811  38.959  0.00  0.00    -0.532 OA
ATOM     18  O   UNL d   1     -52.908  24.707  39.230  0.00  0.00    -0.532 OA
ENDBRANCH  12  16
ENDBRANCH   8  10
ENDBRANCH   7   8
ENDBRANCH   1   7
BRANCH   2  19
ATOM     19  C   UNL d   1     -51.078  25.802  34.064  0.00  0.00     0.198 C 
ATOM     20  O   UNL d   1     -50.357  25.741  34.461  0.00  0.00    -0.286 OA
BRANCH  19  21
ATOM     21  C   UNL d   1     -51.292  26.512  33.702  0.00  0.00     0.043 C 
BRANCH  21  22
ATOM     22  C   UNL d   1     -50.722  26.959  33.306  0.00  0.00     0.010 C 
BRANCH  22  23
ATOM     23  C   UNL d   1     -50.770  27.783  33.311  0.00  0.00     0.030 A 
ATOM     24  S   UNL d   1     -50.137  28.315  33.312  0.00  0.00    -0.086 SA
ATOM     25  C   UNL d   1     -50.437  29.083  33.318  0.00  0.00     0.035 A 
ATOM     26  C   UNL d   1     -51.261  29.035  33.321  0.00  0.00     0.007 A 
ATOM     27  C   UNL d   1     -51.468  28.233  33.317  0.00  0.00     0.007 A 
ENDBRANCH  22  23
ENDBRANCH  21  22
ENDBRANCH  19  21
ENDBRANCH   2  19
BRANCH   5  28
ATOM     28  O   UNL d   1     -53.115  23.195  33.921  0.00  0.00    -0.328 OA
ATOM     29  C   UNL d   1     -53.854  23.267  33.551  0.00  0.00     0.181 C 
ENDBRANCH   5  28
TORSDOF 9
ENDMDL
