MODEL 1
REMARK VINA RESULT:      56.0      0.000      0.000
REMARK  5 active torsions:
REMARK  status: ('A' for Active; 'I' for Inactive)
REMARK    1  A    between atoms: N_14  and  C_6 
REMARK    2  A    between atoms: C_20  and  N_14 
REMARK    3  A    between atoms: N_15  and  C_21 
REMARK    4  A    between atoms: C_17  and  C_20 
REMARK    5  A    between atoms: C_21  and  C_17 
ROOT
ATOM      1  N   UNL d   1      59.437  49.471  50.441  0.00  0.00    -0.183 N 
ATOM      2  C   UNL d   1      58.678  49.543  50.769  0.00  0.00     0.169 A 
ATOM      3  C   UNL d   1      58.014  49.539  50.291  0.00  0.00     0.073 A 
ATOM      4  C   UNL d   1      58.114  49.463  49.483  0.00  0.00     0.185 A 
ATOM      5  N   UNL d   1      58.873  49.391  49.155  0.00  0.00    -0.142 NA
ATOM      6  C   UNL d   1      60.087  49.477  50.935  0.00  0.00     0.218 A 
ATOM      7  N   UNL d   1      58.591  49.619  51.583  0.00  0.00    -0.226 NA
ATOM      8  C   UNL d   1      57.264  49.610  50.615  0.00  0.00     0.007 A 
ATOM      9  N   UNL d   1      57.452  49.457  48.985  0.00  0.00    -0.225 NA
ATOM     10  C   UNL d   1      60.007  49.552  51.740  0.00  0.00     0.071 A 
ATOM     11  C   UNL d   1      56.600  49.606  50.138  0.00  0.00     0.019 A 
ATOM     12  C   UNL d   1      59.248  49.624  52.069  0.00  0.00     0.087 A 
ATOM     13  C   UNL d   1      56.693  49.529  49.313  0.00  0.00     0.083 A 
ATOM     14  C   UNL d   1      57.177  49.686  51.433  0.00  0.00     0.000 C 
ATOM     15  C   UNL d   1      59.161  49.702  52.915  0.00  0.00     0.021 C 
ATOM     16  C   UNL d   1      56.036  49.525  48.832  0.00  0.00     0.021 C 
ENDROOT
BRANCH   6  17
ATOM     17  N   UNL d   1      60.867  49.403  50.588  0.00  0.00    -0.380 NA
BRANCH  17  18
ATOM     18  C   UNL d   1      61.609  49.348  50.195  0.00  0.00     0.164 C 
BRANCH  18  19
ATOM     19  C   UNL d   1      61.982  48.589  50.109  0.00  0.00     0.054 C 
BRANCH  19  20
ATOM     20  C   UNL d   1      61.498  47.894  50.005  0.00  0.00     0.083 C 
BRANCH  20  21
ATOM     21  N   UNL d   1      61.642  47.196  50.471  0.00  0.00    -0.300 N 
ATOM     22  C   UNL d   1      62.216  46.906  49.911  0.00  0.00     0.100 C 
ATOM     23  C   UNL d   1      61.477  46.731  51.165  0.00  0.00     0.100 C 
ENDBRANCH  20  21
ENDBRANCH  19  20
ENDBRANCH  18  19
ENDBRANCH  17  18
ENDBRANCH   6  17
TORSDOF 5
ENDMDL
