MODEL 1
REMARK VINA RESULT:      14.3      0.000      0.000
REMARK  5 active torsions:
REMARK  status: ('A' for Active; 'I' for Inactive)
REMARK    1  A    between atoms: N_4  and  C_1 
REMARK       I    between atoms: C_3  and  N_4 
REMARK    2  A    between atoms: C_8  and  C_3 
REMARK    3  A    between atoms: S_9  and  C_5 
REMARK    4  A    between atoms: C_12  and  S_9 
REMARK    5  A    between atoms: C_15  and  C_12 
ROOT
ATOM      1  C   UNL d   1      46.206 -16.675  44.234  0.00  0.00     0.219 A 
ATOM      2  S   UNL d   1      45.657 -16.220  44.714  0.00  0.00    -0.019 SA
ATOM      3  C   UNL d   1      45.884 -15.387  44.611  0.00  0.00     0.165 A 
ATOM      4  N   UNL d   1      46.633 -16.184  43.940  0.00  0.00    -0.120 NA
ATOM      5  N   UNL d   1      46.424 -15.384  44.181  0.00  0.00    -0.133 NA
ENDROOT
BRANCH   1   6
ATOM      6  N   UNL d   1      46.213 -17.592  44.142  0.00  0.00    -0.181 NA
ATOM      7  C   UNL d   1      46.271 -17.955  43.371  0.00  0.00     0.282 C 
ATOM      8  O   UNL d   1      46.312 -17.536  42.819  0.00  0.00    -0.265 OA
BRANCH   7   9
ATOM      9  C   UNL d   1      46.288 -18.745  43.158  0.00  0.00     0.069 A 
ATOM     10  C   UNL d   1      46.467 -18.946  42.391  0.00  0.00     0.062 A 
ATOM     11 CL   UNL d   1      46.647 -18.315  41.780  0.00  0.00    -0.082 Cl
ATOM     12  C   UNL d   1      46.487 -19.735  42.167  0.00  0.00     0.012 A 
ATOM     13  C   UNL d   1      46.324 -20.329  42.716  0.00  0.00     0.001 A 
ATOM     14  C   UNL d   1      46.140 -20.124  43.501  0.00  0.00     0.000 A 
ATOM     15  C   UNL d   1      46.123 -19.323  43.720  0.00  0.00     0.006 A 
ENDBRANCH   7   9
ENDBRANCH   1   6
BRANCH   3  16
ATOM     16  S   UNL d   1      45.564 -14.605  44.939  0.00  0.00    -0.059 SA
BRANCH  16  17
ATOM     17  C   UNL d   1      45.892 -14.020  44.615  0.00  0.00     0.037 C 
BRANCH  17  18
ATOM     18  C   UNL d   1      45.472 -13.550  44.097  0.00  0.00     0.007 A 
ATOM     19  C   UNL d   1      45.833 -13.211  43.443  0.00  0.00     0.001 A 
ATOM     20  C   UNL d   1      45.407 -12.734  42.917  0.00  0.00     0.007 A 
ATOM     21  C   UNL d   1      44.602 -12.599  43.058  0.00  0.00     0.035 A 
ATOM     22  C   UNL d   1      44.226 -12.945  43.728  0.00  0.00     0.007 A 
ATOM     23 BR   UNL d   1      44.106 -12.081  42.501  0.00  0.00    -0.049 Br
ATOM     24  C   UNL d   1      44.687 -13.420  44.235  0.00  0.00     0.001 A 
ENDBRANCH  17  18
ENDBRANCH  16  17
ENDBRANCH   3  16
TORSDOF 5
ENDMDL
