MODEL 1
REMARK VINA RESULT:      50.2      0.000      0.000
REMARK  8 active torsions:
REMARK  status: ('A' for Active; 'I' for Inactive)
REMARK    1  A    between atoms: C_11  and  N_1 
REMARK    2  A    between atoms: S_10  and  C_2 
REMARK    3  A    between atoms: N_8  and  C_9 
REMARK    4  A    between atoms: C_18  and  S_10 
REMARK    5  A    between atoms: C_19  and  C_11 
REMARK    6  A    between atoms: C_13  and  C_18 
REMARK    7  A    between atoms: O_20  and  C_13 
REMARK    8  A    between atoms: C_25  and  O_20 
ROOT
ATOM      1  N   UNL d   1      45.727 -14.798  44.292  0.00  0.00    -0.253 N 
ATOM      2  C   UNL d   1      46.031 -14.400  43.648  0.00  0.00     0.182 A 
ATOM      3  C   UNL d   1      45.721 -15.633  44.303  0.00  0.00     0.268 A 
ATOM      4  C   UNL d   1      46.034 -16.057  43.641  0.00  0.00     0.076 A 
ATOM      5  N   UNL d   1      46.343 -14.825  42.986  0.00  0.00    -0.222 NA
ATOM      6  C   UNL d   1      46.341 -15.648  42.989  0.00  0.00     0.088 A 
ATOM      7  C   UNL d   1      46.025 -16.894  43.658  0.00  0.00     0.024 A 
ATOM      8  C   UNL d   1      46.331 -17.305  43.010  0.00  0.00     0.065 A 
ATOM      9  O   UNL d   1      45.415 -16.042  44.953  0.00  0.00    -0.267 OA
ATOM     10  C   UNL d   1      46.641 -16.075  42.354  0.00  0.00     0.021 A 
ATOM     11  C   UNL d   1      46.640 -16.900  42.356  0.00  0.00     0.019 A 
ENDROOT
BRANCH   1  12
ATOM     12  C   UNL d   1      45.424 -14.385  44.935  0.00  0.00     0.085 C 
BRANCH  12  13
ATOM     13  C   UNL d   1      44.634 -14.149  44.938  0.00  0.00     0.018 A 
ATOM     14  C   UNL d   1      44.041 -14.713  44.946  0.00  0.00     0.002 A 
ATOM     15  C   UNL d   1      43.251 -14.467  44.949  0.00  0.00     0.000 A 
ATOM     16  C   UNL d   1      43.069 -13.666  44.943  0.00  0.00     0.000 A 
ATOM     17  C   UNL d   1      43.665 -13.103  44.934  0.00  0.00     0.000 A 
ATOM     18  C   UNL d   1      44.452 -13.347  44.931  0.00  0.00     0.002 A 
ENDBRANCH  12  13
ENDBRANCH   1  12
BRANCH   2  19
ATOM     19  S   UNL d   1      46.037 -13.581  43.635  0.00  0.00    -0.044 SA
BRANCH  19  20
ATOM     20  C   UNL d   1      46.392 -13.181  43.014  0.00  0.00     0.107 C 
BRANCH  20  21
ATOM     21  C   UNL d   1      45.941 -12.701  42.507  0.00  0.00     0.307 C 
ATOM     22  O   UNL d   1      46.305 -12.244  41.932  0.00  0.00    -0.258 OA
BRANCH  21  23
ATOM     23  O   UNL d   1      45.127 -12.688  42.587  0.00  0.00    -0.271 OA
BRANCH  23  24
ATOM     24  C   UNL d   1      44.671 -12.235  42.072  0.00  0.00     0.126 C 
ATOM     25  C   UNL d   1      44.873 -12.186  41.268  0.00  0.00     0.029 C 
ENDBRANCH  23  24
ENDBRANCH  21  23
ENDBRANCH  20  21
ENDBRANCH  19  20
ENDBRANCH   2  19
BRANCH   8  26
ATOM     26  N   UNL d   1      46.328 -18.128  43.016  0.00  0.00    -0.300 N 
ATOM     27  C   UNL d   1      46.447 -18.547  42.319  0.00  0.00     0.107 A 
ATOM     28  C   UNL d   1      46.443 -19.375  42.327  0.00  0.00     0.142 A 
ATOM     29  O   UNL d   1      46.321 -19.777  43.034  0.00  0.00    -0.300 OA
ATOM     30  C   UNL d   1      46.202 -19.360  43.730  0.00  0.00     0.142 A 
ATOM     31  C   UNL d   1      46.205 -18.541  43.724  0.00  0.00     0.107 A 
ENDBRANCH   8  26
TORSDOF 8
ENDMDL
