MODEL 1
REMARK VINA RESULT:      -2.8      0.000      0.000
REMARK  7 active torsions:
REMARK  status: ('A' for Active; 'I' for Inactive)
REMARK    1  A    between atoms: C_4  and  C_10 
REMARK    2  A    between atoms: O_17  and  C_4 
REMARK    3  A    between atoms: O_19  and  C_5 
REMARK    4  A    between atoms: O_20  and  C_7 
REMARK    5  A    between atoms: C_12  and  C_8 
REMARK    6  A    between atoms: O_15  and  C_12 
REMARK    7  A    between atoms: C_16  and  O_15 
ROOT
ATOM      1  C   UNL d   1      58.593  -9.752  31.448  0.00  0.00     0.022 A 
ATOM      2  C   UNL d   1      59.362  -9.765  31.158  0.00  0.00     0.028 A 
ATOM      3  C   UNL d   1      57.941  -9.758  30.924  0.00  0.00     0.005 A 
ATOM      4  C   UNL d   1      59.479  -9.783  30.344  0.00  0.00     0.116 A 
ATOM      5  C   UNL d   1      58.062  -9.776  30.114  0.00  0.00     0.026 A 
ATOM      6  C   UNL d   1      58.827  -9.789  29.821  0.00  0.00     0.116 A 
ATOM      7  C   UNL d   1      58.478  -9.734  32.258  0.00  0.00     0.106 A 
ATOM      8  N   UNL d   1      57.709  -9.721  32.548  0.00  0.00    -0.242 NA
ATOM      9  C   UNL d   1      57.057  -9.727  32.025  0.00  0.00     0.099 A 
ATOM     10  C   UNL d   1      57.178  -9.745  31.214  0.00  0.00     0.021 A 
ENDROOT
BRANCH   7  11
ATOM     11  C   UNL d   1      59.131  -9.728  32.782  0.00  0.00     0.142 C 
BRANCH  11  12
ATOM     12  O   UNL d   1      59.013  -9.814  33.589  0.00  0.00    -0.304 OA
BRANCH  12  13
ATOM     13  C   UNL d   1      59.395  -9.305  34.124  0.00  0.00     0.100 A 
ATOM     14  C   UNL d   1      60.204  -9.157  34.063  0.00  0.00     0.025 A 
ATOM     15  C   UNL d   1      60.586  -8.648  34.598  0.00  0.00     0.007 A 
ATOM     16  C   UNL d   1      60.165  -8.278  35.203  0.00  0.00     0.063 A 
ATOM     17  C   UNL d   1      59.356  -8.425  35.263  0.00  0.00     0.007 A 
ATOM     18  C   UNL d   1      58.974  -8.934  34.729  0.00  0.00     0.025 A 
BRANCH  16  19
ATOM     19  C   UNL d   1      60.552  -7.769  35.736  0.00  0.00     0.296 C 
ATOM     20  O   UNL d   1      61.057  -8.062  36.310  0.00  0.00    -0.259 OA
BRANCH  19  21
ATOM     21  O   UNL d   1      60.428  -6.947  35.692  0.00  0.00    -0.296 OA
ATOM     22  C   UNL d   1      60.732  -6.438  36.289  0.00  0.00     0.185 C 
ENDBRANCH  19  21
ENDBRANCH  16  19
ENDBRANCH  12  13
ENDBRANCH  11  12
ENDBRANCH   7  11
BRANCH   4  23
ATOM     23  O   UNL d   1      60.258  -9.796  30.042  0.00  0.00    -0.326 OA
ATOM     24  C   UNL d   1      60.869  -9.466  30.479  0.00  0.00     0.181 C 
ENDBRANCH   4  23
BRANCH   6  25
ATOM     25  O   UNL d   1      58.946  -9.807  28.989  0.00  0.00    -0.326 OA
ATOM     26  C   UNL d   1      58.292  -9.716  28.495  0.00  0.00     0.181 C 
ENDBRANCH   6  25
TORSDOF 7
ENDMDL
MODEL 2
REMARK VINA RESULT:      -1.3      8.394      8.993
REMARK  7 active torsions:
REMARK  status: ('A' for Active; 'I' for Inactive)
REMARK    1  A    between atoms: C_4  and  C_10 
REMARK    2  A    between atoms: O_17  and  C_4 
REMARK    3  A    between atoms: O_19  and  C_5 
REMARK    4  A    between atoms: O_20  and  C_7 
REMARK    5  A    between atoms: C_12  and  C_8 
REMARK    6  A    between atoms: O_15  and  C_12 
REMARK    7  A    between atoms: C_16  and  O_15 
ROOT
ATOM      1  C   UNL d   1      58.626  -1.391  29.994  0.00  0.00     0.022 A 
ATOM      2  C   UNL d   1      59.117  -0.761  30.191  0.00  0.00     0.028 A 
ATOM      3  C   UNL d   1      58.881  -1.976  29.455  0.00  0.00     0.005 A 
ATOM      4  C   UNL d   1      59.863  -0.717  29.849  0.00  0.00     0.116 A 
ATOM      5  C   UNL d   1      59.626  -1.929  29.116  0.00  0.00     0.026 A 
ATOM      6  C   UNL d   1      60.118  -1.303  29.309  0.00  0.00     0.116 A 
ATOM      7  C   UNL d   1      57.883  -1.433  30.336  0.00  0.00     0.106 A 
ATOM      8  N   UNL d   1      57.393  -2.063  30.139  0.00  0.00    -0.242 NA
ATOM      9  C   UNL d   1      57.648  -2.648  29.600  0.00  0.00     0.099 A 
ATOM     10  C   UNL d   1      58.393  -2.601  29.261  0.00  0.00     0.021 A 
ENDROOT
BRANCH   7  11
ATOM     11  C   UNL d   1      57.628  -0.847  30.876  0.00  0.00     0.142 C 
BRANCH  11  12
ATOM     12  O   UNL d   1      56.830  -0.763  31.048  0.00  0.00    -0.304 OA
BRANCH  12  13
ATOM     13  C   UNL d   1      56.589  -0.489  31.795  0.00  0.00     0.100 A 
ATOM     14  C   UNL d   1      56.244  -1.001  32.342  0.00  0.00     0.025 A 
ATOM     15  C   UNL d   1      56.003  -0.727  33.088  0.00  0.00     0.007 A 
ATOM     16  C   UNL d   1      56.103   0.063  33.301  0.00  0.00     0.063 A 
ATOM     17  C   UNL d   1      56.448   0.575  32.754  0.00  0.00     0.007 A 
ATOM     18  C   UNL d   1      56.689   0.301  32.008  0.00  0.00     0.025 A 
BRANCH  16  19
ATOM     19  C   UNL d   1      55.860   0.333  34.050  0.00  0.00     0.296 C 
ATOM     20  O   UNL d   1      55.081   0.264  34.293  0.00  0.00    -0.259 OA
BRANCH  19  21
ATOM     21  O   UNL d   1      56.412   0.681  34.568  0.00  0.00    -0.296 OA
ATOM     22  C   UNL d   1      56.317   0.612  35.400  0.00  0.00     0.185 C 
ENDBRANCH  19  21
ENDBRANCH  16  19
ENDBRANCH  12  13
ENDBRANCH  11  12
ENDBRANCH   7  11
BRANCH   4  23
ATOM     23  O   UNL d   1      60.367  -0.080  30.044  0.00  0.00    -0.326 OA
ATOM     24  C   UNL d   1      60.166   0.682  29.816  0.00  0.00     0.181 C 
ENDBRANCH   4  23
BRANCH   6  25
ATOM     25  O   UNL d   1      60.880  -1.258  28.959  0.00  0.00    -0.326 OA
ATOM     26  C   UNL d   1      61.133  -1.884  28.484  0.00  0.00     0.181 C 
ENDBRANCH   6  25
TORSDOF 7
ENDMDL
