MODEL 1
REMARK VINA RESULT:      -6.3      0.000      0.000
REMARK  4 active torsions:
REMARK  status: ('A' for Active; 'I' for Inactive)
REMARK    1  A    between atoms: N_3  and  C_1 
REMARK    2  A    between atoms: C_4  and  C_2 
REMARK       I    between atoms: C_6  and  N_3 
REMARK    3  A    between atoms: C_18  and  C_6 
REMARK    4  A    between atoms: C_17  and  C_18 
ROOT
ATOM      1  N   UNL d   1     -41.494-122.273 -53.054  0.00  0.00    -0.201 NA
ATOM      2  C   UNL d   1     -41.294-122.588 -52.320  0.00  0.00     0.280 C 
ATOM      3  O   UNL d   1     -41.124-123.394 -52.235  0.00  0.00    -0.265 OA
ENDROOT
BRANCH   2   4
ATOM      4  C   UNL d   1     -41.263-122.089 -51.653  0.00  0.00     0.063 C 
BRANCH   4   5
ATOM      5  C   UNL d   1     -41.628-122.314 -50.937  0.00  0.00     0.007 A 
ATOM      6  C   UNL d   1     -41.209-122.750 -50.368  0.00  0.00     0.026 A 
ATOM      7  C   UNL d   1     -41.581-122.970 -49.657  0.00  0.00     0.119 A 
ATOM      8  O   UNL d   1     -41.307-123.398 -49.000  0.00  0.00    -0.300 OA
ATOM      9  C   UNL d   1     -42.360-122.757 -49.518  0.00  0.00     0.119 A 
ATOM     10  C   UNL d   1     -41.939-123.444 -48.449  0.00  0.00     0.304 A 
ATOM     11  O   UNL d   1     -42.574-123.047 -48.780  0.00  0.00    -0.300 OA
ATOM     12  C   UNL d   1     -42.780-122.321 -50.084  0.00  0.00     0.026 A 
ATOM     13  C   UNL d   1     -42.410-122.104 -50.786  0.00  0.00     0.002 A 
ENDBRANCH   4   5
ENDBRANCH   2   4
BRANCH   1  14
ATOM     14  C   UNL d   1     -41.526-122.762 -53.715  0.00  0.00     0.119 A 
ATOM     15  C   UNL d   1     -41.870-122.581 -54.435  0.00  0.00     0.084 A 
ATOM     16  C   UNL d   1     -41.777-123.222 -54.934  0.00  0.00     0.014 A 
ATOM     17  C   UNL d   1     -41.368-123.817 -54.527  0.00  0.00     0.037 A 
ATOM     18  S   UNL d   1     -41.214-123.523 -53.763  0.00  0.00    -0.067 SA
BRANCH  15  19
ATOM     19  C   UNL d   1     -42.251-121.878 -54.641  0.00  0.00     0.299 C 
ATOM     20  O   UNL d   1     -43.025-121.719 -54.406  0.00  0.00    -0.264 OA
ATOM     21  N   UNL d   1     -41.844-121.323 -55.092  0.00  0.00    -0.102 N 
ENDBRANCH  15  19
ENDBRANCH   1  14
TORSDOF 4
ENDMDL
MODEL 2
REMARK VINA RESULT:      -4.4      2.032      4.840
REMARK  4 active torsions:
REMARK  status: ('A' for Active; 'I' for Inactive)
REMARK    1  A    between atoms: N_3  and  C_1 
REMARK    2  A    between atoms: C_4  and  C_2 
REMARK       I    between atoms: C_6  and  N_3 
REMARK    3  A    between atoms: C_18  and  C_6 
REMARK    4  A    between atoms: C_17  and  C_18 
ROOT
ATOM      1  N   UNL d   1     -41.854-122.793 -49.660  0.00  0.00    -0.201 NA
ATOM      2  C   UNL d   1     -41.955-122.814 -50.476  0.00  0.00     0.280 C 
ATOM      3  O   UNL d   1     -42.600-123.209 -50.816  0.00  0.00    -0.265 OA
ENDROOT
BRANCH   2   4
ATOM      4  C   UNL d   1     -41.402-122.432 -50.969  0.00  0.00     0.063 C 
BRANCH   4   5
ATOM      5  C   UNL d   1     -41.424-122.540 -51.797  0.00  0.00     0.007 A 
ATOM      6  C   UNL d   1     -41.750-121.957 -52.290  0.00  0.00     0.026 A 
ATOM      7  C   UNL d   1     -41.768-122.074 -53.114  0.00  0.00     0.119 A 
ATOM      8  O   UNL d   1     -42.053-121.598 -53.733  0.00  0.00    -0.300 OA
ATOM      9  C   UNL d   1     -41.465-122.763 -53.439  0.00  0.00     0.119 A 
ATOM     10  C   UNL d   1     -41.918-122.012 -54.450  0.00  0.00     0.304 A 
ATOM     11  O   UNL d   1     -41.559-122.720 -54.253  0.00  0.00    -0.300 OA
ATOM     12  C   UNL d   1     -41.140-123.346 -52.948  0.00  0.00     0.026 A 
ATOM     13  C   UNL d   1     -41.123-123.229 -52.133  0.00  0.00     0.002 A 
ENDBRANCH   4   5
ENDBRANCH   2   4
BRANCH   1  14
ATOM     14  C   UNL d   1     -42.398-123.169 -49.170  0.00  0.00     0.119 A 
ATOM     15  C   UNL d   1     -42.320-123.292 -48.364  0.00  0.00     0.084 A 
ATOM     16  C   UNL d   1     -42.986-123.684 -48.097  0.00  0.00     0.014 A 
ATOM     17  C   UNL d   1     -43.494-123.812 -48.741  0.00  0.00     0.037 A 
ATOM     18  S   UNL d   1     -43.119-123.487 -49.410  0.00  0.00    -0.067 SA
BRANCH  15  19
ATOM     19  C   UNL d   1     -41.686-123.066 -47.886  0.00  0.00     0.299 C 
ATOM     20  O   UNL d   1     -41.586-122.287 -47.639  0.00  0.00    -0.264 OA
ATOM     21  N   UNL d   1     -41.140-123.638 -47.654  0.00  0.00    -0.102 N 
ENDBRANCH  15  19
ENDBRANCH   1  14
TORSDOF 4
ENDMDL
MODEL 3
REMARK VINA RESULT:      -4.2      1.555      4.533
REMARK  4 active torsions:
REMARK  status: ('A' for Active; 'I' for Inactive)
REMARK    1  A    between atoms: N_3  and  C_1 
REMARK    2  A    between atoms: C_4  and  C_2 
REMARK       I    between atoms: C_6  and  N_3 
REMARK    3  A    between atoms: C_18  and  C_6 
REMARK    4  A    between atoms: C_17  and  C_18 
ROOT
ATOM      1  N   UNL d   1     -41.881-122.281 -51.017  0.00  0.00    -0.201 NA
ATOM      2  C   UNL d   1     -41.551-122.408 -51.760  0.00  0.00     0.280 C 
ATOM      3  O   UNL d   1     -41.123-123.099 -51.923  0.00  0.00    -0.265 OA
ENDROOT
BRANCH   2   4
ATOM      4  C   UNL d   1     -41.648-121.835 -52.358  0.00  0.00     0.063 C 
BRANCH   4   5
ATOM      5  C   UNL d   1     -41.714-122.063 -53.158  0.00  0.00     0.007 A 
ATOM      6  C   UNL d   1     -42.228-121.660 -53.671  0.00  0.00     0.026 A 
ATOM      7  C   UNL d   1     -42.288-121.895 -54.467  0.00  0.00     0.119 A 
ATOM      8  O   UNL d   1     -42.745-121.602 -55.096  0.00  0.00    -0.300 OA
ATOM      9  C   UNL d   1     -41.841-122.522 -54.746  0.00  0.00     0.119 A 
ATOM     10  C   UNL d   1     -42.568-122.067 -55.772  0.00  0.00     0.304 A 
ATOM     11  O   UNL d   1     -42.015-122.623 -55.542  0.00  0.00    -0.300 OA
ATOM     12  C   UNL d   1     -41.328-122.926 -54.236  0.00  0.00     0.026 A 
ATOM     13  C   UNL d   1     -41.270-122.693 -53.449  0.00  0.00     0.002 A 
ENDBRANCH   4   5
ENDBRANCH   2   4
BRANCH   1  14
ATOM     14  C   UNL d   1     -41.787-122.844 -50.425  0.00  0.00     0.119 A 
ATOM     15  C   UNL d   1     -42.323-123.016 -49.830  0.00  0.00     0.084 A 
ATOM     16  C   UNL d   1     -42.010-123.609 -49.363  0.00  0.00     0.014 A 
ATOM     17  C   UNL d   1     -41.265-123.817 -49.663  0.00  0.00     0.037 A 
ATOM     18  S   UNL d   1     -41.132-123.333 -50.329  0.00  0.00    -0.067 SA
BRANCH  15  19
ATOM     19  C   UNL d   1     -43.059-122.661 -49.708  0.00  0.00     0.299 C 
ATOM     20  O   UNL d   1     -43.750-122.974 -50.030  0.00  0.00    -0.264 OA
ATOM     21  N   UNL d   1     -43.099-121.976 -49.252  0.00  0.00    -0.102 N 
ENDBRANCH  15  19
ENDBRANCH   1  14
TORSDOF 4
ENDMDL
