MODEL 1
REMARK VINA RESULT:      -5.9      0.000      0.000
REMARK  3 active torsions:
REMARK  status: ('A' for Active; 'I' for Inactive)
REMARK    1  A    between atoms: C_4  and  C_1 
REMARK       I    between atoms: N_7  and  C_4 
REMARK    2  A    between atoms: C_14  and  N_7 
REMARK    3  A    between atoms: C_9  and  C_10 
ROOT
ATOM      1  C   UNL d   1     -41.890-123.181 -50.257  0.00  0.00     0.281 C 
ATOM      2  N   UNL d   1     -41.204-122.997 -50.654  0.00  0.00    -0.208 NA
ATOM      3  O   UNL d   1     -42.580-123.361 -50.673  0.00  0.00    -0.265 OA
ENDROOT
BRANCH   2   4
ATOM      4  C   UNL d   1     -41.199-122.992 -51.473  0.00  0.00     0.085 A 
ATOM      5  C   UNL d   1     -41.272-122.254 -51.874  0.00  0.00     0.019 A 
ATOM      6  C   UNL d   1     -41.269-122.229 -52.692  0.00  0.00     0.005 A 
ATOM      7  C   UNL d   1     -41.196-122.920 -53.130  0.00  0.00     0.039 A 
ATOM      8  C   UNL d   1     -41.125-123.645 -52.728  0.00  0.00     0.005 A 
ATOM      9  C   UNL d   1     -41.128-123.673 -51.911  0.00  0.00     0.019 A 
BRANCH   7  10
ATOM     10  C   UNL d   1     -41.194-122.895 -53.975  0.00  0.00     0.196 C 
ATOM     11  O   UNL d   1     -41.126-122.194 -54.372  0.00  0.00    -0.287 OA
ATOM     12  C   UNL d   1     -41.262-123.610 -54.415  0.00  0.00     0.045 C 
ENDBRANCH   7  10
ENDBRANCH   2   4
BRANCH   1  13
ATOM     13  C   UNL d   1     -41.922-123.194 -49.425  0.00  0.00     0.076 A 
ATOM     14  C   UNL d   1     -42.559-123.041 -48.955  0.00  0.00     0.092 A 
ATOM     15  S   UNL d   1     -42.348-123.116 -48.146  0.00  0.00    -0.064 SA
ATOM     16 CL   UNL d   1     -43.337-122.833 -49.241  0.00  0.00    -0.075 Cl
ATOM     17  C   UNL d   1     -41.592-123.312 -48.125  0.00  0.00     0.088 A 
ATOM     18  C   UNL d   1     -41.302-123.367 -48.911  0.00  0.00     0.024 A 
ATOM     19 CL   UNL d   1     -41.143-123.446 -47.420  0.00  0.00    -0.075 Cl
ENDBRANCH   1  13
TORSDOF 3
ENDMDL
MODEL 2
REMARK VINA RESULT:      -5.1      2.724      4.580
REMARK  3 active torsions:
REMARK  status: ('A' for Active; 'I' for Inactive)
REMARK    1  A    between atoms: C_4  and  C_1 
REMARK       I    between atoms: N_7  and  C_4 
REMARK    2  A    between atoms: C_14  and  N_7 
REMARK    3  A    between atoms: C_9  and  C_10 
ROOT
ATOM      1  C   UNL d   1     -41.782-122.828 -52.786  0.00  0.00     0.281 C 
ATOM      2  N   UNL d   1     -41.514-122.335 -52.196  0.00  0.00    -0.208 NA
ATOM      3  O   UNL d   1     -42.098-123.569 -52.602  0.00  0.00    -0.265 OA
ENDROOT
BRANCH   2   4
ATOM      4  C   UNL d   1     -41.558-122.578 -51.415  0.00  0.00     0.085 A 
ATOM      5  C   UNL d   1     -42.072-122.165 -50.889  0.00  0.00     0.019 A 
ATOM      6  C   UNL d   1     -42.129-122.393 -50.106  0.00  0.00     0.005 A 
ATOM      7  C   UNL d   1     -41.687-123.025 -49.822  0.00  0.00     0.039 A 
ATOM      8  C   UNL d   1     -41.182-123.429 -50.346  0.00  0.00     0.005 A 
ATOM      9  C   UNL d   1     -41.123-123.203 -51.130  0.00  0.00     0.019 A 
BRANCH   7  10
ATOM     10  C   UNL d   1     -41.745-123.262 -49.013  0.00  0.00     0.196 C 
ATOM     11  O   UNL d   1     -41.158-123.089 -48.484  0.00  0.00    -0.287 OA
ATOM     12  C   UNL d   1     -42.424-123.685 -48.748  0.00  0.00     0.045 C 
ENDBRANCH   7  10
ENDBRANCH   2   4
BRANCH   1  13
ATOM     13  C   UNL d   1     -41.749-122.606 -53.587  0.00  0.00     0.076 A 
ATOM     14  C   UNL d   1     -41.459-123.035 -54.205  0.00  0.00     0.092 A 
ATOM     15  S   UNL d   1     -41.533-122.601 -54.921  0.00  0.00    -0.064 SA
ATOM     16 CL   UNL d   1     -41.123-123.817 -54.139  0.00  0.00    -0.075 Cl
ATOM     17  C   UNL d   1     -41.866-121.918 -54.739  0.00  0.00     0.088 A 
ATOM     18  C   UNL d   1     -42.011-121.896 -53.912  0.00  0.00     0.024 A 
ATOM     19 CL   UNL d   1     -42.048-121.303 -55.292  0.00  0.00    -0.075 Cl
ENDBRANCH   1  13
TORSDOF 3
ENDMDL
MODEL 3
REMARK VINA RESULT:      -4.9      2.245      4.470
REMARK  3 active torsions:
REMARK  status: ('A' for Active; 'I' for Inactive)
REMARK    1  A    between atoms: C_4  and  C_1 
REMARK       I    between atoms: N_7  and  C_4 
REMARK    2  A    between atoms: C_14  and  N_7 
REMARK    3  A    between atoms: C_9  and  C_10 
ROOT
ATOM      1  C   UNL d   1     -41.445-122.765 -51.270  0.00  0.00     0.281 C 
ATOM      2  N   UNL d   1     -41.689-123.408 -50.836  0.00  0.00    -0.208 NA
ATOM      3  O   UNL d   1     -41.280-122.046 -50.898  0.00  0.00    -0.265 OA
ENDROOT
BRANCH   2   4
ATOM      4  C   UNL d   1     -41.772-123.341 -50.024  0.00  0.00     0.085 A 
ATOM      5  C   UNL d   1     -42.525-123.130 -49.709  0.00  0.00     0.019 A 
ATOM      6  C   UNL d   1     -42.626-123.058 -48.900  0.00  0.00     0.005 A 
ATOM      7  C   UNL d   1     -41.998-123.190 -48.388  0.00  0.00     0.039 A 
ATOM      8  C   UNL d   1     -41.257-123.397 -48.705  0.00  0.00     0.005 A 
ATOM      9  C   UNL d   1     -41.153-123.470 -49.513  0.00  0.00     0.019 A 
BRANCH   7  10
ATOM     10  C   UNL d   1     -42.102-123.115 -47.552  0.00  0.00     0.196 C 
ATOM     11  O   UNL d   1     -42.037-122.397 -47.185  0.00  0.00    -0.287 OA
ATOM     12  C   UNL d   1     -42.276-123.797 -47.090  0.00  0.00     0.045 C 
ENDBRANCH   7  10
ENDBRANCH   2   4
BRANCH   1  13
ATOM     13  C   UNL d   1     -41.352-122.806 -52.096  0.00  0.00     0.076 A 
ATOM     14  C   UNL d   1     -41.306-122.193 -52.618  0.00  0.00     0.092 A 
ATOM     15  S   UNL d   1     -41.214-122.482 -53.401  0.00  0.00    -0.064 SA
ATOM     16 CL   UNL d   1     -41.344-121.367 -52.402  0.00  0.00    -0.075 Cl
ATOM     17  C   UNL d   1     -41.205-123.262 -53.355  0.00  0.00     0.088 A 
ATOM     18  C   UNL d   1     -41.290-123.490 -52.551  0.00  0.00     0.024 A 
ATOM     19 CL   UNL d   1     -41.123-123.787 -54.014  0.00  0.00    -0.075 Cl
ENDBRANCH   1  13
TORSDOF 3
ENDMDL
