MODEL 1
REMARK VINA RESULT:      34.1      0.000      0.000
REMARK  1 active torsions:
REMARK  status: ('A' for Active; 'I' for Inactive)
REMARK    1  A    between atoms: C_5  and  C_1 
ROOT
ATOM      1  N   UNL d   1     -52.069  25.298  33.340  0.00  0.00    -0.242 NA
ATOM      2  C   UNL d   1     -51.247  25.234  33.336  0.00  0.00     0.117 A 
ATOM      3  C   UNL d   1     -52.524  24.599  33.338  0.00  0.00     0.081 A 
ATOM      4  C   UNL d   1     -50.880  24.511  33.330  0.00  0.00     0.022 A 
ATOM      5  C   UNL d   1     -52.164  23.879  33.332  0.00  0.00     0.018 A 
ATOM      6  C   UNL d   1     -51.351  23.833  33.328  0.00  0.00     0.003 A 
ATOM      7  C   UNL d   1     -53.345  24.655  33.342  0.00  0.00     0.019 A 
ATOM      8  C   UNL d   1     -52.636  23.201  33.330  0.00  0.00     0.002 A 
ATOM      9  C   UNL d   1     -53.809  23.967  33.340  0.00  0.00     0.002 A 
ATOM     10  C   UNL d   1     -53.444  23.246  33.334  0.00  0.00     0.000 A 
ENDROOT
BRANCH   2  11
ATOM     11  C   UNL d   1     -50.780  25.906  33.337  0.00  0.00     0.180 A 
ATOM     12  N   UNL d   1     -49.947  25.931  33.328  0.00  0.00    -0.224 NA
ATOM     13  C   UNL d   1     -49.722  26.710  33.334  0.00  0.00     0.101 A 
ATOM     14  C   UNL d   1     -48.966  27.075  33.328  0.00  0.00     0.021 A 
ATOM     15  C   UNL d   1     -50.401  27.181  33.347  0.00  0.00     0.101 A 
ATOM     16  C   UNL d   1     -48.899  27.894  33.337  0.00  0.00     0.002 A 
ATOM     17  C   UNL d   1     -49.577  28.365  33.350  0.00  0.00     0.002 A 
ATOM     18  C   UNL d   1     -50.329  28.022  33.355  0.00  0.00     0.021 A 
ATOM     19  N   UNL d   1     -51.052  26.699  33.349  0.00  0.00    -0.224 NA
ENDBRANCH   2  11
TORSDOF 1
ENDMDL
