MODEL 1
REMARK VINA RESULT:      21.6      0.000      0.000
REMARK  3 active torsions:
REMARK  status: ('A' for Active; 'I' for Inactive)
REMARK       I    between atoms: N_2  and  C_1 
REMARK    1  A    between atoms: C_4  and  C_1 
REMARK    2  A    between atoms: C_3  and  N_2 
REMARK    3  A    between atoms: S_11  and  C_7 
ROOT
ATOM      1  C   UNL d   1     -51.511  24.872  33.642  0.00  0.00     0.064 A 
ATOM      2  C   UNL d   1     -51.032  25.540  33.608  0.00  0.00     0.030 A 
ATOM      3  C   UNL d   1     -52.330  24.940  33.522  0.00  0.00     0.005 A 
ATOM      4  C   UNL d   1     -51.363  26.280  33.455  0.00  0.00     0.006 A 
ATOM      5  C   UNL d   1     -52.662  25.680  33.369  0.00  0.00     0.000 A 
ATOM      6  C   UNL d   1     -52.174  26.351  33.336  0.00  0.00     0.001 A 
ENDROOT
BRANCH   1   7
ATOM      7  C   UNL d   1     -51.180  24.132  33.795  0.00  0.00     0.281 C 
ATOM      8  N   UNL d   1     -51.674  23.473  33.903  0.00  0.00    -0.183 NA
ATOM      9  O   UNL d   1     -50.362  24.048  33.840  0.00  0.00    -0.265 OA
BRANCH   8  10
ATOM     10  C   UNL d   1     -52.480  23.554  33.859  0.00  0.00     0.197 A 
ATOM     11  N   UNL d   1     -52.895  24.013  33.306  0.00  0.00    -0.219 NA
ATOM     12  C   UNL d   1     -53.707  23.936  33.461  0.00  0.00     0.108 A 
ATOM     13  C   UNL d   1     -53.801  23.428  34.112  0.00  0.00     0.059 A 
ATOM     14  S   UNL d   1     -53.044  23.196  34.353  0.00  0.00    -0.046 SA
ENDBRANCH   8  10
ENDBRANCH   1   7
BRANCH   2  15
ATOM     15  S   UNL d   1     -50.220  25.468  33.728  0.00  0.00    -0.113 SA
ATOM     16  C   UNL d   1     -49.710  26.045  33.436  0.00  0.00     0.074 C 
ENDBRANCH   2  15
TORSDOF 3
ENDMDL
MODEL 2
REMARK VINA RESULT:      23.6      1.554      2.461
REMARK  3 active torsions:
REMARK  status: ('A' for Active; 'I' for Inactive)
REMARK       I    between atoms: N_2  and  C_1 
REMARK    1  A    between atoms: C_4  and  C_1 
REMARK    2  A    between atoms: C_3  and  N_2 
REMARK    3  A    between atoms: S_11  and  C_7 
ROOT
ATOM      1  C   UNL d   1     -51.231  25.514  33.341  0.00  0.00     0.064 A 
ATOM      2  C   UNL d   1     -51.480  26.298  33.333  0.00  0.00     0.030 A 
ATOM      3  C   UNL d   1     -50.420  25.334  33.346  0.00  0.00     0.005 A 
ATOM      4  C   UNL d   1     -50.925  26.909  33.331  0.00  0.00     0.006 A 
ATOM      5  C   UNL d   1     -49.865  25.945  33.343  0.00  0.00     0.000 A 
ATOM      6  C   UNL d   1     -50.121  26.735  33.335  0.00  0.00     0.001 A 
ENDROOT
BRANCH   1   7
ATOM      7  C   UNL d   1     -51.786  24.903  33.344  0.00  0.00     0.281 C 
ATOM      8  N   UNL d   1     -51.530  24.114  33.385  0.00  0.00    -0.183 NA
ATOM      9  O   UNL d   1     -52.589  25.076  33.306  0.00  0.00    -0.265 OA
BRANCH   8  10
ATOM     10  C   UNL d   1     -50.738  23.940  33.422  0.00  0.00     0.197 A 
ATOM     11  N   UNL d   1     -50.116  24.477  33.307  0.00  0.00    -0.219 NA
ATOM     12  C   UNL d   1     -49.399  24.067  33.395  0.00  0.00     0.108 A 
ATOM     13  C   UNL d   1     -49.573  23.272  33.567  0.00  0.00     0.059 A 
ATOM     14  S   UNL d   1     -50.398  23.200  33.582  0.00  0.00    -0.046 SA
ENDBRANCH   8  10
ENDBRANCH   1   7
BRANCH   2  15
ATOM     15  S   UNL d   1     -52.286  26.472  33.328  0.00  0.00    -0.113 SA
ATOM     16  C   UNL d   1     -52.535  27.256  33.323  0.00  0.00     0.074 C 
ENDBRANCH   2  15
TORSDOF 3
ENDMDL
