MODEL 1
REMARK VINA RESULT:      -5.7      0.000      0.000
REMARK  2 active torsions:
REMARK  status: ('A' for Active; 'I' for Inactive)
REMARK    1  A    between atoms: C_7  and  C_3 
REMARK    2  A    between atoms: N_9  and  C_8 
ROOT
ATOM      1  N   UNL d   1      57.695   0.166  30.491  0.00  0.00    -0.227 NA
ATOM      2  N   UNL d   1      57.665  -1.228  30.755  0.00  0.00    -0.227 NA
ATOM      3  C   UNL d   1      57.443  -0.452  30.964  0.00  0.00     0.162 A 
ATOM      4  C   UNL d   1      58.129  -1.349  30.082  0.00  0.00     0.085 A 
ATOM      5  C   UNL d   1      58.164   0.049  29.809  0.00  0.00     0.085 A 
ATOM      6  C   UNL d   1      58.382  -0.712  29.604  0.00  0.00     0.035 A 
ATOM      7  C   UNL d   1      58.852  -0.853  28.926  0.00  0.00     0.003 A 
ATOM      8  C   UNL d   1      58.355  -2.137  29.870  0.00  0.00     0.019 A 
ATOM      9  C   UNL d   1      58.412   0.682  29.339  0.00  0.00     0.019 A 
ATOM     10  C   UNL d   1      58.879   0.564  28.660  0.00  0.00     0.002 A 
ATOM     11  C   UNL d   1      58.824  -2.254  29.189  0.00  0.00     0.002 A 
ATOM     12  C   UNL d   1      59.097  -0.197  28.455  0.00  0.00     0.000 A 
ATOM     13  C   UNL d   1      59.072  -1.621  28.719  0.00  0.00     0.000 A 
ENDROOT
BRANCH   3  14
ATOM     14  C   UNL d   1      56.986  -0.293  31.621  0.00  0.00     0.036 A 
ATOM     15  C   UNL d   1      56.893   0.481  31.885  0.00  0.00     0.004 A 
ATOM     16  C   UNL d   1      56.433   0.647  32.546  0.00  0.00     0.018 A 
ATOM     17  C   UNL d   1      56.063   0.044  32.950  0.00  0.00     0.064 A 
ATOM     18  C   UNL d   1      56.151  -0.738  32.692  0.00  0.00     0.018 A 
ATOM     19  C   UNL d   1      56.610  -0.895  32.033  0.00  0.00     0.004 A 
BRANCH  17  20
ATOM     20  N   UNL d   1      55.603   0.209  33.612  0.00  0.00    -0.301 N 
ATOM     21  C   UNL d   1      55.904   0.670  34.222  0.00  0.00     0.100 C 
ATOM     22  C   UNL d   1      54.842  -0.088  33.660  0.00  0.00     0.100 C 
ENDBRANCH  17  20
ENDBRANCH   3  14
TORSDOF 2
ENDMDL
MODEL 2
REMARK VINA RESULT:      -5.5      0.095      1.613
REMARK  2 active torsions:
REMARK  status: ('A' for Active; 'I' for Inactive)
REMARK    1  A    between atoms: C_7  and  C_3 
REMARK    2  A    between atoms: N_9  and  C_8 
ROOT
ATOM      1  N   UNL d   1      57.684  -1.160  30.764  0.00  0.00    -0.227 NA
ATOM      2  N   UNL d   1      57.710   0.225  30.453  0.00  0.00    -0.227 NA
ATOM      3  C   UNL d   1      57.456  -0.395  30.948  0.00  0.00     0.162 A 
ATOM      4  C   UNL d   1      58.181   0.052  29.796  0.00  0.00     0.085 A 
ATOM      5  C   UNL d   1      58.160  -1.340  30.101  0.00  0.00     0.085 A 
ATOM      6  C   UNL d   1      58.409  -0.731  29.615  0.00  0.00     0.035 A 
ATOM      7  C   UNL d   1      58.887  -0.888  28.945  0.00  0.00     0.003 A 
ATOM      8  C   UNL d   1      58.439   0.682  29.293  0.00  0.00     0.019 A 
ATOM      9  C   UNL d   1      58.383  -2.116  29.926  0.00  0.00     0.019 A 
ATOM     10  C   UNL d   1      58.858  -2.294  29.265  0.00  0.00     0.002 A 
ATOM     11  C   UNL d   1      58.915   0.502  28.630  0.00  0.00     0.002 A 
ATOM     12  C   UNL d   1      59.107  -1.685  28.779  0.00  0.00     0.000 A 
ATOM     13  C   UNL d   1      59.139  -0.274  28.455  0.00  0.00     0.000 A 
ENDROOT
BRANCH   3  14
ATOM     14  C   UNL d   1      56.990  -0.264  31.605  0.00  0.00     0.036 A 
ATOM     15  C   UNL d   1      56.634  -0.895  31.995  0.00  0.00     0.004 A 
ATOM     16  C   UNL d   1      56.165  -0.767  32.658  0.00  0.00     0.018 A 
ATOM     17  C   UNL d   1      56.045  -0.012  32.938  0.00  0.00     0.064 A 
ATOM     18  C   UNL d   1      56.399   0.630  32.551  0.00  0.00     0.018 A 
ATOM     19  C   UNL d   1      56.865   0.495  31.893  0.00  0.00     0.004 A 
BRANCH  17  20
ATOM     20  N   UNL d   1      55.575   0.116  33.600  0.00  0.00    -0.301 N 
ATOM     21  C   UNL d   1      54.764  -0.007  33.564  0.00  0.00     0.100 C 
ATOM     22  C   UNL d   1      55.920   0.367  34.299  0.00  0.00     0.100 C 
ENDBRANCH  17  20
ENDBRANCH   3  14
TORSDOF 2
ENDMDL
MODEL 3
REMARK VINA RESULT:      -4.6      1.011      1.180
REMARK  2 active torsions:
REMARK  status: ('A' for Active; 'I' for Inactive)
REMARK    1  A    between atoms: C_7  and  C_3 
REMARK    2  A    between atoms: N_9  and  C_8 
ROOT
ATOM      1  N   UNL d   1      58.647   0.310  31.262  0.00  0.00    -0.227 NA
ATOM      2  N   UNL d   1      57.790  -0.402  30.383  0.00  0.00    -0.227 NA
ATOM      3  C   UNL d   1      57.920  -0.040  31.122  0.00  0.00     0.162 A 
ATOM      4  C   UNL d   1      58.393  -0.397  29.818  0.00  0.00     0.085 A 
ATOM      5  C   UNL d   1      59.260   0.318  30.694  0.00  0.00     0.085 A 
ATOM      6  C   UNL d   1      59.132  -0.037  29.968  0.00  0.00     0.035 A 
ATOM      7  C   UNL d   1      59.731  -0.041  29.384  0.00  0.00     0.003 A 
ATOM      8  C   UNL d   1      58.261  -0.764  29.066  0.00  0.00     0.019 A 
ATOM      9  C   UNL d   1      59.989   0.675  30.848  0.00  0.00     0.019 A 
ATOM     10  C   UNL d   1      60.599   0.682  30.281  0.00  0.00     0.002 A 
ATOM     11  C   UNL d   1      58.873  -0.756  28.498  0.00  0.00     0.002 A 
ATOM     12  C   UNL d   1      60.471   0.327  29.555  0.00  0.00     0.000 A 
ATOM     13  C   UNL d   1      59.603  -0.399  28.652  0.00  0.00     0.000 A 
ENDROOT
BRANCH   3  14
ATOM     14  C   UNL d   1      57.350  -0.025  31.705  0.00  0.00     0.036 A 
ATOM     15  C   UNL d   1      57.218   0.661  32.140  0.00  0.00     0.004 A 
ATOM     16  C   UNL d   1      56.644   0.681  32.729  0.00  0.00     0.018 A 
ATOM     17  C   UNL d   1      56.197   0.019  32.890  0.00  0.00     0.064 A 
ATOM     18  C   UNL d   1      56.323  -0.676  32.457  0.00  0.00     0.018 A 
ATOM     19  C   UNL d   1      56.895  -0.688  31.873  0.00  0.00     0.004 A 
BRANCH  17  20
ATOM     20  N   UNL d   1      55.623   0.039  33.478  0.00  0.00    -0.301 N 
ATOM     21  C   UNL d   1      55.632   0.632  34.046  0.00  0.00     0.100 C 
ATOM     22  C   UNL d   1      55.042  -0.537  33.496  0.00  0.00     0.100 C 
ENDBRANCH  17  20
ENDBRANCH   3  14
TORSDOF 2
ENDMDL
MODEL 4
REMARK VINA RESULT:      -4.5      0.980      4.757
REMARK  2 active torsions:
REMARK  status: ('A' for Active; 'I' for Inactive)
REMARK    1  A    between atoms: C_7  and  C_3 
REMARK    2  A    between atoms: N_9  and  C_8 
ROOT
ATOM      1  N   UNL d   1      57.364   0.253  32.903  0.00  0.00    -0.227 NA
ATOM      2  N   UNL d   1      56.097   0.233  32.265  0.00  0.00    -0.227 NA
ATOM      3  C   UNL d   1      56.926   0.171  32.216  0.00  0.00     0.162 A 
ATOM      4  C   UNL d   1      55.744   0.375  32.998  0.00  0.00     0.085 A 
ATOM      5  C   UNL d   1      57.012   0.396  33.647  0.00  0.00     0.085 A 
ATOM      6  C   UNL d   1      56.198   0.458  33.695  0.00  0.00     0.035 A 
ATOM      7  C   UNL d   1      55.822   0.601  34.429  0.00  0.00     0.003 A 
ATOM      8  C   UNL d   1      54.901   0.439  33.047  0.00  0.00     0.019 A 
ATOM      9  C   UNL d   1      57.465   0.477  34.333  0.00  0.00     0.019 A 
ATOM     10  C   UNL d   1      57.112   0.621  35.074  0.00  0.00     0.002 A 
ATOM     11  C   UNL d   1      54.548   0.582  33.791  0.00  0.00     0.002 A 
ATOM     12  C   UNL d   1      56.298   0.682  35.122  0.00  0.00     0.000 A 
ATOM     13  C   UNL d   1      55.001   0.663  34.477  0.00  0.00     0.000 A 
ENDROOT
BRANCH   3  14
ATOM     14  C   UNL d   1      57.312   0.031  31.511  0.00  0.00     0.036 A 
ATOM     15  C   UNL d   1      57.645   0.654  31.088  0.00  0.00     0.004 A 
ATOM     16  C   UNL d   1      58.034   0.518  30.377  0.00  0.00     0.018 A 
ATOM     17  C   UNL d   1      58.095  -0.238  30.080  0.00  0.00     0.064 A 
ATOM     18  C   UNL d   1      57.763  -0.871  30.498  0.00  0.00     0.018 A 
ATOM     19  C   UNL d   1      57.377  -0.728  31.205  0.00  0.00     0.004 A 
BRANCH  17  20
ATOM     20  N   UNL d   1      58.484  -0.374  29.368  0.00  0.00    -0.301 N 
ATOM     21  C   UNL d   1      58.752  -1.127  29.180  0.00  0.00     0.100 C 
ATOM     22  C   UNL d   1      58.604   0.246  28.847  0.00  0.00     0.100 C 
ENDBRANCH  17  20
ENDBRANCH   3  14
TORSDOF 2
ENDMDL
MODEL 5
REMARK VINA RESULT:      -4.0      0.847      1.044
REMARK  2 active torsions:
REMARK  status: ('A' for Active; 'I' for Inactive)
REMARK    1  A    between atoms: C_7  and  C_3 
REMARK    2  A    between atoms: N_9  and  C_8 
ROOT
ATOM      1  N   UNL d   1      58.678  -0.231  30.385  0.00  0.00    -0.227 NA
ATOM      2  N   UNL d   1      57.936  -1.434  30.255  0.00  0.00    -0.227 NA
ATOM      3  C   UNL d   1      58.043  -0.692  30.618  0.00  0.00     0.162 A 
ATOM      4  C   UNL d   1      58.470  -1.681  29.675  0.00  0.00     0.085 A 
ATOM      5  C   UNL d   1      59.221  -0.477  29.800  0.00  0.00     0.085 A 
ATOM      6  C   UNL d   1      59.117  -1.206  29.443  0.00  0.00     0.035 A 
ATOM      7  C   UNL d   1      59.648  -1.473  28.854  0.00  0.00     0.003 A 
ATOM      8  C   UNL d   1      58.362  -2.436  29.306  0.00  0.00     0.019 A 
ATOM      9  C   UNL d   1      59.859  -0.003  29.573  0.00  0.00     0.019 A 
ATOM     10  C   UNL d   1      60.399  -0.249  28.989  0.00  0.00     0.002 A 
ATOM     11  C   UNL d   1      58.905  -2.682  28.720  0.00  0.00     0.002 A 
ATOM     12  C   UNL d   1      60.295  -0.978  28.632  0.00  0.00     0.000 A 
ATOM     13  C   UNL d   1      59.543  -2.207  28.494  0.00  0.00     0.000 A 
ENDROOT
BRANCH   3  14
ATOM     14  C   UNL d   1      57.537  -0.413  31.194  0.00  0.00     0.036 A 
ATOM     15  C   UNL d   1      57.426   0.397  31.294  0.00  0.00     0.004 A 
ATOM     16  C   UNL d   1      56.916   0.682  31.874  0.00  0.00     0.018 A 
ATOM     17  C   UNL d   1      56.514   0.165  32.358  0.00  0.00     0.064 A 
ATOM     18  C   UNL d   1      56.619  -0.651  32.264  0.00  0.00     0.018 A 
ATOM     19  C   UNL d   1      57.127  -0.928  31.686  0.00  0.00     0.004 A 
BRANCH  17  20
ATOM     20  N   UNL d   1      56.005   0.450  32.937  0.00  0.00    -0.301 N 
ATOM     21  C   UNL d   1      55.203   0.536  32.779  0.00  0.00     0.100 C 
ATOM     22  C   UNL d   1      56.301   0.649  33.674  0.00  0.00     0.100 C 
ENDBRANCH  17  20
ENDBRANCH   3  14
TORSDOF 2
ENDMDL
MODEL 6
REMARK VINA RESULT:      -2.9      9.576      9.750
REMARK  2 active torsions:
REMARK  status: ('A' for Active; 'I' for Inactive)
REMARK    1  A    between atoms: C_7  and  C_3 
REMARK    2  A    between atoms: N_9  and  C_8 
ROOT
ATOM      1  N   UNL d   1      59.516  -9.797  30.995  0.00  0.00    -0.227 NA
ATOM      2  N   UNL d   1      58.146  -9.791  31.364  0.00  0.00    -0.227 NA
ATOM      3  C   UNL d   1      58.949  -9.790  31.586  0.00  0.00     0.162 A 
ATOM      4  C   UNL d   1      57.947  -9.798  30.562  0.00  0.00     0.085 A 
ATOM      5  C   UNL d   1      59.320  -9.804  30.183  0.00  0.00     0.085 A 
ATOM      6  C   UNL d   1      58.531  -9.804  29.965  0.00  0.00     0.035 A 
ATOM      7  C   UNL d   1      58.311  -9.811  29.158  0.00  0.00     0.003 A 
ATOM      8  C   UNL d   1      57.130  -9.798  30.337  0.00  0.00     0.019 A 
ATOM      9  C   UNL d   1      59.902  -9.810  29.596  0.00  0.00     0.019 A 
ATOM     10  C   UNL d   1      59.705  -9.817  28.787  0.00  0.00     0.002 A 
ATOM     11  C   UNL d   1      56.934  -9.805  29.525  0.00  0.00     0.002 A 
ATOM     12  C   UNL d   1      58.916  -9.818  28.570  0.00  0.00     0.000 A 
ATOM     13  C   UNL d   1      57.516  -9.812  28.939  0.00  0.00     0.000 A 
ENDROOT
BRANCH   3  14
ATOM     14  C   UNL d   1      59.185  -9.784  32.366  0.00  0.00     0.036 A 
ATOM     15  C   UNL d   1      59.984  -9.744  32.559  0.00  0.00     0.004 A 
ATOM     16  C   UNL d   1      60.226  -9.737  33.345  0.00  0.00     0.018 A 
ATOM     17  C   UNL d   1      59.676  -9.769  33.945  0.00  0.00     0.064 A 
ATOM     18  C   UNL d   1      58.870  -9.809  33.760  0.00  0.00     0.018 A 
ATOM     19  C   UNL d   1      58.636  -9.816  32.977  0.00  0.00     0.004 A 
BRANCH  17  20
ATOM     20  N   UNL d   1      59.918  -9.762  34.731  0.00  0.00    -0.301 N 
ATOM     21  C   UNL d   1      60.717  -9.737  34.918  0.00  0.00     0.100 C 
ATOM     22  C   UNL d   1      59.358  -9.781  35.327  0.00  0.00     0.100 C 
ENDBRANCH  17  20
ENDBRANCH   3  14
TORSDOF 2
ENDMDL
