MODEL 1
REMARK VINA RESULT:      -2.5      0.000      0.000
REMARK  1 active torsions:
REMARK  status: ('A' for Active; 'I' for Inactive)
REMARK    1  A    between atoms: C_13  and  C_7 
ROOT
ATOM      1  C   UNL d   1      58.685   0.085  30.245  0.00  0.00     0.120 A 
ATOM      2  C   UNL d   1      58.617  -0.701  30.004  0.00  0.00     0.058 A 
ATOM      3  N   UNL d   1      58.051   0.248  30.745  0.00  0.00    -0.195 NA
ATOM      4  S   UNL d   1      59.308   0.541  29.980  0.00  0.00    -0.072 SA
ATOM      5  C   UNL d   1      59.865   0.219  29.475  0.00  0.00     0.009 A 
ATOM      6  C   UNL d   1      59.799  -0.568  29.232  0.00  0.00    -0.015 A 
ATOM      7  C   UNL d   1      59.174  -1.024  29.499  0.00  0.00     0.005 A 
ATOM      8  C   UNL d   1      57.589  -0.436  30.815  0.00  0.00     0.311 A 
ATOM      9  S   UNL d   1      57.948  -1.022  30.351  0.00  0.00    -0.024 SA
ATOM     10  C   UNL d   1      60.362  -0.892  28.722  0.00  0.00     0.045 A 
ATOM     11  C   UNL d   1      60.494   0.682  29.209  0.00  0.00     0.050 A 
ATOM     12  C   UNL d   1      60.227  -0.091  29.110  0.00  0.00     0.018 A 
ATOM     13  O   UNL d   1      56.899  -0.521  31.263  0.00  0.00    -0.258 OA
ATOM     14  C   UNL d   1      60.991  -0.429  28.455  0.00  0.00    -0.026 A 
ATOM     15  C   UNL d   1      61.057   0.358  28.699  0.00  0.00    -0.026 A 
ENDROOT
BRANCH   7  16
ATOM     16  C   UNL d   1      59.106  -1.805  29.259  0.00  0.00     0.001 A 
ATOM     17  C   UNL d   1      59.605  -2.383  29.585  0.00  0.00     0.003 A 
ATOM     18  C   UNL d   1      59.537  -3.160  29.346  0.00  0.00     0.042 A 
ATOM     19  C   UNL d   1      58.970  -3.378  28.776  0.00  0.00     0.196 A 
ATOM     20  C   UNL d   1      58.476  -2.793  28.455  0.00  0.00     0.042 A 
ATOM     21  O   UNL d   1      58.903  -4.164  28.535  0.00  0.00    -0.287 OA
ATOM     22  C   UNL d   1      58.548  -2.014  28.698  0.00  0.00     0.003 A 
ENDBRANCH   7  16
TORSDOF 1
ENDMDL
MODEL 2
REMARK VINA RESULT:      -2.1      1.241      2.799
REMARK  1 active torsions:
REMARK  status: ('A' for Active; 'I' for Inactive)
REMARK    1  A    between atoms: C_13  and  C_7 
ROOT
ATOM      1  C   UNL d   1      59.558  -2.059  28.664  0.00  0.00     0.120 A 
ATOM      2  C   UNL d   1      58.978  -1.690  29.120  0.00  0.00     0.058 A 
ATOM      3  N   UNL d   1      59.300  -2.825  28.504  0.00  0.00    -0.195 NA
ATOM      4  S   UNL d   1      60.236  -1.654  28.457  0.00  0.00    -0.072 SA
ATOM      5  C   UNL d   1      60.340  -0.881  28.703  0.00  0.00     0.009 A 
ATOM      6  C   UNL d   1      59.761  -0.508  29.160  0.00  0.00    -0.015 A 
ATOM      7  C   UNL d   1      59.082  -0.917  29.366  0.00  0.00     0.005 A 
ATOM      8  C   UNL d   1      58.559  -2.932  28.861  0.00  0.00     0.311 A 
ATOM      9  S   UNL d   1      58.366  -2.221  29.242  0.00  0.00    -0.024 SA
ATOM     10  C   UNL d   1      59.868   0.273  29.407  0.00  0.00     0.045 A 
ATOM     11  C   UNL d   1      61.026  -0.472  28.493  0.00  0.00     0.050 A 
ATOM     12  C   UNL d   1      60.339  -0.322  28.922  0.00  0.00     0.018 A 
ATOM     13  O   UNL d   1      58.097  -3.617  28.842  0.00  0.00    -0.258 OA
ATOM     14  C   UNL d   1      60.554   0.681  29.198  0.00  0.00    -0.026 A 
ATOM     15  C   UNL d   1      61.132   0.308  28.741  0.00  0.00    -0.026 A 
ENDROOT
BRANCH   7  16
ATOM     16  C   UNL d   1      58.506  -0.549  29.820  0.00  0.00     0.001 A 
ATOM     17  C   UNL d   1      57.954  -0.046  29.457  0.00  0.00     0.003 A 
ATOM     18  C   UNL d   1      57.381   0.320  29.910  0.00  0.00     0.042 A 
ATOM     19  C   UNL d   1      57.346   0.191  30.732  0.00  0.00     0.196 A 
ATOM     20  C   UNL d   1      57.903  -0.315  31.084  0.00  0.00     0.042 A 
ATOM     21  O   UNL d   1      56.766   0.560  31.187  0.00  0.00    -0.287 OA
ATOM     22  C   UNL d   1      58.476  -0.679  30.627  0.00  0.00     0.003 A 
ENDBRANCH   7  16
TORSDOF 1
ENDMDL
MODEL 3
REMARK VINA RESULT:      -1.4      3.840      5.935
REMARK  1 active torsions:
REMARK  status: ('A' for Active; 'I' for Inactive)
REMARK    1  A    between atoms: C_13  and  C_7 
ROOT
ATOM      1  C   UNL d   1      56.480   0.600  35.020  0.00  0.00     0.120 A 
ATOM      2  C   UNL d   1      56.739   0.401  34.263  0.00  0.00     0.058 A 
ATOM      3  N   UNL d   1      57.146   0.681  35.499  0.00  0.00    -0.195 NA
ATOM      4  S   UNL d   1      55.682   0.681  35.172  0.00  0.00    -0.072 SA
ATOM      5  C   UNL d   1      55.139   0.564  34.572  0.00  0.00     0.009 A 
ATOM      6  C   UNL d   1      55.395   0.363  33.812  0.00  0.00    -0.015 A 
ATOM      7  C   UNL d   1      56.196   0.283  33.663  0.00  0.00     0.005 A 
ATOM      8  C   UNL d   1      57.819   0.532  35.039  0.00  0.00     0.311 A 
ATOM      9  S   UNL d   1      57.557   0.358  34.271  0.00  0.00    -0.024 SA
ATOM     10  C   UNL d   1      54.845   0.245  33.207  0.00  0.00     0.045 A 
ATOM     11  C   UNL d   1      54.332   0.646  34.727  0.00  0.00     0.050 A 
ATOM     12  C   UNL d   1      54.809   0.461  34.080  0.00  0.00     0.018 A 
ATOM     13  O   UNL d   1      58.605   0.552  35.294  0.00  0.00    -0.258 OA
ATOM     14  C   UNL d   1      54.038   0.327  33.362  0.00  0.00    -0.026 A 
ATOM     15  C   UNL d   1      53.783   0.527  34.122  0.00  0.00    -0.026 A 
ENDROOT
BRANCH   7  16
ATOM     16  C   UNL d   1      56.453   0.084  32.909  0.00  0.00     0.001 A 
ATOM     17  C   UNL d   1      56.686   0.681  32.382  0.00  0.00     0.003 A 
ATOM     18  C   UNL d   1      56.942   0.482  31.632  0.00  0.00     0.042 A 
ATOM     19  C   UNL d   1      56.971  -0.315  31.394  0.00  0.00     0.196 A 
ATOM     20  C   UNL d   1      56.736  -0.904  31.930  0.00  0.00     0.042 A 
ATOM     21  O   UNL d   1      57.230  -0.513  30.637  0.00  0.00    -0.287 OA
ATOM     22  C   UNL d   1      56.480  -0.700  32.680  0.00  0.00     0.003 A 
ENDBRANCH   7  16
TORSDOF 1
ENDMDL
