MODEL 1
REMARK VINA RESULT:      -3.0      0.000      0.000
REMARK  3 active torsions:
REMARK  status: ('A' for Active; 'I' for Inactive)
REMARK    1  A    between atoms: N_3  and  C_1 
REMARK    2  A    between atoms: O_4  and  C_2 
REMARK    3  A    between atoms: C_7  and  O_4 
ROOT
ATOM      1  C   UNL d   1      29.491  16.367 -23.843  0.00  0.00     0.205 A 
ATOM      2  C   UNL d   1      30.292  16.239 -23.827  0.00  0.00     0.209 A 
ATOM      3  N   UNL d   1      30.610  15.784 -23.237  0.00  0.00    -0.198 NA
ATOM      4  C   UNL d   1      29.000  16.039 -23.264  0.00  0.00     0.211 A 
ATOM      5  N   UNL d   1      29.318  15.585 -22.675  0.00  0.00    -0.202 NA
ATOM      6  C   UNL d   1      30.112  15.454 -22.653  0.00  0.00     0.202 A 
ATOM      7  N   UNL d   1      28.183  16.165 -23.273  0.00  0.00    -0.125 N 
ENDROOT
BRANCH   2   8
ATOM      8  O   UNL d   1      30.814  16.562 -24.405  0.00  0.00    -0.288 OA
BRANCH   8   9
ATOM      9  C   UNL d   1      31.602  16.712 -24.198  0.00  0.00     0.102 A 
ATOM     10  C   UNL d   1      32.204  16.283 -24.547  0.00  0.00     0.023 A 
ATOM     11  C   UNL d   1      32.990  16.438 -24.337  0.00  0.00     0.002 A 
ATOM     12  C   UNL d   1      32.062  15.708 -25.096  0.00  0.00     0.002 C 
ATOM     13  C   UNL d   1      33.169  17.019 -23.779  0.00  0.00     0.000 A 
ATOM     14  C   UNL d   1      32.556  17.448 -23.431  0.00  0.00     0.002 A 
ATOM     15  C   UNL d   1      31.754  17.301 -23.635  0.00  0.00     0.025 A 
ATOM     16  C   UNL d   1      32.726  18.052 -22.853  0.00  0.00     0.000 C 
ENDBRANCH   8   9
ENDBRANCH   2   8
BRANCH   1  17
ATOM     17  N   UNL d   1      29.166  16.828 -24.441  0.00  0.00    -0.107 N 
ATOM     18  O   UNL d   1      28.876  16.477 -25.097  0.00  0.00    -0.531 OA
ATOM     19  O   UNL d   1      29.144  17.639 -24.355  0.00  0.00    -0.531 OA
ENDBRANCH   1  17
TORSDOF 3
ENDMDL
MODEL 2
REMARK VINA RESULT:      -1.6      2.647      3.806
REMARK  3 active torsions:
REMARK  status: ('A' for Active; 'I' for Inactive)
REMARK    1  A    between atoms: N_3  and  C_1 
REMARK    2  A    between atoms: O_4  and  C_2 
REMARK    3  A    between atoms: C_7  and  O_4 
ROOT
ATOM      1  C   UNL d   1      32.824  18.942 -23.542  0.00  0.00     0.205 A 
ATOM      2  C   UNL d   1      32.782  18.181 -23.819  0.00  0.00     0.209 A 
ATOM      3  N   UNL d   1      32.967  18.028 -24.593  0.00  0.00    -0.198 NA
ATOM      4  C   UNL d   1      33.053  19.560 -24.042  0.00  0.00     0.211 A 
ATOM      5  N   UNL d   1      33.238  19.408 -24.814  0.00  0.00    -0.202 NA
ATOM      6  C   UNL d   1      33.198  18.654 -25.095  0.00  0.00     0.202 A 
ATOM      7  N   UNL d   1      33.099  20.339 -23.767  0.00  0.00    -0.125 N 
ENDROOT
BRANCH   2   8
ATOM      8  O   UNL d   1      32.552  17.534 -23.330  0.00  0.00    -0.288 OA
BRANCH   8   9
ATOM      9  C   UNL d   1      32.077  16.935 -23.651  0.00  0.00     0.102 A 
ATOM     10  C   UNL d   1      32.268  16.151 -23.526  0.00  0.00     0.023 A 
ATOM     11  C   UNL d   1      31.789  15.557 -23.849  0.00  0.00     0.002 A 
ATOM     12  C   UNL d   1      32.914  15.927 -23.094  0.00  0.00     0.002 C 
ATOM     13  C   UNL d   1      31.123  15.752 -24.294  0.00  0.00     0.000 A 
ATOM     14  C   UNL d   1      30.935  16.546 -24.417  0.00  0.00     0.002 A 
ATOM     15  C   UNL d   1      31.412  17.158 -24.095  0.00  0.00     0.025 A 
ATOM     16  C   UNL d   1      30.249  16.761 -24.875  0.00  0.00     0.000 C 
ENDBRANCH   8   9
ENDBRANCH   2   8
BRANCH   1  17
ATOM     17  N   UNL d   1      32.637  19.100 -22.758  0.00  0.00    -0.107 N 
ATOM     18  O   UNL d   1      31.885  19.283 -22.560  0.00  0.00    -0.531 OA
ATOM     19  O   UNL d   1      33.224  19.066 -22.191  0.00  0.00    -0.531 OA
ENDBRANCH   1  17
TORSDOF 3
ENDMDL
MODEL 3
REMARK VINA RESULT:      -1.3      2.144      3.366
REMARK  3 active torsions:
REMARK  status: ('A' for Active; 'I' for Inactive)
REMARK    1  A    between atoms: N_3  and  C_1 
REMARK    2  A    between atoms: O_4  and  C_2 
REMARK    3  A    between atoms: C_7  and  O_4 
ROOT
ATOM      1  C   UNL d   1      32.728  18.487 -23.711  0.00  0.00     0.205 A 
ATOM      2  C   UNL d   1      32.534  17.707 -23.815  0.00  0.00     0.209 A 
ATOM      3  N   UNL d   1      32.648  17.183 -23.207  0.00  0.00    -0.198 NA
ATOM      4  C   UNL d   1      33.040  18.751 -22.992  0.00  0.00     0.211 A 
ATOM      5  N   UNL d   1      33.153  18.228 -22.385  0.00  0.00    -0.202 NA
ATOM      6  C   UNL d   1      32.962  17.453 -22.482  0.00  0.00     0.202 A 
ATOM      7  N   UNL d   1      33.241  19.545 -22.877  0.00  0.00    -0.125 N 
ENDROOT
BRANCH   2   8
ATOM      8  O   UNL d   1      32.215  17.412 -24.538  0.00  0.00    -0.288 OA
BRANCH   8   9
ATOM      9  C   UNL d   1      31.655  16.802 -24.514  0.00  0.00     0.102 A 
ATOM     10  C   UNL d   1      31.848  16.059 -24.792  0.00  0.00     0.023 A 
ATOM     11  C   UNL d   1      31.285  15.453 -24.765  0.00  0.00     0.002 A 
ATOM     12  C   UNL d   1      32.577  15.888 -25.097  0.00  0.00     0.002 C 
ATOM     13  C   UNL d   1      30.531  15.594 -24.459  0.00  0.00     0.000 A 
ATOM     14  C   UNL d   1      30.342  16.347 -24.180  0.00  0.00     0.002 A 
ATOM     15  C   UNL d   1      30.905  16.971 -24.202  0.00  0.00     0.025 A 
ATOM     16  C   UNL d   1      29.567  16.508 -23.862  0.00  0.00     0.000 C 
ENDBRANCH   8   9
ENDBRANCH   2   8
BRANCH   1  17
ATOM     17  N   UNL d   1      32.614  19.019 -24.326  0.00  0.00    -0.107 N 
ATOM     18  O   UNL d   1      31.903  19.373 -24.416  0.00  0.00    -0.531 OA
ATOM     19  O   UNL d   1      33.229  19.180 -24.838  0.00  0.00    -0.531 OA
ENDBRANCH   1  17
TORSDOF 3
ENDMDL
