MODEL 1
REMARK VINA RESULT:      -6.3      0.000      0.000
REMARK  5 active torsions:
REMARK  status: ('A' for Active; 'I' for Inactive)
REMARK    1  A    between atoms: N_10  and  C_2 
REMARK    2  A    between atoms: C_14  and  C_3 
REMARK    3  A    between atoms: C_5  and  S_13 
REMARK       I    between atoms: C_12  and  N_10 
REMARK    4  A    between atoms: C_16  and  C_12 
REMARK    5  A    between atoms: S_13  and  C_16 
ROOT
ATOM      1  N   UNL d   1     -41.631-122.376 -52.696  0.00  0.00    -0.051 NA
ATOM      2  C   UNL d   1     -41.344-122.906 -52.136  0.00  0.00     0.760 A 
ATOM      3  C   UNL d   1     -41.584-122.738 -53.428  0.00  0.00     0.147 A 
ATOM      4  N   UNL d   1     -41.123-123.587 -52.519  0.00  0.00    -0.019 NA
ATOM      5  S   UNL d   1     -41.271-123.484 -53.321  0.00  0.00     0.052 SA
ENDROOT
BRANCH   2   6
ATOM      6  N   UNL d   1     -41.289-122.770 -51.311  0.00  0.00    -0.018 NA
ATOM      7  C   UNL d   1     -41.734-123.214 -50.787  0.00  0.00     0.302 C 
ATOM      8  O   UNL d   1     -42.238-123.795 -51.075  0.00  0.00    -0.264 OA
BRANCH   7   9
ATOM      9  C   UNL d   1     -41.680-123.081 -49.975  0.00  0.00     0.100 C 
BRANCH   9  10
ATOM     10  S   UNL d   1     -42.274-123.363 -49.473  0.00  0.00    -0.054 SA
BRANCH  10  11
ATOM     11  C   UNL d   1     -42.254-123.189 -48.666  0.00  0.00     0.164 A 
ATOM     12  S   UNL d   1     -41.708-123.475 -48.127  0.00  0.00    -0.039 SA
ATOM     13  C   UNL d   1     -41.895-123.158 -47.383  0.00  0.00     0.134 A 
ATOM     14  C   UNL d   1     -41.488-123.301 -46.676  0.00  0.00     0.030 C 
ATOM     15  N   UNL d   1     -42.560-122.676 -47.471  0.00  0.00    -0.140 NA
ATOM     16  N   UNL d   1     -42.784-122.693 -48.265  0.00  0.00    -0.134 NA
ENDBRANCH  10  11
ENDBRANCH   9  10
ENDBRANCH   7   9
ENDBRANCH   2   6
BRANCH   3  17
ATOM     17  C   UNL d   1     -41.802-122.438 -54.166  0.00  0.00     0.026 A 
ATOM     18  C   UNL d   1     -41.420-122.701 -54.846  0.00  0.00     0.002 A 
ATOM     19  C   UNL d   1     -41.640-122.399 -55.586  0.00  0.00     0.000 A 
ATOM     20  C   UNL d   1     -42.235-121.841 -55.648  0.00  0.00     0.000 A 
ATOM     21  C   UNL d   1     -42.618-121.578 -54.968  0.00  0.00     0.000 A 
ATOM     22  C   UNL d   1     -42.401-121.877 -54.220  0.00  0.00     0.002 A 
ENDBRANCH   3  17
TORSDOF 5
ENDMDL
MODEL 2
REMARK VINA RESULT:      -5.6      1.109      5.795
REMARK  5 active torsions:
REMARK  status: ('A' for Active; 'I' for Inactive)
REMARK    1  A    between atoms: N_10  and  C_2 
REMARK    2  A    between atoms: C_14  and  C_3 
REMARK    3  A    between atoms: C_5  and  S_13 
REMARK       I    between atoms: C_12  and  N_10 
REMARK    4  A    between atoms: C_16  and  C_12 
REMARK    5  A    between atoms: S_13  and  C_16 
ROOT
ATOM      1  N   UNL d   1     -41.755-122.664 -49.577  0.00  0.00    -0.051 NA
ATOM      2  C   UNL d   1     -42.202-122.543 -50.257  0.00  0.00     0.760 A 
ATOM      3  C   UNL d   1     -42.236-123.029 -49.025  0.00  0.00     0.147 A 
ATOM      4  N   UNL d   1     -42.951-122.831 -50.125  0.00  0.00    -0.019 NA
ATOM      5  S   UNL d   1     -42.973-123.133 -49.361  0.00  0.00     0.052 SA
ENDROOT
BRANCH   2   6
ATOM      6  N   UNL d   1     -41.936-122.185 -50.966  0.00  0.00    -0.018 NA
ATOM      7  C   UNL d   1     -41.723-122.647 -51.608  0.00  0.00     0.302 C 
ATOM      8  O   UNL d   1     -41.772-123.465 -51.553  0.00  0.00    -0.264 OA
BRANCH   7   9
ATOM      9  C   UNL d   1     -41.460-122.295 -52.307  0.00  0.00     0.100 C 
BRANCH   9  10
ATOM     10  S   UNL d   1     -41.497-122.718 -53.017  0.00  0.00    -0.054 SA
BRANCH  10  11
ATOM     11  C   UNL d   1     -41.701-122.333 -53.719  0.00  0.00     0.164 A 
ATOM     12  S   UNL d   1     -41.877-122.696 -54.431  0.00  0.00    -0.039 SA
ATOM     13  C   UNL d   1     -42.049-122.101 -54.983  0.00  0.00     0.134 A 
ATOM     14  C   UNL d   1     -42.257-122.217 -55.777  0.00  0.00     0.030 C 
ATOM     15  N   UNL d   1     -41.976-121.371 -54.603  0.00  0.00    -0.140 NA
ATOM     16  N   UNL d   1     -41.760-121.512 -53.819  0.00  0.00    -0.134 NA
ENDBRANCH  10  11
ENDBRANCH   9  10
ENDBRANCH   7   9
ENDBRANCH   2   6
BRANCH   3  17
ATOM     17  C   UNL d   1     -42.048-123.266 -48.256  0.00  0.00     0.026 A 
ATOM     18  C   UNL d   1     -42.606-123.187 -47.655  0.00  0.00     0.002 A 
ATOM     19  C   UNL d   1     -42.417-123.425 -46.884  0.00  0.00     0.000 A 
ATOM     20  C   UNL d   1     -41.680-123.738 -46.713  0.00  0.00     0.000 A 
ATOM     21  C   UNL d   1     -41.123-123.817 -47.314  0.00  0.00     0.000 A 
ATOM     22  C   UNL d   1     -41.307-123.579 -48.092  0.00  0.00     0.002 A 
ENDBRANCH   3  17
TORSDOF 5
ENDMDL
