MODEL 1
REMARK VINA RESULT:     104.1      0.000      0.000
REMARK  1 active torsions:
REMARK  status: ('A' for Active; 'I' for Inactive)
REMARK    1  A    between atoms: C_24  and  N_4 
ROOT
ATOM      1  C   UNL d   1      46.012 -17.829  43.278  0.00  0.00     0.111 A 
ATOM      2  C   UNL d   1      46.282 -17.904  41.897  0.00  0.00     0.062 A 
ATOM      3  C   UNL d   1      46.179 -17.477  42.563  0.00  0.00     0.018 A 
ATOM      4  N   UNL d   1      46.441 -13.752  42.529  0.00  0.00    -0.305 N 
ATOM      5  C   UNL d   1      45.948 -18.659  43.311  0.00  0.00     0.213 A 
ATOM      6  C   UNL d   1      46.219 -18.734  41.930  0.00  0.00     0.101 A 
ATOM      7  C   UNL d   1      46.240 -14.919  43.134  0.00  0.00     0.018 A 
ATOM      8  C   UNL d   1      46.409 -14.564  42.410  0.00  0.00     0.064 A 
ATOM      9  O   UNL d   1      46.053 -19.116  42.628  0.00  0.00    -0.288 OA
ATOM     10  C   UNL d   1      46.451 -17.553  41.175  0.00  0.00     0.194 A 
ATOM     11  C   UNL d   1      46.295 -13.610  43.310  0.00  0.00     0.064 A 
ATOM     12  C   UNL d   1      46.276 -16.206  42.513  0.00  0.00     0.001 A 
ATOM     13  C   UNL d   1      46.168 -14.325  43.695  0.00  0.00     0.018 A 
ATOM     14  C   UNL d   1      46.173 -15.749  43.185  0.00  0.00     0.002 A 
ATOM     15  C   UNL d   1      45.905 -17.378  43.967  0.00  0.00     0.105 C 
ATOM     16  N   UNL d   1      45.794 -16.916  44.681  0.00  0.00    -0.191 NA
ATOM     17  C   UNL d   1      46.508 -15.046  41.747  0.00  0.00     0.018 A 
ATOM     18  C   UNL d   1      46.326 -19.192  41.239  0.00  0.00     0.002 A 
ATOM     19  C   UNL d   1      46.494 -18.810  40.525  0.00  0.00     0.042 A 
ATOM     20  C   UNL d   1      46.558 -17.980  40.492  0.00  0.00     0.019 A 
ATOM     21  C   UNL d   1      46.441 -15.861  41.806  0.00  0.00     0.002 A 
ATOM     22  O   UNL d   1      46.515 -16.713  41.142  0.00  0.00    -0.287 OA
ATOM     23  N   UNL d   1      45.778 -19.040  44.032  0.00  0.00    -0.120 N 
ATOM     24  C   UNL d   1      46.254 -12.903  43.756  0.00  0.00     0.018 A 
ATOM     25  C   UNL d   1      46.002 -14.339  44.522  0.00  0.00     0.002 A 
ATOM     26  C   UNL d   1      46.647 -18.852  39.749  0.00  0.00     0.009 C 
ATOM     27  C   UNL d   1      46.467 -19.602  40.393  0.00  0.00     0.009 C 
ATOM     28  C   UNL d   1      45.965 -13.637  44.951  0.00  0.00     0.000 A 
ATOM     29  C   UNL d   1      46.092 -12.916  44.559  0.00  0.00     0.002 A 
ENDROOT
BRANCH   4  30
ATOM     30  C   UNL d   1      46.591 -13.172  41.977  0.00  0.00     0.080 C 
ATOM     31  C   UNL d   1      46.189 -12.450  41.999  0.00  0.00     0.021 C 
ENDBRANCH   4  30
TORSDOF 1
ENDMDL
