MODEL 1
REMARK VINA RESULT:      36.7      0.000      0.000
REMARK  3 active torsions:
REMARK  status: ('A' for Active; 'I' for Inactive)
REMARK    1  A    between atoms: C_10  and  C_4 
REMARK    2  A    between atoms: S_9  and  C_10 
REMARK    3  A    between atoms: C_11  and  S_9 
ROOT
ATOM      1  C   UNL d   1     -51.243  25.967  33.343  0.00  0.00     0.056 C 
ENDROOT
BRANCH   1   2
ATOM      2  S   UNL d   1     -50.591  25.966  33.815  0.00  0.00    -0.085 SA
BRANCH   2   3
ATOM      3  C   UNL d   1     -50.158  26.661  33.917  0.00  0.00     0.030 A 
ATOM      4  C   UNL d   1     -50.280  27.298  33.411  0.00  0.00     0.007 A 
ATOM      5  C   UNL d   1     -49.840  27.987  33.525  0.00  0.00     0.012 A 
ATOM      6  C   UNL d   1     -49.288  28.047  34.130  0.00  0.00     0.058 A 
ATOM      7  C   UNL d   1     -49.174  27.403  34.632  0.00  0.00     0.012 A 
ATOM      8 CL   UNL d   1     -48.853  28.745  34.233  0.00  0.00    -0.082 Cl
ATOM      9  C   UNL d   1     -49.604  26.712  34.530  0.00  0.00     0.007 A 
ENDBRANCH   2   3
ENDBRANCH   1   2
BRANCH   1  10
ATOM     10  C   UNL d   1     -51.740  25.326  33.341  0.00  0.00     0.107 A 
ATOM     11  N   UNL d   1     -51.502  24.518  33.311  0.00  0.00    -0.220 NA
ATOM     12  C   UNL d   1     -52.203  24.037  33.320  0.00  0.00     0.180 A 
ATOM     13  N   UNL d   1     -52.878  24.560  33.357  0.00  0.00    -0.282 N 
ATOM     14  S   UNL d   1     -52.495  23.237  33.308  0.00  0.00    -0.048 SA
ATOM     15  C   UNL d   1     -52.579  25.354  33.370  0.00  0.00     0.102 A 
ATOM     16  C   UNL d   1     -53.580  24.078  33.367  0.00  0.00     0.089 A 
ATOM     17  C   UNL d   1     -53.339  23.263  33.336  0.00  0.00     0.057 A 
ENDBRANCH   1  10
TORSDOF 3
ENDMDL
MODEL 2
REMARK VINA RESULT:      36.9      0.967      1.129
REMARK  3 active torsions:
REMARK  status: ('A' for Active; 'I' for Inactive)
REMARK    1  A    between atoms: C_10  and  C_4 
REMARK    2  A    between atoms: S_9  and  C_10 
REMARK    3  A    between atoms: C_11  and  S_9 
ROOT
ATOM      1  C   UNL d   1     -51.360  24.978  33.520  0.00  0.00     0.056 C 
ENDROOT
BRANCH   1   2
ATOM      2  S   UNL d   1     -51.284  25.779  33.548  0.00  0.00    -0.085 SA
BRANCH   2   3
ATOM      3  C   UNL d   1     -50.532  26.119  33.544  0.00  0.00     0.030 A 
ATOM      4  C   UNL d   1     -50.449  26.931  33.653  0.00  0.00     0.007 A 
ATOM      5  C   UNL d   1     -49.691  27.258  33.647  0.00  0.00     0.012 A 
ATOM      6  C   UNL d   1     -49.025  26.791  33.536  0.00  0.00     0.058 A 
ATOM      7  C   UNL d   1     -49.119  25.979  33.428  0.00  0.00     0.012 A 
ATOM      8 CL   UNL d   1     -48.270  27.133  33.532  0.00  0.00    -0.082 Cl
ATOM      9  C   UNL d   1     -49.866  25.641  33.431  0.00  0.00     0.007 A 
ENDBRANCH   2   3
ENDBRANCH   1   2
BRANCH   1  10
ATOM     10  C   UNL d   1     -52.099  24.643  33.535  0.00  0.00     0.107 A 
ATOM     11  N   UNL d   1     -52.278  23.857  33.780  0.00  0.00    -0.220 NA
ATOM     12  C   UNL d   1     -53.118  23.744  33.705  0.00  0.00     0.180 A 
ATOM     13  N   UNL d   1     -53.454  24.472  33.410  0.00  0.00    -0.282 N 
ATOM     14  S   UNL d   1     -53.754  23.188  33.810  0.00  0.00    -0.048 SA
ATOM     15  C   UNL d   1     -52.815  25.020  33.308  0.00  0.00     0.102 A 
ATOM     16  C   UNL d   1     -54.294  24.359  33.335  0.00  0.00     0.089 A 
ATOM     17  C   UNL d   1     -54.476  23.566  33.582  0.00  0.00     0.057 A 
ENDBRANCH   1  10
TORSDOF 3
ENDMDL
MODEL 3
REMARK VINA RESULT:      37.2      0.704      1.035
REMARK  3 active torsions:
REMARK  status: ('A' for Active; 'I' for Inactive)
REMARK    1  A    between atoms: C_10  and  C_4 
REMARK    2  A    between atoms: S_9  and  C_10 
REMARK    3  A    between atoms: C_11  and  S_9 
ROOT
ATOM      1  C   UNL d   1     -51.531  26.131  33.322  0.00  0.00     0.056 C 
ENDROOT
BRANCH   1   2
ATOM      2  S   UNL d   1     -50.852  26.197  33.751  0.00  0.00    -0.085 SA
BRANCH   2   3
ATOM      3  C   UNL d   1     -50.393  26.880  33.689  0.00  0.00     0.030 A 
ATOM      4  C   UNL d   1     -49.572  26.823  33.689  0.00  0.00     0.007 A 
ATOM      5  C   UNL d   1     -49.125  27.514  33.627  0.00  0.00     0.012 A 
ATOM      6  C   UNL d   1     -49.484  28.251  33.566  0.00  0.00     0.058 A 
ATOM      7  C   UNL d   1     -50.307  28.296  33.567  0.00  0.00     0.012 A 
ATOM      8 CL   UNL d   1     -49.023  28.937  33.504  0.00  0.00    -0.082 Cl
ATOM      9  C   UNL d   1     -50.763  27.618  33.628  0.00  0.00     0.007 A 
ENDBRANCH   2   3
ENDBRANCH   1   2
BRANCH   1  10
ATOM     10  C   UNL d   1     -51.945  25.434  33.329  0.00  0.00     0.107 A 
ATOM     11  N   UNL d   1     -52.784  25.360  33.359  0.00  0.00    -0.220 NA
ATOM     12  C   UNL d   1     -52.974  24.531  33.355  0.00  0.00     0.180 A 
ATOM     13  N   UNL d   1     -52.240  24.095  33.322  0.00  0.00    -0.282 N 
ATOM     14  S   UNL d   1     -53.612  23.966  33.371  0.00  0.00    -0.048 SA
ATOM     15  C   UNL d   1     -51.611  24.663  33.306  0.00  0.00     0.102 A 
ATOM     16  C   UNL d   1     -52.431  23.265  33.318  0.00  0.00     0.089 A 
ATOM     17  C   UNL d   1     -53.278  23.190  33.348  0.00  0.00     0.057 A 
ENDBRANCH   1  10
TORSDOF 3
ENDMDL
