MODEL 1
REMARK VINA RESULT:      -5.5      0.000      0.000
REMARK  7 active torsions:
REMARK  status: ('A' for Active; 'I' for Inactive)
REMARK    1  A    between atoms: N_4  and  C_2 
REMARK    2  A    between atoms: S_9  and  C_3 
REMARK    3  A    between atoms: C_8  and  C_13 
REMARK    4  A    between atoms: O_11  and  C_8 
REMARK    5  A    between atoms: C_13  and  S_9 
REMARK    6  A    between atoms: C_14  and  O_11 
REMARK    7  A    between atoms: C_17  and  C_14 
ROOT
ATOM      1  N   UNL d   1     -41.221  13.944  19.972  0.00  0.00    -0.203 NA
ATOM      2  C   UNL d   1     -40.737  14.527  19.650  0.00  0.00     0.152 A 
ATOM      3  C   UNL d   1     -41.501  14.020  20.748  0.00  0.00     0.196 A 
ATOM      4  C   UNL d   1     -40.532  15.185  20.100  0.00  0.00     0.057 A 
ATOM      5  N   UNL d   1     -41.295  14.678  21.199  0.00  0.00    -0.221 NA
ATOM      6  C   UNL d   1     -40.811  15.260  20.876  0.00  0.00     0.087 A 
ATOM      7  C   UNL d   1     -40.604  15.922  21.328  0.00  0.00     0.021 C 
ENDROOT
BRANCH   3   8
ATOM      8  S   UNL d   1     -41.990  13.430  21.071  0.00  0.00    -0.043 SA
BRANCH   8   9
ATOM      9  C   UNL d   1     -42.809  13.519  21.048  0.00  0.00     0.107 C 
BRANCH   9  10
ATOM     10  C   UNL d   1     -43.289  12.979  21.444  0.00  0.00     0.307 C 
ATOM     11  O   UNL d   1     -43.094  12.181  21.460  0.00  0.00    -0.258 OA
BRANCH  10  12
ATOM     12  O   UNL d   1     -43.975  13.243  21.828  0.00  0.00    -0.271 OA
BRANCH  12  13
ATOM     13  C   UNL d   1     -44.666  12.796  21.794  0.00  0.00     0.126 C 
BRANCH  13  14
ATOM     14  C   UNL d   1     -45.319  13.008  22.252  0.00  0.00     0.025 A 
ATOM     15  C   UNL d   1     -45.606  13.788  22.216  0.00  0.00     0.002 A 
ATOM     16  C   UNL d   1     -46.259  14.000  22.674  0.00  0.00     0.000 A 
ATOM     17  C   UNL d   1     -46.620  13.430  23.165  0.00  0.00     0.000 A 
ATOM     18  C   UNL d   1     -46.323  12.659  23.189  0.00  0.00     0.000 A 
ATOM     19  C   UNL d   1     -45.677  12.450  22.735  0.00  0.00     0.002 A 
ENDBRANCH  13  14
ENDBRANCH  12  13
ENDBRANCH  10  12
ENDBRANCH   9  10
ENDBRANCH   8   9
ENDBRANCH   3   8
BRANCH   2  20
ATOM     20  N   UNL d   1     -40.456  14.456  18.876  0.00  0.00    -0.285 N 
ATOM     21  C   UNL d   1     -39.760  14.034  18.732  0.00  0.00     0.108 A 
ATOM     22  C   UNL d   1     -39.478  13.960  17.964  0.00  0.00     0.142 A 
ATOM     23  O   UNL d   1     -39.888  14.306  17.340  0.00  0.00    -0.300 OA
ATOM     24  C   UNL d   1     -40.584  14.727  17.484  0.00  0.00     0.142 A 
ATOM     25  C   UNL d   1     -40.867  14.801  18.256  0.00  0.00     0.108 A 
ENDBRANCH   2  20
TORSDOF 7
ENDMDL
MODEL 2
REMARK VINA RESULT:      -5.4      5.268      7.821
REMARK  7 active torsions:
REMARK  status: ('A' for Active; 'I' for Inactive)
REMARK    1  A    between atoms: N_4  and  C_2 
REMARK    2  A    between atoms: S_9  and  C_3 
REMARK    3  A    between atoms: C_8  and  C_13 
REMARK    4  A    between atoms: O_11  and  C_8 
REMARK    5  A    between atoms: C_13  and  S_9 
REMARK    6  A    between atoms: C_14  and  O_11 
REMARK    7  A    between atoms: C_17  and  C_14 
ROOT
ATOM      1  N   UNL d   1     -48.837  13.458  23.225  0.00  0.00    -0.203 NA
ATOM      2  C   UNL d   1     -49.644  13.451  23.060  0.00  0.00     0.152 A 
ATOM      3  C   UNL d   1     -48.470  12.782  23.533  0.00  0.00     0.196 A 
ATOM      4  C   UNL d   1     -50.085  12.772  23.202  0.00  0.00     0.057 A 
ATOM      5  N   UNL d   1     -48.912  12.101  23.675  0.00  0.00    -0.221 NA
ATOM      6  C   UNL d   1     -49.718  12.095  23.510  0.00  0.00     0.087 A 
ATOM      7  C   UNL d   1     -50.164  11.412  23.653  0.00  0.00     0.021 C 
ENDROOT
BRANCH   3   8
ATOM      8  S   UNL d   1     -47.656  12.792  23.698  0.00  0.00    -0.043 SA
BRANCH   8   9
ATOM      9  C   UNL d   1     -47.122  12.490  23.147  0.00  0.00     0.107 C 
BRANCH   9  10
ATOM     10  C   UNL d   1     -46.315  12.628  23.242  0.00  0.00     0.307 C 
ATOM     11  O   UNL d   1     -46.015  13.392  23.207  0.00  0.00    -0.258 OA
BRANCH  10  12
ATOM     12  O   UNL d   1     -45.802  11.990  23.374  0.00  0.00    -0.271 OA
BRANCH  12  13
ATOM     13  C   UNL d   1     -45.173  11.852  22.860  0.00  0.00     0.126 C 
BRANCH  13  14
ATOM     14  C   UNL d   1     -44.606  11.282  23.044  0.00  0.00     0.025 A 
ATOM     15  C   UNL d   1     -44.820  10.630  23.514  0.00  0.00     0.002 A 
ATOM     16  C   UNL d   1     -44.253  10.060  23.698  0.00  0.00     0.000 A 
ATOM     17  C   UNL d   1     -43.475  10.146  23.411  0.00  0.00     0.000 A 
ATOM     18  C   UNL d   1     -43.277  10.800  22.945  0.00  0.00     0.000 A 
ATOM     19  C   UNL d   1     -43.839  11.364  22.763  0.00  0.00     0.002 A 
ENDBRANCH  13  14
ENDBRANCH  12  13
ENDBRANCH  10  12
ENDBRANCH   9  10
ENDBRANCH   8   9
ENDBRANCH   3   8
BRANCH   2  20
ATOM     20  N   UNL d   1     -50.012  14.123  22.753  0.00  0.00    -0.285 N 
ATOM     21  C   UNL d   1     -49.974  14.837  23.169  0.00  0.00     0.108 A 
ATOM     22  C   UNL d   1     -50.340  15.507  22.867  0.00  0.00     0.142 A 
ATOM     23  O   UNL d   1     -50.743  15.468  22.150  0.00  0.00    -0.300 OA
ATOM     24  C   UNL d   1     -50.781  14.755  21.734  0.00  0.00     0.142 A 
ATOM     25  C   UNL d   1     -50.414  14.082  22.038  0.00  0.00     0.108 A 
ENDBRANCH   2  20
TORSDOF 7
ENDMDL
MODEL 3
REMARK VINA RESULT:      -5.4      5.023      7.513
REMARK  7 active torsions:
REMARK  status: ('A' for Active; 'I' for Inactive)
REMARK    1  A    between atoms: N_4  and  C_2 
REMARK    2  A    between atoms: S_9  and  C_3 
REMARK    3  A    between atoms: C_8  and  C_13 
REMARK    4  A    between atoms: O_11  and  C_8 
REMARK    5  A    between atoms: C_13  and  S_9 
REMARK    6  A    between atoms: C_14  and  O_11 
REMARK    7  A    between atoms: C_17  and  C_14 
ROOT
ATOM      1  N   UNL d   1     -48.326  13.441  23.083  0.00  0.00    -0.203 NA
ATOM      2  C   UNL d   1     -49.135  13.546  22.971  0.00  0.00     0.152 A 
ATOM      3  C   UNL d   1     -47.796  14.040  22.865  0.00  0.00     0.196 A 
ATOM      4  C   UNL d   1     -49.416  14.245  22.642  0.00  0.00     0.057 A 
ATOM      5  N   UNL d   1     -48.077  14.741  22.536  0.00  0.00    -0.221 NA
ATOM      6  C   UNL d   1     -48.886  14.844  22.424  0.00  0.00     0.087 A 
ATOM      7  C   UNL d   1     -49.171  15.548  22.094  0.00  0.00     0.021 C 
ENDROOT
BRANCH   3   8
ATOM      8  S   UNL d   1     -46.980  13.931  22.979  0.00  0.00    -0.043 SA
BRANCH   8   9
ATOM      9  C   UNL d   1     -46.632  13.208  22.788  0.00  0.00     0.107 C 
BRANCH   9  10
ATOM     10  C   UNL d   1     -45.813  13.155  22.717  0.00  0.00     0.307 C 
ATOM     11  O   UNL d   1     -45.393  13.720  22.293  0.00  0.00    -0.258 OA
BRANCH  10  12
ATOM     12  O   UNL d   1     -45.409  12.527  23.077  0.00  0.00    -0.271 OA
BRANCH  12  13
ATOM     13  C   UNL d   1     -45.156  11.886  22.625  0.00  0.00     0.126 C 
BRANCH  13  14
ATOM     14  C   UNL d   1     -44.737  11.270  22.980  0.00  0.00     0.025 A 
ATOM     15  C   UNL d   1     -45.154  10.645  23.337  0.00  0.00     0.002 A 
ATOM     16  C   UNL d   1     -44.735  10.029  23.691  0.00  0.00     0.000 A 
ATOM     17  C   UNL d   1     -43.901  10.042  23.686  0.00  0.00     0.000 A 
ATOM     18  C   UNL d   1     -43.502  10.670  23.327  0.00  0.00     0.000 A 
ATOM     19  C   UNL d   1     -43.917  11.280  22.976  0.00  0.00     0.002 A 
ENDBRANCH  13  14
ENDBRANCH  12  13
ENDBRANCH  10  12
ENDBRANCH   9  10
ENDBRANCH   8   9
ENDBRANCH   3   8
BRANCH   2  20
ATOM     20  N   UNL d   1     -49.666  12.951  23.187  0.00  0.00    -0.285 N 
ATOM     21  C   UNL d   1     -50.466  13.134  23.287  0.00  0.00     0.108 A 
ATOM     22  C   UNL d   1     -50.997  12.546  23.501  0.00  0.00     0.142 A 
ATOM     23  O   UNL d   1     -50.733  11.775  23.617  0.00  0.00    -0.300 OA
ATOM     24  C   UNL d   1     -49.933  11.592  23.517  0.00  0.00     0.142 A 
ATOM     25  C   UNL d   1     -49.400  12.183  23.301  0.00  0.00     0.108 A 
ENDBRANCH   2  20
TORSDOF 7
ENDMDL
MODEL 4
REMARK VINA RESULT:      -5.0      3.816      7.411
REMARK  7 active torsions:
REMARK  status: ('A' for Active; 'I' for Inactive)
REMARK    1  A    between atoms: N_4  and  C_2 
REMARK    2  A    between atoms: S_9  and  C_3 
REMARK    3  A    between atoms: C_8  and  C_13 
REMARK    4  A    between atoms: O_11  and  C_8 
REMARK    5  A    between atoms: C_13  and  S_9 
REMARK    6  A    between atoms: C_14  and  O_11 
REMARK    7  A    between atoms: C_17  and  C_14 
ROOT
ATOM      1  N   UNL d   1     -48.353  13.414  23.064  0.00  0.00    -0.203 NA
ATOM      2  C   UNL d   1     -49.107  13.684  22.873  0.00  0.00     0.152 A 
ATOM      3  C   UNL d   1     -47.699  13.915  22.979  0.00  0.00     0.196 A 
ATOM      4  C   UNL d   1     -49.210  14.452  22.597  0.00  0.00     0.057 A 
ATOM      5  N   UNL d   1     -47.802  14.685  22.703  0.00  0.00    -0.221 NA
ATOM      6  C   UNL d   1     -48.556  14.954  22.512  0.00  0.00     0.087 A 
ATOM      7  C   UNL d   1     -48.661  15.726  22.235  0.00  0.00     0.021 C 
ENDROOT
BRANCH   3   8
ATOM      8  S   UNL d   1     -46.939  13.640  23.173  0.00  0.00    -0.043 SA
BRANCH   8   9
ATOM      9  C   UNL d   1     -46.468  13.293  22.591  0.00  0.00     0.107 C 
BRANCH   9  10
ATOM     10  C   UNL d   1     -45.764  12.922  22.804  0.00  0.00     0.307 C 
ATOM     11  O   UNL d   1     -45.753  12.357  23.400  0.00  0.00    -0.258 OA
BRANCH  10  12
ATOM     12  O   UNL d   1     -45.061  13.121  22.412  0.00  0.00    -0.271 OA
BRANCH  12  13
ATOM     13  C   UNL d   1     -44.661  12.554  21.968  0.00  0.00     0.126 C 
BRANCH  13  14
ATOM     14  C   UNL d   1     -43.883  12.689  21.728  0.00  0.00     0.025 A 
ATOM     15  C   UNL d   1     -43.719  13.322  21.213  0.00  0.00     0.002 A 
ATOM     16  C   UNL d   1     -42.941  13.457  20.974  0.00  0.00     0.000 A 
ATOM     17  C   UNL d   1     -42.332  12.959  21.250  0.00  0.00     0.000 A 
ATOM     18  C   UNL d   1     -42.512  12.334  21.761  0.00  0.00     0.000 A 
ATOM     19  C   UNL d   1     -43.282  12.200  21.998  0.00  0.00     0.002 A 
ENDBRANCH  13  14
ENDBRANCH  12  13
ENDBRANCH  10  12
ENDBRANCH   9  10
ENDBRANCH   8   9
ENDBRANCH   3   8
BRANCH   2  20
ATOM     20  N   UNL d   1     -49.762  13.187  22.956  0.00  0.00    -0.285 N 
ATOM     21  C   UNL d   1     -49.928  12.628  22.370  0.00  0.00     0.108 A 
ATOM     22  C   UNL d   1     -50.577  12.132  22.450  0.00  0.00     0.142 A 
ATOM     23  O   UNL d   1     -51.063  12.192  23.112  0.00  0.00    -0.300 OA
ATOM     24  C   UNL d   1     -50.896  12.751  23.698  0.00  0.00     0.142 A 
ATOM     25  C   UNL d   1     -50.244  13.249  23.618  0.00  0.00     0.108 A 
ENDBRANCH   2  20
TORSDOF 7
ENDMDL
MODEL 5
REMARK VINA RESULT:      -4.9      2.641      6.192
REMARK  7 active torsions:
REMARK  status: ('A' for Active; 'I' for Inactive)
REMARK    1  A    between atoms: N_4  and  C_2 
REMARK    2  A    between atoms: S_9  and  C_3 
REMARK    3  A    between atoms: C_8  and  C_13 
REMARK    4  A    between atoms: O_11  and  C_8 
REMARK    5  A    between atoms: C_13  and  S_9 
REMARK    6  A    between atoms: C_14  and  O_11 
REMARK    7  A    between atoms: C_17  and  C_14 
ROOT
ATOM      1  N   UNL d   1     -45.892  13.294  22.067  0.00  0.00    -0.203 NA
ATOM      2  C   UNL d   1     -46.522  13.190  22.588  0.00  0.00     0.152 A 
ATOM      3  C   UNL d   1     -45.245  12.776  22.089  0.00  0.00     0.196 A 
ATOM      4  C   UNL d   1     -46.508  12.571  23.129  0.00  0.00     0.057 A 
ATOM      5  N   UNL d   1     -45.232  12.156  22.632  0.00  0.00    -0.221 NA
ATOM      6  C   UNL d   1     -45.862  12.053  23.152  0.00  0.00     0.087 A 
ATOM      7  C   UNL d   1     -45.849  11.431  23.697  0.00  0.00     0.021 C 
ENDROOT
BRANCH   3   8
ATOM      8  S   UNL d   1     -44.612  12.884  21.563  0.00  0.00    -0.043 SA
BRANCH   8   9
ATOM      9  C   UNL d   1     -43.858  13.047  21.857  0.00  0.00     0.107 C 
BRANCH   9  10
ATOM     10  C   UNL d   1     -43.217  13.080  21.340  0.00  0.00     0.307 C 
ATOM     11  O   UNL d   1     -43.144  12.534  20.730  0.00  0.00    -0.258 OA
BRANCH  10  12
ATOM     12  O   UNL d   1     -42.642  13.669  21.436  0.00  0.00    -0.271 OA
BRANCH  12  13
ATOM     13  C   UNL d   1     -41.952  13.650  20.986  0.00  0.00     0.126 C 
BRANCH  13  14
ATOM     14  C   UNL d   1     -41.397  14.256  21.055  0.00  0.00     0.025 A 
ATOM     15  C   UNL d   1     -40.613  14.070  21.262  0.00  0.00     0.002 A 
ATOM     16  C   UNL d   1     -40.057  14.677  21.331  0.00  0.00     0.000 A 
ATOM     17  C   UNL d   1     -40.290  15.466  21.192  0.00  0.00     0.000 A 
ATOM     18  C   UNL d   1     -41.073  15.634  20.988  0.00  0.00     0.000 A 
ATOM     19  C   UNL d   1     -41.622  15.034  20.920  0.00  0.00     0.002 A 
ENDBRANCH  13  14
ENDBRANCH  12  13
ENDBRANCH  10  12
ENDBRANCH   9  10
ENDBRANCH   8   9
ENDBRANCH   3   8
BRANCH   2  20
ATOM     20  N   UNL d   1     -47.168  13.705  22.568  0.00  0.00    -0.285 N 
ATOM     21  C   UNL d   1     -47.871  13.464  22.206  0.00  0.00     0.108 A 
ATOM     22  C   UNL d   1     -48.515  13.972  22.185  0.00  0.00     0.142 A 
ATOM     23  O   UNL d   1     -48.461  14.721  22.524  0.00  0.00    -0.300 OA
ATOM     24  C   UNL d   1     -47.758  14.961  22.886  0.00  0.00     0.142 A 
ATOM     25  C   UNL d   1     -47.110  14.450  22.907  0.00  0.00     0.108 A 
ENDBRANCH   2  20
TORSDOF 7
ENDMDL
MODEL 6
REMARK VINA RESULT:      -4.7      1.757      2.281
REMARK  7 active torsions:
REMARK  status: ('A' for Active; 'I' for Inactive)
REMARK    1  A    between atoms: N_4  and  C_2 
REMARK    2  A    between atoms: S_9  and  C_3 
REMARK    3  A    between atoms: C_8  and  C_13 
REMARK    4  A    between atoms: O_11  and  C_8 
REMARK    5  A    between atoms: C_13  and  S_9 
REMARK    6  A    between atoms: C_14  and  O_11 
REMARK    7  A    between atoms: C_17  and  C_14 
ROOT
ATOM      1  N   UNL d   1     -40.720  13.642  21.398  0.00  0.00    -0.203 NA
ATOM      2  C   UNL d   1     -40.063  14.138  21.411  0.00  0.00     0.152 A 
ATOM      3  C   UNL d   1     -41.432  13.906  21.065  0.00  0.00     0.196 A 
ATOM      4  C   UNL d   1     -40.113  14.895  21.094  0.00  0.00     0.057 A 
ATOM      5  N   UNL d   1     -41.483  14.665  20.747  0.00  0.00    -0.221 NA
ATOM      6  C   UNL d   1     -40.825  15.159  20.761  0.00  0.00     0.087 A 
ATOM      7  C   UNL d   1     -40.874  15.921  20.443  0.00  0.00     0.021 C 
ENDROOT
BRANCH   3   8
ATOM      8  S   UNL d   1     -42.093  13.404  21.052  0.00  0.00    -0.043 SA
BRANCH   8   9
ATOM      9  C   UNL d   1     -42.797  13.644  21.409  0.00  0.00     0.107 C 
BRANCH   9  10
ATOM     10  C   UNL d   1     -43.430  13.118  21.458  0.00  0.00     0.307 C 
ATOM     11  O   UNL d   1     -43.424  12.417  21.030  0.00  0.00    -0.258 OA
BRANCH  10  12
ATOM     12  O   UNL d   1     -44.076  13.298  21.945  0.00  0.00    -0.271 OA
BRANCH  12  13
ATOM     13  C   UNL d   1     -44.805  12.935  21.815  0.00  0.00     0.126 C 
BRANCH  13  14
ATOM     14  C   UNL d   1     -45.438  13.085  22.322  0.00  0.00     0.025 A 
ATOM     15  C   UNL d   1     -45.764  13.850  22.351  0.00  0.00     0.002 A 
ATOM     16  C   UNL d   1     -46.397  14.001  22.858  0.00  0.00     0.000 A 
ATOM     17  C   UNL d   1     -46.701  13.385  23.333  0.00  0.00     0.000 A 
ATOM     18  C   UNL d   1     -46.366  12.631  23.292  0.00  0.00     0.000 A 
ATOM     19  C   UNL d   1     -45.738  12.482  22.790  0.00  0.00     0.002 A 
ENDBRANCH  13  14
ENDBRANCH  12  13
ENDBRANCH  10  12
ENDBRANCH   9  10
ENDBRANCH   8   9
ENDBRANCH   3   8
BRANCH   2  20
ATOM     20  N   UNL d   1     -39.352  13.879  21.742  0.00  0.00    -0.285 N 
ATOM     21  C   UNL d   1     -39.225  13.962  22.555  0.00  0.00     0.108 A 
ATOM     22  C   UNL d   1     -38.520  13.705  22.888  0.00  0.00     0.142 A 
ATOM     23  O   UNL d   1     -37.940  13.365  22.412  0.00  0.00    -0.300 OA
ATOM     24  C   UNL d   1     -38.066  13.283  21.600  0.00  0.00     0.142 A 
ATOM     25  C   UNL d   1     -38.775  13.540  21.266  0.00  0.00     0.108 A 
ENDBRANCH   2  20
TORSDOF 7
ENDMDL
MODEL 7
REMARK VINA RESULT:      -4.0      2.944      6.444
REMARK  7 active torsions:
REMARK  status: ('A' for Active; 'I' for Inactive)
REMARK    1  A    between atoms: N_4  and  C_2 
REMARK    2  A    between atoms: S_9  and  C_3 
REMARK    3  A    between atoms: C_8  and  C_13 
REMARK    4  A    between atoms: O_11  and  C_8 
REMARK    5  A    between atoms: C_13  and  S_9 
REMARK    6  A    between atoms: C_14  and  O_11 
REMARK    7  A    between atoms: C_17  and  C_14 
ROOT
ATOM      1  N   UNL d   1     -39.773  14.806  20.728  0.00  0.00    -0.203 NA
ATOM      2  C   UNL d   1     -39.962  14.431  21.436  0.00  0.00     0.152 A 
ATOM      3  C   UNL d   1     -40.336  14.855  20.122  0.00  0.00     0.196 A 
ATOM      4  C   UNL d   1     -40.710  14.105  21.541  0.00  0.00     0.057 A 
ATOM      5  N   UNL d   1     -41.085  14.529  20.227  0.00  0.00    -0.221 NA
ATOM      6  C   UNL d   1     -41.273  14.155  20.935  0.00  0.00     0.087 A 
ATOM      7  C   UNL d   1     -42.025  13.827  21.042  0.00  0.00     0.021 C 
ENDROOT
BRANCH   3   8
ATOM      8  S   UNL d   1     -40.142  15.234  19.408  0.00  0.00    -0.043 SA
BRANCH   8   9
ATOM      9  C   UNL d   1     -39.857  14.792  18.773  0.00  0.00     0.107 C 
BRANCH   9  10
ATOM     10  C   UNL d   1     -39.700  15.163  18.054  0.00  0.00     0.307 C 
ATOM     11  O   UNL d   1     -40.002  15.911  17.896  0.00  0.00    -0.258 OA
BRANCH  10  12
ATOM     12  O   UNL d   1     -39.234  14.779  17.487  0.00  0.00    -0.271 OA
BRANCH  12  13
ATOM     13  C   UNL d   1     -39.104  15.130  16.753  0.00  0.00     0.126 C 
BRANCH  13  14
ATOM     14  C   UNL d   1     -38.715  14.712  16.157  0.00  0.00     0.025 A 
ATOM     15  C   UNL d   1     -38.641  13.886  16.220  0.00  0.00     0.002 A 
ATOM     16  C   UNL d   1     -38.252  13.468  15.625  0.00  0.00     0.000 A 
ATOM     17  C   UNL d   1     -37.940  13.879  14.970  0.00  0.00     0.000 A 
ATOM     18  C   UNL d   1     -38.021  14.700  14.922  0.00  0.00     0.000 A 
ATOM     19  C   UNL d   1     -38.406  15.114  15.512  0.00  0.00     0.002 A 
ENDBRANCH  13  14
ENDBRANCH  12  13
ENDBRANCH  10  12
ENDBRANCH   9  10
ENDBRANCH   8   9
ENDBRANCH   3   8
BRANCH   2  20
ATOM     20  N   UNL d   1     -39.403  14.380  22.043  0.00  0.00    -0.285 N 
ATOM     21  C   UNL d   1     -39.159  13.637  22.312  0.00  0.00     0.108 A 
ATOM     22  C   UNL d   1     -38.605  13.582  22.915  0.00  0.00     0.142 A 
ATOM     23  O   UNL d   1     -38.291  14.266  23.250  0.00  0.00    -0.300 OA
ATOM     24  C   UNL d   1     -38.535  15.008  22.980  0.00  0.00     0.142 A 
ATOM     25  C   UNL d   1     -39.093  15.063  22.375  0.00  0.00     0.108 A 
ENDBRANCH   2  20
TORSDOF 7
ENDMDL
MODEL 8
REMARK VINA RESULT:      -3.0      1.871      5.961
REMARK  7 active torsions:
REMARK  status: ('A' for Active; 'I' for Inactive)
REMARK    1  A    between atoms: N_4  and  C_2 
REMARK    2  A    between atoms: S_9  and  C_3 
REMARK    3  A    between atoms: C_8  and  C_13 
REMARK    4  A    between atoms: O_11  and  C_8 
REMARK    5  A    between atoms: C_13  and  S_9 
REMARK    6  A    between atoms: C_14  and  O_11 
REMARK    7  A    between atoms: C_17  and  C_14 
ROOT
ATOM      1  N   UNL d   1     -44.383  13.154  21.704  0.00  0.00    -0.203 NA
ATOM      2  C   UNL d   1     -44.901  12.787  22.228  0.00  0.00     0.152 A 
ATOM      3  C   UNL d   1     -43.627  12.838  21.579  0.00  0.00     0.196 A 
ATOM      4  C   UNL d   1     -44.668  12.108  22.628  0.00  0.00     0.057 A 
ATOM      5  N   UNL d   1     -43.392  12.157  21.980  0.00  0.00    -0.221 NA
ATOM      6  C   UNL d   1     -43.912  11.792  22.504  0.00  0.00     0.087 A 
ATOM      7  C   UNL d   1     -43.678  11.108  22.908  0.00  0.00     0.021 C 
ENDROOT
BRANCH   3   8
ATOM      8  S   UNL d   1     -43.106  13.209  21.050  0.00  0.00    -0.043 SA
BRANCH   8   9
ATOM      9  C   UNL d   1     -42.337  13.391  21.290  0.00  0.00     0.107 C 
BRANCH   9  10
ATOM     10  C   UNL d   1     -41.932  14.009  20.926  0.00  0.00     0.307 C 
ATOM     11  O   UNL d   1     -42.067  14.788  21.151  0.00  0.00    -0.258 OA
BRANCH  10  12
ATOM     12  O   UNL d   1     -41.382  13.844  20.327  0.00  0.00    -0.271 OA
BRANCH  12  13
ATOM     13  C   UNL d   1     -40.828  14.412  20.107  0.00  0.00     0.126 C 
BRANCH  13  14
ATOM     14  C   UNL d   1     -40.317  14.269  19.475  0.00  0.00     0.025 A 
ATOM     15  C   UNL d   1     -40.606  14.322  18.697  0.00  0.00     0.002 A 
ATOM     16  C   UNL d   1     -40.095  14.179  18.065  0.00  0.00     0.000 A 
ATOM     17  C   UNL d   1     -39.299  13.982  18.215  0.00  0.00     0.000 A 
ATOM     18  C   UNL d   1     -39.027  13.933  18.994  0.00  0.00     0.000 A 
ATOM     19  C   UNL d   1     -39.533  14.075  19.620  0.00  0.00     0.002 A 
ENDBRANCH  13  14
ENDBRANCH  12  13
ENDBRANCH  10  12
ENDBRANCH   9  10
ENDBRANCH   8   9
ENDBRANCH   3   8
BRANCH   2  20
ATOM     20  N   UNL d   1     -45.656  13.099  22.354  0.00  0.00    -0.285 N 
ATOM     21  C   UNL d   1     -45.767  13.675  22.937  0.00  0.00     0.108 A 
ATOM     22  C   UNL d   1     -46.516  13.988  23.065  0.00  0.00     0.142 A 
ATOM     23  O   UNL d   1     -47.154  13.727  22.614  0.00  0.00    -0.300 OA
ATOM     24  C   UNL d   1     -47.042  13.151  22.033  0.00  0.00     0.142 A 
ATOM     25  C   UNL d   1     -46.290  12.837  21.904  0.00  0.00     0.108 A 
ENDBRANCH   2  20
TORSDOF 7
ENDMDL
