MODEL 1
REMARK VINA RESULT:      41.8      0.000      0.000
REMARK  6 active torsions:
REMARK  status: ('A' for Active; 'I' for Inactive)
REMARK    1  A    between atoms: N_6  and  C_1 
REMARK    2  A    between atoms: C_4  and  C_2 
REMARK    3  A    between atoms: C_7  and  C_4 
REMARK    4  A    between atoms: C_8  and  C_4 
REMARK    5  A    between atoms: O_12  and  C_7 
REMARK    6  A    between atoms: C_16  and  O_12 
ROOT
ATOM      1  C   UNL d   1      46.143 -18.600  42.809  0.00  0.00     0.166 A 
ATOM      2  C   UNL d   1      46.156 -17.775  42.805  0.00  0.00     0.122 A 
ATOM      3  N   UNL d   1      46.225 -19.023  42.101  0.00  0.00    -0.225 NA
ATOM      4  N   UNL d   1      46.253 -17.373  42.089  0.00  0.00    -0.241 NA
ATOM      5  C   UNL d   1      46.320 -18.613  41.389  0.00  0.00     0.101 A 
ATOM      6  C   UNL d   1      46.334 -17.793  41.385  0.00  0.00     0.099 A 
ATOM      7  C   UNL d   1      46.401 -19.033  40.692  0.00  0.00     0.021 A 
ATOM      8  C   UNL d   1      46.430 -17.388  40.672  0.00  0.00     0.021 A 
ATOM      9  C   UNL d   1      46.511 -17.806  39.972  0.00  0.00     0.002 A 
ATOM     10  C   UNL d   1      46.497 -18.631  39.976  0.00  0.00     0.002 A 
ENDROOT
BRANCH   2  11
ATOM     11  C   UNL d   1      46.074 -17.351  43.514  0.00  0.00     0.105 C 
BRANCH  11  12
ATOM     12  C   UNL d   1      45.450 -16.821  43.608  0.00  0.00     0.303 C 
ATOM     13  O   UNL d   1      44.731 -16.964  43.234  0.00  0.00    -0.259 OA
BRANCH  12  14
ATOM     14  O   UNL d   1      45.544 -16.152  44.074  0.00  0.00    -0.273 OA
BRANCH  14  15
ATOM     15  C   UNL d   1      45.437 -15.345  44.186  0.00  0.00     0.103 A 
ATOM     16  C   UNL d   1      46.084 -14.836  44.124  0.00  0.00     0.025 A 
ATOM     17  C   UNL d   1      45.982 -14.030  44.236  0.00  0.00     0.002 A 
ATOM     18  C   UNL d   1      45.241 -13.734  44.408  0.00  0.00     0.000 A 
ATOM     19  C   UNL d   1      44.599 -14.235  44.470  0.00  0.00     0.002 A 
ATOM     20  C   UNL d   1      44.696 -15.050  44.359  0.00  0.00     0.025 A 
ENDBRANCH  14  15
ENDBRANCH  12  14
ENDBRANCH  11  12
BRANCH  11  21
ATOM     21  C   UNL d   1      46.619 -17.456  44.133  0.00  0.00     0.129 C 
ATOM     22  N   UNL d   1      46.572 -16.973  44.951  0.00  0.00    -0.146 N 
ENDBRANCH  11  21
ENDBRANCH   2  11
BRANCH   1  23
ATOM     23  N   UNL d   1      46.047 -19.009  43.522  0.00  0.00    -0.288 N 
ATOM     24  C   UNL d   1      45.360 -19.462  43.643  0.00  0.00     0.082 A 
ATOM     25  C   UNL d   1      45.270 -19.871  44.362  0.00  0.00     0.018 A 
ATOM     26  C   UNL d   1      44.590 -20.324  44.490  0.00  0.00     0.002 C 
ATOM     27  C   UNL d   1      45.856 -19.827  44.949  0.00  0.00     0.003 A 
ATOM     28  C   UNL d   1      46.531 -19.374  44.815  0.00  0.00     0.019 A 
ATOM     29  C   UNL d   1      46.633 -18.965  44.108  0.00  0.00     0.082 A 
ENDBRANCH   1  23
TORSDOF 6
ENDMDL
