MODEL 1
REMARK VINA RESULT:      90.1      0.000      0.000
REMARK  5 active torsions:
REMARK  status: ('A' for Active; 'I' for Inactive)
REMARK    1  A    between atoms: S_14  and  C_7 
REMARK       I    between atoms: N_10  and  C_13 
REMARK    2  A    between atoms: C_26  and  C_11 
REMARK    3  A    between atoms: C_22  and  N_12 
REMARK    4  A    between atoms: C_13  and  C_17 
REMARK    5  A    between atoms: C_17  and  S_14 
ROOT
ATOM      1  N   UNL d   1     -48.308  31.863  34.005  0.00  0.00    -0.224 N 
ATOM      2  N   UNL d   1     -47.207  31.598  34.890  0.00  0.00    -0.241 N 
ATOM      3  C   UNL d   1     -47.600  32.107  34.374  0.00  0.00     0.343 A 
ATOM      4  C   UNL d   1     -47.522  30.846  35.039  0.00  0.00     0.160 A 
ATOM      5  C   UNL d   1     -48.617  31.112  34.156  0.00  0.00     0.273 A 
ATOM      6  C   UNL d   1     -48.223  30.604  34.673  0.00  0.00     0.115 A 
ATOM      7  C   UNL d   1     -48.531  29.854  34.824  0.00  0.00     0.120 A 
ATOM      8  N   UNL d   1     -47.128  30.330  35.559  0.00  0.00    -0.209 NA
ATOM      9  N   UNL d   1     -48.142  29.344  35.339  0.00  0.00    -0.220 NA
ATOM     10  C   UNL d   1     -47.436  29.580  35.711  0.00  0.00     0.165 A 
ATOM     11  O   UNL d   1     -47.293  32.861  34.220  0.00  0.00    -0.245 OA
ATOM     12  O   UNL d   1     -49.317  30.875  33.789  0.00  0.00    -0.266 OA
ATOM     13  C   UNL d   1     -48.695  32.374  33.491  0.00  0.00     0.107 C 
ATOM     14  C   UNL d   1     -46.506  31.840  35.256  0.00  0.00     0.105 C 
ENDROOT
BRANCH   7  15
ATOM     15  S   UNL d   1     -49.232  29.616  34.457  0.00  0.00    -0.062 SA
BRANCH  15  16
ATOM     16  C   UNL d   1     -49.315  28.838  34.186  0.00  0.00     0.098 C 
BRANCH  16  17
ATOM     17  C   UNL d   1     -49.982  28.618  33.756  0.00  0.00     0.272 C 
ATOM     18  N   UNL d   1     -50.244  27.840  33.751  0.00  0.00    -0.269 N 
ATOM     19  C   UNL d   1     -49.828  27.268  34.188  0.00  0.00     0.102 A 
ATOM     20  C   UNL d   1     -50.907  27.625  33.323  0.00  0.00     0.102 A 
ATOM     21  C   UNL d   1     -50.095  26.490  34.180  0.00  0.00     0.100 A 
ATOM     22  N   UNL d   1     -50.760  26.272  33.751  0.00  0.00    -0.301 N 
ATOM     23  C   UNL d   1     -51.169  26.847  33.319  0.00  0.00     0.100 A 
ATOM     24  O   UNL d   1     -50.394  29.189  33.323  0.00  0.00    -0.266 OA
BRANCH  22  25
ATOM     25  C   UNL d   1     -51.022  25.494  33.746  0.00  0.00     0.064 A 
ATOM     26  C   UNL d   1     -50.626  24.919  33.314  0.00  0.00     0.018 A 
ATOM     27  C   UNL d   1     -50.887  24.134  33.307  0.00  0.00     0.002 A 
ATOM     28  C   UNL d   1     -51.558  23.922  33.741  0.00  0.00     0.000 A 
ATOM     29  C   UNL d   1     -51.962  24.507  34.181  0.00  0.00     0.002 A 
ATOM     30  C   UNL d   1     -51.692  25.276  34.177  0.00  0.00     0.018 A 
ENDBRANCH  22  25
ENDBRANCH  16  17
ENDBRANCH  15  16
ENDBRANCH   7  15
BRANCH  10  31
ATOM     31  C   UNL d   1     -47.046  29.065  36.228  0.00  0.00     0.039 C 
ATOM     32  C   UNL d   1     -46.567  29.365  36.830  0.00  0.00     0.003 C 
ENDBRANCH  10  31
TORSDOF 5
ENDMDL
