MODEL 1
REMARK VINA RESULT:      -7.5      0.000      0.000
REMARK  1 active torsions:
REMARK  status: ('A' for Active; 'I' for Inactive)
REMARK    1  A    between atoms: N_2  and  C_1 
ROOT
ATOM      1  C   UNL d   1      53.935  32.578  54.134  0.00  0.00     0.148 A 
ATOM      2  C   UNL d   1      53.960  31.733  54.090  0.00  0.00     0.051 A 
ATOM      3  C   UNL d   1      53.423  32.992  53.636  0.00  0.00     0.127 A 
ATOM      4  C   UNL d   1      53.483  31.329  53.560  0.00  0.00     0.121 A 
ATOM      5  C   UNL d   1      52.937  32.561  53.093  0.00  0.00     0.049 A 
ATOM      6  C   UNL d   1      52.972  31.742  53.062  0.00  0.00     0.121 A 
ATOM      7  O   UNL d   1      53.396  30.499  53.400  0.00  0.00    -0.299 OA
ATOM      8  O   UNL d   1      52.557  31.179  52.581  0.00  0.00    -0.299 OA
ATOM      9  C   UNL d   1      52.834  30.432  52.809  0.00  0.00     0.304 A 
ATOM     10  N   UNL d   1      53.423  33.850  53.706  0.00  0.00    -0.146 N 
ENDROOT
BRANCH   1  11
ATOM     11  N   UNL d   1      54.415  33.048  54.673  0.00  0.00    -0.112 N 
ATOM     12  O   UNL d   1      55.162  33.341  54.444  0.00  0.00    -0.532 OA
ATOM     13  O   UNL d   1      54.133  33.226  55.464  0.00  0.00    -0.532 OA
ENDBRANCH   1  11
TORSDOF 1
ENDMDL
MODEL 2
REMARK VINA RESULT:      -7.2      1.715      2.992
REMARK  1 active torsions:
REMARK  status: ('A' for Active; 'I' for Inactive)
REMARK    1  A    between atoms: N_2  and  C_1 
ROOT
ATOM      1  C   UNL d   1      52.631  33.407  53.609  0.00  0.00     0.148 A 
ATOM      2  C   UNL d   1      52.986  33.933  54.170  0.00  0.00     0.051 A 
ATOM      3  C   UNL d   1      53.020  32.706  53.412  0.00  0.00     0.127 A 
ATOM      4  C   UNL d   1      53.707  33.749  54.515  0.00  0.00     0.121 A 
ATOM      5  C   UNL d   1      53.764  32.531  53.776  0.00  0.00     0.049 A 
ATOM      6  C   UNL d   1      54.095  33.049  54.318  0.00  0.00     0.121 A 
ATOM      7  O   UNL d   1      54.181  34.165  55.083  0.00  0.00    -0.299 OA
ATOM      8  O   UNL d   1      54.820  33.015  54.760  0.00  0.00    -0.299 OA
ATOM      9  C   UNL d   1      54.845  33.706  55.216  0.00  0.00     0.304 A 
ATOM     10  N   UNL d   1      52.632  32.195  52.838  0.00  0.00    -0.146 N 
ENDROOT
BRANCH   1  11
ATOM     11  N   UNL d   1      51.877  33.555  53.220  0.00  0.00    -0.112 N 
ATOM     12  O   UNL d   1      51.163  33.259  53.535  0.00  0.00    -0.532 OA
ATOM     13  O   UNL d   1      51.843  34.013  52.495  0.00  0.00    -0.532 OA
ENDBRANCH   1  11
TORSDOF 1
ENDMDL
MODEL 3
REMARK VINA RESULT:      -7.2      1.488      2.249
REMARK  1 active torsions:
REMARK  status: ('A' for Active; 'I' for Inactive)
REMARK    1  A    between atoms: N_2  and  C_1 
ROOT
ATOM      1  C   UNL d   1      53.605  33.133  54.207  0.00  0.00     0.148 A 
ATOM      2  C   UNL d   1      53.136  33.836  54.160  0.00  0.00     0.051 A 
ATOM      3  C   UNL d   1      53.467  32.520  53.672  0.00  0.00     0.127 A 
ATOM      4  C   UNL d   1      52.552  33.910  53.590  0.00  0.00     0.121 A 
ATOM      5  C   UNL d   1      52.860  32.611  53.088  0.00  0.00     0.049 A 
ATOM      6  C   UNL d   1      52.414  33.298  53.054  0.00  0.00     0.121 A 
ATOM      7  O   UNL d   1      52.009  34.540  53.417  0.00  0.00    -0.299 OA
ATOM      8  O   UNL d   1      51.783  33.534  52.538  0.00  0.00    -0.299 OA
ATOM      9  C   UNL d   1      51.556  34.293  52.782  0.00  0.00     0.304 A 
ATOM     10  N   UNL d   1      53.961  31.819  53.748  0.00  0.00    -0.146 N 
ENDROOT
BRANCH   1  11
ATOM     11  N   UNL d   1      54.229  33.007  54.787  0.00  0.00    -0.112 N 
ATOM     12  O   UNL d   1      54.082  32.597  55.499  0.00  0.00    -0.532 OA
ATOM     13  O   UNL d   1      55.021  33.304  54.645  0.00  0.00    -0.532 OA
ENDBRANCH   1  11
TORSDOF 1
ENDMDL
