MODEL 1
REMARK VINA RESULT:      12.7      0.000      0.000
REMARK  1 active torsions:
REMARK  status: ('A' for Active; 'I' for Inactive)
REMARK    1  A    between atoms: C_6  and  C_1 
ROOT
ATOM      1  C   UNL d   1      14.464  12.639  -1.444  0.00  0.00     0.128 A 
ATOM      2  C   UNL d   1      13.920  12.067  -1.204  0.00  0.00     0.306 A 
ATOM      3  C   UNL d   1      14.449  12.928  -2.225  0.00  0.00     0.013 A 
ATOM      4  O   UNL d   1      13.357  11.781  -1.745  0.00  0.00    -0.273 OA
ATOM      5  C   UNL d   1      13.887  12.639  -2.755  0.00  0.00     0.023 A 
ATOM      6  C   UNL d   1      13.343  12.068  -2.516  0.00  0.00     0.103 A 
ATOM      7  O   UNL d   1      13.934  11.781  -0.433  0.00  0.00    -0.259 OA
ATOM      8  C   UNL d   1      13.872  12.925  -3.528  0.00  0.00     0.002 A 
ATOM      9  C   UNL d   1      12.783  11.782  -3.049  0.00  0.00     0.025 A 
ATOM     10  C   UNL d   1      13.313  12.640  -4.060  0.00  0.00     0.000 A 
ATOM     11  C   UNL d   1      12.769  12.068  -3.820  0.00  0.00     0.002 A 
ATOM     12  C   UNL d   1      13.298  12.926  -4.832  0.00  0.00     0.000 C 
ENDROOT
BRANCH   1  13
ATOM     13  C   UNL d   1      15.025  12.924  -0.907  0.00  0.00     0.216 C 
ATOM     14  O   UNL d   1      14.790  13.424  -0.294  0.00  0.00    -0.644 OA
ATOM     15  O   UNL d   1      15.816  12.710  -0.984  0.00  0.00    -0.644 OA
ENDBRANCH   1  13
TORSDOF 1
ENDMDL
MODEL 2
REMARK VINA RESULT:      14.4      1.416      3.042
REMARK  1 active torsions:
REMARK  status: ('A' for Active; 'I' for Inactive)
REMARK    1  A    between atoms: C_6  and  C_1 
ROOT
ATOM      1  C   UNL d   1      13.563  12.899  -3.368  0.00  0.00     0.128 A 
ATOM      2  C   UNL d   1      13.248  12.153  -3.211  0.00  0.00     0.306 A 
ATOM      3  C   UNL d   1      14.044  13.276  -2.802  0.00  0.00     0.013 A 
ATOM      4  O   UNL d   1      13.413  11.779  -2.487  0.00  0.00    -0.273 OA
ATOM      5  C   UNL d   1      14.203  12.899  -2.086  0.00  0.00     0.023 A 
ATOM      6  C   UNL d   1      13.889  12.153  -1.929  0.00  0.00     0.103 A 
ATOM      7  O   UNL d   1      12.773  11.779  -3.769  0.00  0.00    -0.259 OA
ATOM      8  C   UNL d   1      14.679  13.272  -1.526  0.00  0.00     0.002 A 
ATOM      9  C   UNL d   1      14.050  11.779  -1.212  0.00  0.00     0.025 A 
ATOM     10  C   UNL d   1      14.840  12.899  -0.811  0.00  0.00     0.000 A 
ATOM     11  C   UNL d   1      14.526  12.153  -0.654  0.00  0.00     0.002 A 
ATOM     12  C   UNL d   1      15.316  13.272  -0.252  0.00  0.00     0.000 C 
ENDROOT
BRANCH   1  13
ATOM     13  C   UNL d   1      13.399  13.272  -4.088  0.00  0.00     0.216 C 
ATOM     14  O   UNL d   1      13.515  12.866  -4.796  0.00  0.00    -0.644 OA
ATOM     15  O   UNL d   1      13.122  14.046  -4.097  0.00  0.00    -0.644 OA
ENDBRANCH   1  13
TORSDOF 1
ENDMDL
