MODEL 1
REMARK VINA RESULT:      -8.1      0.000      0.000
REMARK  9 active torsions:
REMARK  status: ('A' for Active; 'I' for Inactive)
REMARK    1  A    between atoms: C_9  and  N_1 
REMARK    2  A    between atoms: C_6  and  C_2 
REMARK    3  A    between atoms: S_11  and  C_3 
REMARK    4  A    between atoms: C_7  and  C_6 
REMARK    5  A    between atoms: C_20  and  C_9 
REMARK       I    between atoms: N_10  and  C_12 
REMARK    6  A    between atoms: C_13  and  N_10 
REMARK    7  A    between atoms: C_19  and  S_11 
REMARK    8  A    between atoms: C_12  and  C_19 
REMARK    9  A    between atoms: C_23  and  C_20 
ROOT
ATOM      1  N   UNL d   1      52.521  33.275  53.460  0.00  0.00    -0.268 N 
ATOM      2  C   UNL d   1      53.254  33.586  53.680  0.00  0.00     0.172 A 
ATOM      3  C   UNL d   1      52.041  33.897  53.211  0.00  0.00     0.201 A 
ATOM      4  N   UNL d   1      53.228  34.399  53.568  0.00  0.00    -0.128 NA
ATOM      5  N   UNL d   1      52.482  34.598  53.278  0.00  0.00    -0.121 NA
ENDROOT
BRANCH   3   6
ATOM      6  S   UNL d   1      51.268  33.839  52.944  0.00  0.00    -0.043 SA
BRANCH   6   7
ATOM      7  C   UNL d   1      50.725  34.438  53.109  0.00  0.00     0.101 C 
BRANCH   7   8
ATOM      8  C   UNL d   1      50.061  34.538  52.628  0.00  0.00     0.286 C 
ATOM      9  N   UNL d   1      49.482  35.083  52.848  0.00  0.00    -0.205 NA
ATOM     10  O   UNL d   1      49.976  34.101  51.938  0.00  0.00    -0.265 OA
BRANCH   9  11
ATOM     11  C   UNL d   1      48.829  35.185  52.378  0.00  0.00     0.112 A 
ATOM     12  C   UNL d   1      48.199  35.639  52.656  0.00  0.00     0.158 A 
ATOM     13  F   UNL d   1      48.229  35.990  53.406  0.00  0.00    -0.203 F 
ATOM     14  C   UNL d   1      47.528  35.751  52.191  0.00  0.00     0.031 A 
ATOM     15  C   UNL d   1      47.495  35.400  51.438  0.00  0.00     0.002 A 
ATOM     16  C   UNL d   1      48.128  34.946  51.163  0.00  0.00     0.002 A 
ATOM     17  C   UNL d   1      48.797  34.840  51.640  0.00  0.00     0.021 A 
ENDBRANCH   9  11
ENDBRANCH   7   8
ENDBRANCH   6   7
ENDBRANCH   3   6
BRANCH   1  18
ATOM     18  C   UNL d   1      52.307  32.478  53.485  0.00  0.00     0.084 C 
BRANCH  18  19
ATOM     19  C   UNL d   1      52.539  31.967  52.867  0.00  0.00     0.019 C 
BRANCH  19  20
ATOM     20  C   UNL d   1      52.566  31.148  52.994  0.00  0.00     0.002 A 
ATOM     21  C   UNL d   1      51.945  30.779  53.378  0.00  0.00     0.000 A 
ATOM     22  C   UNL d   1      51.977  29.965  53.502  0.00  0.00     0.000 A 
ATOM     23  C   UNL d   1      52.632  29.531  53.238  0.00  0.00     0.000 A 
ATOM     24  C   UNL d   1      53.257  29.911  52.850  0.00  0.00     0.000 A 
ATOM     25  C   UNL d   1      53.214  30.726  52.732  0.00  0.00     0.000 A 
ENDBRANCH  19  20
ENDBRANCH  18  19
ENDBRANCH   1  18
BRANCH   2  26
ATOM     26  C   UNL d   1      53.900  33.156  53.964  0.00  0.00     0.057 C 
BRANCH  26  27
ATOM     27  C   UNL d   1      54.379  33.469  54.554  0.00  0.00     0.067 A 
ATOM     28  N   UNL d   1      55.196  33.580  54.515  0.00  0.00    -0.303 N 
ATOM     29  C   UNL d   1      55.446  33.909  55.230  0.00  0.00     0.080 A 
ATOM     30  C   UNL d   1      55.675  33.393  53.871  0.00  0.00     0.100 C 
ATOM     31  C   UNL d   1      54.787  34.003  55.714  0.00  0.00     0.021 A 
ATOM     32  C   UNL d   1      54.128  33.734  55.301  0.00  0.00     0.019 A 
ENDBRANCH  26  27
ENDBRANCH   2  26
TORSDOF 9
ENDMDL
MODEL 2
REMARK VINA RESULT:      -7.7      1.128      3.133
REMARK  9 active torsions:
REMARK  status: ('A' for Active; 'I' for Inactive)
REMARK    1  A    between atoms: C_9  and  N_1 
REMARK    2  A    between atoms: C_6  and  C_2 
REMARK    3  A    between atoms: S_11  and  C_3 
REMARK    4  A    between atoms: C_7  and  C_6 
REMARK    5  A    between atoms: C_20  and  C_9 
REMARK       I    between atoms: N_10  and  C_12 
REMARK    6  A    between atoms: C_13  and  N_10 
REMARK    7  A    between atoms: C_19  and  S_11 
REMARK    8  A    between atoms: C_12  and  C_19 
REMARK    9  A    between atoms: C_23  and  C_20 
ROOT
ATOM      1  N   UNL d   1      52.581  32.606  53.384  0.00  0.00    -0.268 N 
ATOM      2  C   UNL d   1      52.707  31.827  53.138  0.00  0.00     0.172 A 
ATOM      3  C   UNL d   1      51.973  32.925  52.928  0.00  0.00     0.201 A 
ATOM      4  N   UNL d   1      52.178  31.664  52.531  0.00  0.00    -0.128 NA
ATOM      5  N   UNL d   1      51.722  32.339  52.396  0.00  0.00    -0.121 NA
ENDROOT
BRANCH   3   6
ATOM      6  S   UNL d   1      51.668  33.684  52.985  0.00  0.00    -0.043 SA
BRANCH   6   7
ATOM      7  C   UNL d   1      51.118  33.953  52.433  0.00  0.00     0.101 C 
BRANCH   7   8
ATOM      8  C   UNL d   1      50.533  34.491  52.662  0.00  0.00     0.286 C 
ATOM      9  N   UNL d   1      49.778  34.428  52.334  0.00  0.00    -0.205 NA
ATOM     10  O   UNL d   1      50.699  35.081  53.208  0.00  0.00    -0.265 OA
BRANCH   9  11
ATOM     11  C   UNL d   1      49.201  34.954  52.556  0.00  0.00     0.112 A 
ATOM     12  C   UNL d   1      48.616  35.162  52.014  0.00  0.00     0.158 A 
ATOM     13  F   UNL d   1      48.613  34.840  51.250  0.00  0.00    -0.203 F 
ATOM     14  C   UNL d   1      48.023  35.694  52.223  0.00  0.00     0.031 A 
ATOM     15  C   UNL d   1      48.023  36.019  52.989  0.00  0.00     0.002 A 
ATOM     16  C   UNL d   1      48.612  35.808  53.530  0.00  0.00     0.002 A 
ATOM     17  C   UNL d   1      49.202  35.272  53.307  0.00  0.00     0.021 A 
ENDBRANCH   9  11
ENDBRANCH   7   8
ENDBRANCH   6   7
ENDBRANCH   3   6
BRANCH   1  18
ATOM     18  C   UNL d   1      52.993  32.995  53.983  0.00  0.00     0.084 C 
BRANCH  18  19
ATOM     19  C   UNL d   1      53.682  33.428  53.799  0.00  0.00     0.019 C 
BRANCH  19  20
ATOM     20  C   UNL d   1      54.218  33.631  54.398  0.00  0.00     0.002 A 
ATOM     21  C   UNL d   1      53.936  33.885  55.123  0.00  0.00     0.000 A 
ATOM     22  C   UNL d   1      54.473  34.086  55.715  0.00  0.00     0.000 A 
ATOM     23  C   UNL d   1      55.287  34.028  55.572  0.00  0.00     0.000 A 
ATOM     24  C   UNL d   1      55.566  33.770  54.837  0.00  0.00     0.000 A 
ATOM     25  C   UNL d   1      55.019  33.573  54.252  0.00  0.00     0.000 A 
ENDBRANCH  19  20
ENDBRANCH  18  19
ENDBRANCH   1  18
BRANCH   2  26
ATOM     26  C   UNL d   1      53.266  31.303  53.448  0.00  0.00     0.057 C 
BRANCH  26  27
ATOM     27  C   UNL d   1      53.154  30.491  53.381  0.00  0.00     0.067 A 
ATOM     28  N   UNL d   1      53.230  29.934  53.987  0.00  0.00    -0.303 N 
ATOM     29  C   UNL d   1      53.067  29.188  53.672  0.00  0.00     0.080 A 
ATOM     30  C   UNL d   1      53.433  30.100  54.768  0.00  0.00     0.100 C 
ATOM     31  C   UNL d   1      52.890  29.279  52.874  0.00  0.00     0.021 A 
ATOM     32  C   UNL d   1      52.942  30.080  52.691  0.00  0.00     0.019 A 
ENDBRANCH  26  27
ENDBRANCH   2  26
TORSDOF 9
ENDMDL
MODEL 3
REMARK VINA RESULT:      -5.4      2.236      5.679
REMARK  9 active torsions:
REMARK  status: ('A' for Active; 'I' for Inactive)
REMARK    1  A    between atoms: C_9  and  N_1 
REMARK    2  A    between atoms: C_6  and  C_2 
REMARK    3  A    between atoms: S_11  and  C_3 
REMARK    4  A    between atoms: C_7  and  C_6 
REMARK    5  A    between atoms: C_20  and  C_9 
REMARK       I    between atoms: N_10  and  C_12 
REMARK    6  A    between atoms: C_13  and  N_10 
REMARK    7  A    between atoms: C_19  and  S_11 
REMARK    8  A    between atoms: C_12  and  C_19 
REMARK    9  A    between atoms: C_23  and  C_20 
ROOT
ATOM      1  N   UNL d   1      52.334  32.907  53.120  0.00  0.00    -0.268 N 
ATOM      2  C   UNL d   1      51.602  33.238  52.926  0.00  0.00     0.172 A 
ATOM      3  C   UNL d   1      52.322  32.111  52.905  0.00  0.00     0.201 A 
ATOM      4  N   UNL d   1      51.138  32.649  52.592  0.00  0.00    -0.128 NA
ATOM      5  N   UNL d   1      51.576  31.950  52.575  0.00  0.00    -0.121 NA
ENDROOT
BRANCH   3   6
ATOM      6  S   UNL d   1      52.933  31.572  52.997  0.00  0.00    -0.043 SA
BRANCH   6   7
ATOM      7  C   UNL d   1      52.804  30.770  52.856  0.00  0.00     0.101 C 
BRANCH   7   8
ATOM      8  C   UNL d   1      53.184  30.203  53.322  0.00  0.00     0.286 C 
ATOM      9  N   UNL d   1      52.747  29.786  53.886  0.00  0.00    -0.205 NA
ATOM     10  O   UNL d   1      53.986  30.054  53.228  0.00  0.00    -0.265 OA
BRANCH   9  11
ATOM     11  C   UNL d   1      53.116  29.229  54.345  0.00  0.00     0.112 A 
ATOM     12  C   UNL d   1      53.017  29.250  55.163  0.00  0.00     0.158 A 
ATOM     13  F   UNL d   1      52.546  29.834  55.516  0.00  0.00    -0.203 F 
ATOM     14  C   UNL d   1      53.385  28.692  55.644  0.00  0.00     0.031 A 
ATOM     15  C   UNL d   1      53.858  28.105  55.292  0.00  0.00     0.002 A 
ATOM     16  C   UNL d   1      53.956  28.086  54.471  0.00  0.00     0.002 A 
ATOM     17  C   UNL d   1      53.580  28.654  53.999  0.00  0.00     0.021 A 
ENDBRANCH   9  11
ENDBRANCH   7   8
ENDBRANCH   6   7
ENDBRANCH   3   6
BRANCH   1  18
ATOM     18  C   UNL d   1      52.966  33.305  53.469  0.00  0.00     0.084 C 
BRANCH  18  19
ATOM     19  C   UNL d   1      53.016  33.357  54.300  0.00  0.00     0.019 C 
BRANCH  19  20
ATOM     20  C   UNL d   1      53.729  33.581  54.661  0.00  0.00     0.002 A 
ATOM     21  C   UNL d   1      54.076  34.294  54.459  0.00  0.00     0.000 A 
ATOM     22  C   UNL d   1      54.784  34.512  54.820  0.00  0.00     0.000 A 
ATOM     23  C   UNL d   1      55.135  34.010  55.379  0.00  0.00     0.000 A 
ATOM     24  C   UNL d   1      54.779  33.291  55.578  0.00  0.00     0.000 A 
ATOM     25  C   UNL d   1      54.070  33.083  55.210  0.00  0.00     0.000 A 
ENDBRANCH  19  20
ENDBRANCH  18  19
ENDBRANCH   1  18
BRANCH   2  26
ATOM     26  C   UNL d   1      51.376  34.024  53.047  0.00  0.00     0.057 C 
BRANCH  26  27
ATOM     27  C   UNL d   1      50.708  34.325  52.672  0.00  0.00     0.067 A 
ATOM     28  N   UNL d   1      50.100  34.756  53.026  0.00  0.00    -0.303 N 
ATOM     29  C   UNL d   1      49.545  34.945  52.444  0.00  0.00     0.080 A 
ATOM     30  C   UNL d   1      50.058  34.961  53.824  0.00  0.00     0.100 C 
ATOM     31  C   UNL d   1      49.807  34.633  51.730  0.00  0.00     0.021 A 
ATOM     32  C   UNL d   1      50.522  34.250  51.866  0.00  0.00     0.019 A 
ENDBRANCH  26  27
ENDBRANCH   2  26
TORSDOF 9
ENDMDL
