MODEL 1
REMARK VINA RESULT:      13.9      0.000      0.000
REMARK  2 active torsions:
REMARK  status: ('A' for Active; 'I' for Inactive)
REMARK    1  A    between atoms: C_6  and  N_1 
REMARK    2  A    between atoms: C_7  and  C_6 
ROOT
ATOM      1  N   UNL d   1     -51.560  25.862  33.350  0.00  0.00    -0.287 N 
ATOM      2  N   UNL d   1     -51.127  27.143  33.358  0.00  0.00    -0.224 NA
ATOM      3  C   UNL d   1     -51.816  26.647  33.364  0.00  0.00     0.183 A 
ATOM      4  C   UNL d   1     -50.752  25.853  33.335  0.00  0.00     0.083 A 
ATOM      5  C   UNL d   1     -50.479  26.662  33.341  0.00  0.00     0.099 A 
ATOM      6  C   UNL d   1     -50.208  25.235  33.318  0.00  0.00     0.019 A 
ATOM      7  C   UNL d   1     -49.652  26.787  33.328  0.00  0.00     0.021 A 
ATOM      8  C   UNL d   1     -49.399  25.396  33.306  0.00  0.00     0.002 A 
ATOM      9  C   UNL d   1     -49.135  26.178  33.311  0.00  0.00     0.002 A 
ENDROOT
BRANCH   1  10
ATOM     10  C   UNL d   1     -51.386  25.090  33.337  0.00  0.00     0.082 C 
BRANCH  10  11
ATOM     11  C   UNL d   1     -52.004  24.545  33.347  0.00  0.00     0.018 A 
ATOM     12  C   UNL d   1     -51.843  23.738  33.398  0.00  0.00     0.002 A 
ATOM     13  C   UNL d   1     -52.463  23.188  33.408  0.00  0.00     0.000 A 
ATOM     14  C   UNL d   1     -53.244  23.450  33.367  0.00  0.00     0.000 A 
ATOM     15  C   UNL d   1     -53.405  24.262  33.315  0.00  0.00     0.000 A 
ATOM     16  C   UNL d   1     -52.785  24.807  33.306  0.00  0.00     0.002 A 
ENDBRANCH  10  11
ENDBRANCH   1  10
TORSDOF 2
ENDMDL
MODEL 2
REMARK VINA RESULT:      16.8      0.727      1.421
REMARK  2 active torsions:
REMARK  status: ('A' for Active; 'I' for Inactive)
REMARK    1  A    between atoms: C_6  and  N_1 
REMARK    2  A    between atoms: C_7  and  C_6 
ROOT
ATOM      1  N   UNL d   1     -51.049  25.353  33.589  0.00  0.00    -0.287 N 
ATOM      2  N   UNL d   1     -49.888  26.046  33.619  0.00  0.00    -0.224 NA
ATOM      3  C   UNL d   1     -50.231  25.271  33.668  0.00  0.00     0.183 A 
ATOM      4  C   UNL d   1     -51.223  26.136  33.494  0.00  0.00     0.083 A 
ATOM      5  C   UNL d   1     -50.489  26.574  33.513  0.00  0.00     0.099 A 
ATOM      6  C   UNL d   1     -51.937  26.533  33.391  0.00  0.00     0.019 A 
ATOM      7  C   UNL d   1     -50.537  27.404  33.424  0.00  0.00     0.021 A 
ATOM      8  C   UNL d   1     -51.945  27.354  33.307  0.00  0.00     0.002 A 
ATOM      9  C   UNL d   1     -51.237  27.777  33.325  0.00  0.00     0.002 A 
ENDROOT
BRANCH   1  10
ATOM     10  C   UNL d   1     -51.837  25.358  33.520  0.00  0.00     0.082 C 
BRANCH  10  11
ATOM     11  C   UNL d   1     -52.233  24.637  33.458  0.00  0.00     0.018 A 
ATOM     12  C   UNL d   1     -51.806  23.936  33.377  0.00  0.00     0.002 A 
ATOM     13  C   UNL d   1     -52.201  23.211  33.315  0.00  0.00     0.000 A 
ATOM     14  C   UNL d   1     -53.026  23.190  33.335  0.00  0.00     0.000 A 
ATOM     15  C   UNL d   1     -53.455  23.895  33.416  0.00  0.00     0.000 A 
ATOM     16  C   UNL d   1     -53.058  24.617  33.478  0.00  0.00     0.002 A 
ENDBRANCH  10  11
ENDBRANCH   1  10
TORSDOF 2
ENDMDL
