MODEL 1
REMARK VINA RESULT:      62.0      0.000      0.000
REMARK  6 active torsions:
REMARK  status: ('A' for Active; 'I' for Inactive)
REMARK    1  A    between atoms: C_16  and  N_1 
REMARK    2  A    between atoms: C_11  and  C_2 
REMARK    3  A    between atoms: S_15  and  C_3 
REMARK    4  A    between atoms: C_8  and  C_11 
REMARK    5  A    between atoms: C_13  and  C_17 
REMARK       I    between atoms: N_14  and  C_13 
REMARK    6  A    between atoms: C_17  and  S_15 
ROOT
ATOM      1  N   UNL d   1     -54.919-100.708 -43.451  0.00  0.00    -0.269 N 
ATOM      2  C   UNL d   1     -54.929 -99.889 -43.368  0.00  0.00     0.172 A 
ATOM      3  C   UNL d   1     -54.805-101.028 -42.713  0.00  0.00     0.201 A 
ATOM      4  N   UNL d   1     -54.821 -99.717 -42.575  0.00  0.00    -0.128 NA
ATOM      5  N   UNL d   1     -54.743-100.430 -42.165  0.00  0.00    -0.121 NA
ENDROOT
BRANCH   2   6
ATOM      6  C   UNL d   1     -55.036 -99.414 -44.020  0.00  0.00     0.059 C 
BRANCH   6   7
ATOM      7  C   UNL d   1     -55.798 -99.196 -44.246  0.00  0.00     0.094 A 
ATOM      8  C   UNL d   1     -56.381 -99.091 -43.676  0.00  0.00     0.082 A 
ATOM      9  C   UNL d   1     -57.145 -98.873 -43.905  0.00  0.00     0.285 A 
ATOM     10  O   UNL d   1     -57.747 -98.763 -43.325  0.00  0.00    -0.265 OA
ATOM     11  N   UNL d   1     -57.311 -98.762 -44.716  0.00  0.00    -0.152 NA
ATOM     12  C   UNL d   1     -56.729 -98.868 -45.279  0.00  0.00     0.371 A 
ATOM     13  N   UNL d   1     -55.962 -99.088 -45.042  0.00  0.00    -0.191 NA
ATOM     14  O   UNL d   1     -56.906 -98.755 -46.079  0.00  0.00    -0.242 OA
ENDBRANCH   6   7
ENDBRANCH   2   6
BRANCH   1  15
ATOM     15  C   UNL d   1     -55.005-101.152 -44.136  0.00  0.00     0.067 A 
ATOM     16  C   UNL d   1     -55.386-101.888 -44.103  0.00  0.00     0.018 A 
ATOM     17  C   UNL d   1     -55.474-102.340 -44.798  0.00  0.00     0.002 A 
ATOM     18  C   UNL d   1     -55.182-102.051 -45.513  0.00  0.00     0.000 A 
ATOM     19  C   UNL d   1     -54.802-101.315 -45.540  0.00  0.00     0.002 A 
ATOM     20  C   UNL d   1     -54.716-100.868 -44.852  0.00  0.00     0.018 A 
ENDBRANCH   1  15
BRANCH   3  21
ATOM     21  S   UNL d   1     -54.759-101.854 -42.548  0.00  0.00    -0.043 SA
BRANCH  21  22
ATOM     22  C   UNL d   1     -54.711-102.112 -41.754  0.00  0.00     0.099 C 
BRANCH  22  23
ATOM     23  C   UNL d   1     -55.393-102.387 -41.373  0.00  0.00     0.271 C 
ATOM     24  N   UNL d   1     -55.382-102.511 -40.553  0.00  0.00    -0.272 N 
ATOM     25  C   UNL d   1     -54.778-102.408 -39.988  0.00  0.00     0.083 A 
ATOM     26  C   UNL d   1     -56.058-102.786 -40.163  0.00  0.00     0.083 A 
ATOM     27  C   UNL d   1     -55.086-102.620 -39.252  0.00  0.00     0.021 A 
ATOM     28  C   UNL d   1     -55.875-102.852 -39.363  0.00  0.00     0.021 A 
ATOM     29  O   UNL d   1     -56.086-102.540 -41.803  0.00  0.00    -0.266 OA
ENDBRANCH  22  23
ENDBRANCH  21  22
ENDBRANCH   3  21
TORSDOF 6
ENDMDL
