MODEL 1
REMARK VINA RESULT:      -9.9      0.000      0.000
REMARK  1 active torsions:
REMARK  status: ('A' for Active; 'I' for Inactive)
REMARK    1  A    between atoms: C_5  and  N_1 
ROOT
ATOM      1  N   UNL d   1      53.410  33.935  54.092  0.00  0.00    -0.226 N 
ATOM      2  C   UNL d   1      53.532  34.473  54.702  0.00  0.00     0.359 A 
ATOM      3  C   UNL d   1      53.956  33.323  53.964  0.00  0.00     0.273 A 
ATOM      4  N   UNL d   1      54.196  34.407  55.189  0.00  0.00    -0.153 NA
ATOM      5  C   UNL d   1      54.742  33.796  55.061  0.00  0.00     0.288 A 
ATOM      6  C   UNL d   1      54.621  33.253  54.448  0.00  0.00     0.124 A 
ATOM      7  O   UNL d   1      52.996  35.081  54.834  0.00  0.00    -0.244 OA
ATOM      8  O   UNL d   1      53.839  32.783  53.357  0.00  0.00    -0.266 OA
ATOM      9  O   UNL d   1      55.404  33.724  55.542  0.00  0.00    -0.265 OA
ENDROOT
BRANCH   1  10
ATOM     10  C   UNL d   1      52.750  34.003  53.611  0.00  0.00     0.072 A 
ATOM     11  C   UNL d   1      52.076  33.534  53.767  0.00  0.00     0.029 A 
ATOM     12  C   UNL d   1      51.416  33.602  53.287  0.00  0.00     0.059 A 
ATOM     13 CL   UNL d   1      50.753  33.136  53.446  0.00  0.00    -0.082 Cl
ATOM     14  C   UNL d   1      51.411  34.126  52.655  0.00  0.00     0.011 A 
ATOM     15  C   UNL d   1      52.081  34.589  52.504  0.00  0.00     0.002 A 
ATOM     16  C   UNL d   1      50.747  34.196  52.170  0.00  0.00     0.001 C 
ATOM     17  C   UNL d   1      52.753  34.524  52.988  0.00  0.00     0.018 A 
ENDBRANCH   1  10
TORSDOF 1
ENDMDL
MODEL 2
REMARK VINA RESULT:      -9.2      2.225      2.753
REMARK  1 active torsions:
REMARK  status: ('A' for Active; 'I' for Inactive)
REMARK    1  A    between atoms: C_5  and  N_1 
ROOT
ATOM      1  N   UNL d   1      54.196  32.508  54.200  0.00  0.00    -0.226 N 
ATOM      2  C   UNL d   1      54.790  32.905  53.790  0.00  0.00     0.359 A 
ATOM      3  C   UNL d   1      54.041  32.697  54.992  0.00  0.00     0.273 A 
ATOM      4  N   UNL d   1      55.232  33.493  54.167  0.00  0.00    -0.153 NA
ATOM      5  C   UNL d   1      55.078  33.682  54.959  0.00  0.00     0.288 A 
ATOM      6  C   UNL d   1      54.480  33.283  55.372  0.00  0.00     0.124 A 
ATOM      7  O   UNL d   1      54.949  32.723  53.006  0.00  0.00    -0.244 OA
ATOM      8  O   UNL d   1      53.450  32.304  55.404  0.00  0.00    -0.266 OA
ATOM      9  O   UNL d   1      55.514  34.265  55.339  0.00  0.00    -0.265 OA
ENDROOT
BRANCH   1  10
ATOM     10  C   UNL d   1      53.759  31.926  53.823  0.00  0.00     0.072 A 
ATOM     11  C   UNL d   1      53.954  31.121  53.943  0.00  0.00     0.029 A 
ATOM     12  C   UNL d   1      53.518  30.539  53.567  0.00  0.00     0.059 A 
ATOM     13 CL   UNL d   1      53.716  29.746  53.689  0.00  0.00    -0.082 Cl
ATOM     14  C   UNL d   1      52.892  30.738  53.075  0.00  0.00     0.011 A 
ATOM     15  C   UNL d   1      52.702  31.536  52.959  0.00  0.00     0.002 A 
ATOM     16  C   UNL d   1      52.451  30.153  52.695  0.00  0.00     0.001 C 
ATOM     17  C   UNL d   1      53.141  32.130  53.338  0.00  0.00     0.018 A 
ENDBRANCH   1  10
TORSDOF 1
ENDMDL
MODEL 3
REMARK VINA RESULT:      -9.1      1.462      2.422
REMARK  1 active torsions:
REMARK  status: ('A' for Active; 'I' for Inactive)
REMARK    1  A    between atoms: C_5  and  N_1 
ROOT
ATOM      1  N   UNL d   1      53.240  33.847  53.996  0.00  0.00    -0.226 N 
ATOM      2  C   UNL d   1      53.407  34.060  54.773  0.00  0.00     0.359 A 
ATOM      3  C   UNL d   1      52.965  34.418  53.461  0.00  0.00     0.273 A 
ATOM      4  N   UNL d   1      53.300  34.840  55.024  0.00  0.00    -0.153 NA
ATOM      5  C   UNL d   1      53.024  35.410  54.489  0.00  0.00     0.288 A 
ATOM      6  C   UNL d   1      52.856  35.198  53.706  0.00  0.00     0.124 A 
ATOM      7  O   UNL d   1      53.680  33.501  55.309  0.00  0.00    -0.244 OA
ATOM      8  O   UNL d   1      52.797  34.211  52.684  0.00  0.00    -0.266 OA
ATOM      9  O   UNL d   1      52.915  36.188  54.731  0.00  0.00    -0.265 OA
ENDROOT
BRANCH   1  10
ATOM     10  C   UNL d   1      53.348  33.073  53.752  0.00  0.00     0.072 A 
ATOM     11  C   UNL d   1      52.680  32.588  53.613  0.00  0.00     0.029 A 
ATOM     12  C   UNL d   1      52.786  31.813  53.369  0.00  0.00     0.059 A 
ATOM     13 CL   UNL d   1      52.124  31.340  53.234  0.00  0.00    -0.082 Cl
ATOM     14  C   UNL d   1      53.541  31.509  53.259  0.00  0.00     0.011 A 
ATOM     15  C   UNL d   1      54.200  31.993  53.397  0.00  0.00     0.002 A 
ATOM     16  C   UNL d   1      53.651  30.730  53.013  0.00  0.00     0.001 C 
ATOM     17  C   UNL d   1      54.097  32.779  53.645  0.00  0.00     0.018 A 
ENDBRANCH   1  10
TORSDOF 1
ENDMDL
MODEL 4
REMARK VINA RESULT:      -8.8      1.763      3.366
REMARK  1 active torsions:
REMARK  status: ('A' for Active; 'I' for Inactive)
REMARK    1  A    between atoms: C_5  and  N_1 
ROOT
ATOM      1  N   UNL d   1      52.257  33.872  53.419  0.00  0.00    -0.226 N 
ATOM      2  C   UNL d   1      52.162  34.551  52.964  0.00  0.00     0.359 A 
ATOM      3  C   UNL d   1      51.652  33.306  53.448  0.00  0.00     0.273 A 
ATOM      4  N   UNL d   1      51.465  34.672  52.537  0.00  0.00    -0.153 NA
ATOM      5  C   UNL d   1      50.860  34.106  52.566  0.00  0.00     0.288 A 
ATOM      6  C   UNL d   1      50.954  33.422  53.023  0.00  0.00     0.124 A 
ATOM      7  O   UNL d   1      52.757  35.116  52.930  0.00  0.00    -0.244 OA
ATOM      8  O   UNL d   1      51.741  32.626  53.900  0.00  0.00    -0.266 OA
ATOM      9  O   UNL d   1      50.165  34.220  52.144  0.00  0.00    -0.265 OA
ENDROOT
BRANCH   1  10
ATOM     10  C   UNL d   1      52.949  33.756  53.841  0.00  0.00     0.072 A 
ATOM     11  C   UNL d   1      53.563  33.295  53.509  0.00  0.00     0.029 A 
ATOM     12  C   UNL d   1      54.255  33.178  53.930  0.00  0.00     0.059 A 
ATOM     13 CL   UNL d   1      54.857  32.722  53.597  0.00  0.00    -0.082 Cl
ATOM     14  C   UNL d   1      54.352  33.509  54.675  0.00  0.00     0.011 A 
ATOM     15  C   UNL d   1      53.741  33.965  55.001  0.00  0.00     0.002 A 
ATOM     16  C   UNL d   1      55.048  33.393  55.102  0.00  0.00     0.001 C 
ATOM     17  C   UNL d   1      53.037  34.086  54.578  0.00  0.00     0.018 A 
ENDBRANCH   1  10
TORSDOF 1
ENDMDL
MODEL 5
REMARK VINA RESULT:      -8.6      2.150      2.842
REMARK  1 active torsions:
REMARK  status: ('A' for Active; 'I' for Inactive)
REMARK    1  A    between atoms: C_5  and  N_1 
ROOT
ATOM      1  N   UNL d   1      53.108  31.640  53.539  0.00  0.00    -0.226 N 
ATOM      2  C   UNL d   1      53.399  31.310  54.235  0.00  0.00     0.359 A 
ATOM      3  C   UNL d   1      52.875  31.149  52.914  0.00  0.00     0.273 A 
ATOM      4  N   UNL d   1      53.460  30.489  54.312  0.00  0.00    -0.153 NA
ATOM      5  C   UNL d   1      53.227  29.998  53.686  0.00  0.00     0.288 A 
ATOM      6  C   UNL d   1      52.934  30.329  52.986  0.00  0.00     0.124 A 
ATOM      7  O   UNL d   1      53.632  31.790  54.859  0.00  0.00    -0.244 OA
ATOM      8  O   UNL d   1      52.584  31.473  52.217  0.00  0.00    -0.266 OA
ATOM      9  O   UNL d   1      53.284  29.181  53.756  0.00  0.00    -0.265 OA
ENDROOT
BRANCH   1  10
ATOM     10  C   UNL d   1      53.050  32.454  53.467  0.00  0.00     0.072 A 
ATOM     11  C   UNL d   1      52.301  32.821  53.535  0.00  0.00     0.029 A 
ATOM     12  C   UNL d   1      52.241  33.635  53.462  0.00  0.00     0.059 A 
ATOM     13 CL   UNL d   1      51.500  33.992  53.530  0.00  0.00    -0.082 Cl
ATOM     14  C   UNL d   1      52.909  34.092  53.323  0.00  0.00     0.011 A 
ATOM     15  C   UNL d   1      53.649  33.725  53.256  0.00  0.00     0.002 A 
ATOM     16  C   UNL d   1      52.851  34.912  53.250  0.00  0.00     0.001 C 
ATOM     17  C   UNL d   1      53.714  32.900  53.329  0.00  0.00     0.018 A 
ENDBRANCH   1  10
TORSDOF 1
ENDMDL
MODEL 6
REMARK VINA RESULT:      -8.4      2.388      3.490
REMARK  1 active torsions:
REMARK  status: ('A' for Active; 'I' for Inactive)
REMARK    1  A    between atoms: C_5  and  N_1 
ROOT
ATOM      1  N   UNL d   1      53.304  31.776  53.620  0.00  0.00    -0.226 N 
ATOM      2  C   UNL d   1      53.007  31.781  52.853  0.00  0.00     0.359 A 
ATOM      3  C   UNL d   1      53.394  31.057  54.024  0.00  0.00     0.273 A 
ATOM      4  N   UNL d   1      52.799  31.072  52.482  0.00  0.00    -0.153 NA
ATOM      5  C   UNL d   1      52.890  30.354  52.887  0.00  0.00     0.288 A 
ATOM      6  C   UNL d   1      53.188  30.347  53.659  0.00  0.00     0.124 A 
ATOM      7  O   UNL d   1      52.915  32.488  52.446  0.00  0.00    -0.244 OA
ATOM      8  O   UNL d   1      53.690  31.047  54.791  0.00  0.00    -0.266 OA
ATOM      9  O   UNL d   1      52.685  29.645  52.525  0.00  0.00    -0.265 OA
ENDROOT
BRANCH   1  10
ATOM     10  C   UNL d   1      53.509  32.481  53.984  0.00  0.00     0.072 A 
ATOM     11  C   UNL d   1      54.317  32.684  54.064  0.00  0.00     0.029 A 
ATOM     12  C   UNL d   1      54.523  33.388  54.428  0.00  0.00     0.059 A 
ATOM     13 CL   UNL d   1      55.322  33.583  54.503  0.00  0.00    -0.082 Cl
ATOM     14  C   UNL d   1      53.944  33.896  54.714  0.00  0.00     0.011 A 
ATOM     15  C   UNL d   1      53.146  33.691  54.633  0.00  0.00     0.002 A 
ATOM     16  C   UNL d   1      54.150  34.606  55.080  0.00  0.00     0.001 C 
ATOM     17  C   UNL d   1      52.931  32.977  54.265  0.00  0.00     0.018 A 
ENDBRANCH   1  10
TORSDOF 1
ENDMDL
