MODEL 1
REMARK VINA RESULT:       7.7      0.000      0.000
REMARK  3 active torsions:
REMARK  status: ('A' for Active; 'I' for Inactive)
REMARK    1  A    between atoms: N_2  and  N_1 
REMARK    2  A    between atoms: C_3  and  N_1 
REMARK    3  A    between atoms: C_4  and  N_2 
ROOT
ATOM      1  N   UNL d   1      13.444  12.500  -2.652  0.00  0.00    -0.148 NA
ENDROOT
BRANCH   1   2
ATOM      2  N   UNL d   1      13.581  11.790  -2.268  0.00  0.00    -0.148 NA
BRANCH   2   3
ATOM      3  C   UNL d   1      13.945  11.806  -1.504  0.00  0.00     0.103 A 
ATOM      4  C   UNL d   1      13.481  11.779  -0.826  0.00  0.00     0.021 A 
ATOM      5  C   UNL d   1      13.833  11.795  -0.080  0.00  0.00     0.002 A 
ATOM      6  C   UNL d   1      14.662  11.839  -0.014  0.00  0.00     0.000 A 
ATOM      7  C   UNL d   1      15.121  11.866  -0.696  0.00  0.00     0.002 A 
ATOM      8  C   UNL d   1      14.775  11.850  -1.438  0.00  0.00     0.021 A 
ENDBRANCH   2   3
ENDBRANCH   1   2
BRANCH   1   9
ATOM      9  C   UNL d   1      13.353  12.489  -3.474  0.00  0.00     0.103 A 
ATOM     10  C   UNL d   1      13.394  11.780  -3.887  0.00  0.00     0.022 A 
ATOM     11  C   UNL d   1      13.300  11.783  -4.714  0.00  0.00     0.022 A 
ATOM     12  C   UNL d   1      13.172  12.464  -5.107  0.00  0.00     0.103 A 
ATOM     13  C   UNL d   1      13.128  13.188  -4.697  0.00  0.00     0.022 A 
ATOM     14  N   UNL d   1      13.080  12.448  -5.938  0.00  0.00    -0.148 N 
ATOM     15  C   UNL d   1      13.219  13.198  -3.882  0.00  0.00     0.022 A 
ENDBRANCH   1   9
TORSDOF 3
ENDMDL
