MODEL 1
REMARK VINA RESULT:      -5.4      0.000      0.000
REMARK  1 active torsions:
REMARK  status: ('A' for Active; 'I' for Inactive)
REMARK    1  A    between atoms: C_6  and  C_3 
ROOT
ATOM      1  N   UNL d   1     -41.485-122.030 -52.658  0.00  0.00    -0.228 NA
ATOM      2  C   UNL d   1     -41.240-122.465 -52.002  0.00  0.00     0.166 A 
ATOM      3  C   UNL d   1     -41.518-122.547 -53.301  0.00  0.00     0.089 A 
ATOM      4  S   UNL d   1     -41.123-123.238 -52.235  0.00  0.00    -0.055 SA
ATOM      5  C   UNL d   1     -41.293-123.301 -53.042  0.00  0.00     0.057 A 
ATOM      6  S   UNL d   1     -41.132-122.163 -51.239  0.00  0.00    -0.050 SA
ENDROOT
BRANCH   3   7
ATOM      7  C   UNL d   1     -41.739-122.347 -54.074  0.00  0.00     0.018 A 
ATOM      8  C   UNL d   1     -41.296-122.624 -54.708  0.00  0.00     0.002 A 
ATOM      9  C   UNL d   1     -41.510-122.429 -55.477  0.00  0.00     0.000 A 
ATOM     10  C   UNL d   1     -42.178-121.949 -55.612  0.00  0.00     0.000 A 
ATOM     11  C   UNL d   1     -42.615-121.678 -54.973  0.00  0.00     0.000 A 
ATOM     12  C   UNL d   1     -42.398-121.875 -54.202  0.00  0.00     0.002 A 
ENDBRANCH   3   7
TORSDOF 1
ENDMDL
MODEL 2
REMARK VINA RESULT:      -5.1      1.446      2.960
REMARK  1 active torsions:
REMARK  status: ('A' for Active; 'I' for Inactive)
REMARK    1  A    between atoms: C_6  and  C_3 
ROOT
ATOM      1  N   UNL d   1     -41.913-122.120 -53.766  0.00  0.00    -0.228 NA
ATOM      2  C   UNL d   1     -41.882-122.345 -54.559  0.00  0.00     0.166 A 
ATOM      3  C   UNL d   1     -41.476-122.670 -53.334  0.00  0.00     0.089 A 
ATOM      4  S   UNL d   1     -41.433-123.024 -54.616  0.00  0.00    -0.055 SA
ATOM      5  C   UNL d   1     -41.175-123.236 -53.859  0.00  0.00     0.057 A 
ATOM      6  S   UNL d   1     -42.246-121.946 -55.185  0.00  0.00    -0.050 SA
ENDROOT
BRANCH   3   7
ATOM      7  C   UNL d   1     -41.358-122.660 -52.514  0.00  0.00     0.018 A 
ATOM      8  C   UNL d   1     -41.241-123.365 -52.111  0.00  0.00     0.002 A 
ATOM      9  C   UNL d   1     -41.123-123.362 -51.297  0.00  0.00     0.000 A 
ATOM     10  C   UNL d   1     -41.123-122.639 -50.882  0.00  0.00     0.000 A 
ATOM     11  C   UNL d   1     -41.240-121.940 -51.293  0.00  0.00     0.000 A 
ATOM     12  C   UNL d   1     -41.359-121.946 -52.109  0.00  0.00     0.002 A 
ENDBRANCH   3   7
TORSDOF 1
ENDMDL
MODEL 3
REMARK VINA RESULT:      -4.3      2.174      4.165
REMARK  1 active torsions:
REMARK  status: ('A' for Active; 'I' for Inactive)
REMARK    1  A    between atoms: C_6  and  C_3 
ROOT
ATOM      1  N   UNL d   1     -41.591-123.111 -51.576  0.00  0.00    -0.228 NA
ATOM      2  C   UNL d   1     -41.285-122.691 -52.216  0.00  0.00     0.166 A 
ATOM      3  C   UNL d   1     -41.616-122.597 -50.931  0.00  0.00     0.089 A 
ATOM      4  S   UNL d   1     -41.123-121.930 -51.971  0.00  0.00    -0.055 SA
ATOM      5  C   UNL d   1     -41.325-121.859 -51.172  0.00  0.00     0.057 A 
ATOM      6  S   UNL d   1     -41.164-122.996 -52.976  0.00  0.00    -0.050 SA
ENDROOT
BRANCH   3   7
ATOM      7  C   UNL d   1     -41.886-122.785 -50.170  0.00  0.00     0.018 A 
ATOM      8  C   UNL d   1     -41.377-123.142 -49.634  0.00  0.00     0.002 A 
ATOM      9  C   UNL d   1     -41.639-123.331 -48.879  0.00  0.00     0.000 A 
ATOM     10  C   UNL d   1     -42.423-123.157 -48.657  0.00  0.00     0.000 A 
ATOM     11  C   UNL d   1     -42.925-122.800 -49.198  0.00  0.00     0.000 A 
ATOM     12  C   UNL d   1     -42.660-122.612 -49.957  0.00  0.00     0.002 A 
ENDBRANCH   3   7
TORSDOF 1
ENDMDL
MODEL 4
REMARK VINA RESULT:      -4.0      2.018      2.762
REMARK  1 active torsions:
REMARK  status: ('A' for Active; 'I' for Inactive)
REMARK    1  A    between atoms: C_6  and  C_3 
ROOT
ATOM      1  N   UNL d   1     -42.328-122.871 -50.394  0.00  0.00    -0.228 NA
ATOM      2  C   UNL d   1     -42.273-123.057 -49.593  0.00  0.00     0.166 A 
ATOM      3  C   UNL d   1     -41.652-123.162 -50.765  0.00  0.00     0.089 A 
ATOM      4  S   UNL d   1     -41.572-123.458 -49.470  0.00  0.00    -0.055 SA
ATOM      5  C   UNL d   1     -41.177-123.529 -50.194  0.00  0.00     0.057 A 
ATOM      6  S   UNL d   1     -42.834-122.868 -49.016  0.00  0.00    -0.050 SA
ENDROOT
BRANCH   3   7
ATOM      7  C   UNL d   1     -41.475-123.100 -51.572  0.00  0.00     0.018 A 
ATOM      8  C   UNL d   1     -41.458-123.774 -52.039  0.00  0.00     0.002 A 
ATOM      9  C   UNL d   1     -41.283-123.718 -52.840  0.00  0.00     0.000 A 
ATOM     10  C   UNL d   1     -41.123-122.974 -53.178  0.00  0.00     0.000 A 
ATOM     11  C   UNL d   1     -41.141-122.305 -52.704  0.00  0.00     0.000 A 
ATOM     12  C   UNL d   1     -41.317-122.363 -51.900  0.00  0.00     0.002 A 
ENDBRANCH   3   7
TORSDOF 1
ENDMDL
