MODEL 1
REMARK VINA RESULT:      -8.8      0.000      0.000
REMARK  5 active torsions:
REMARK  status: ('A' for Active; 'I' for Inactive)
REMARK    1  A    between atoms: C_6  and  C_1 
REMARK    2  A    between atoms: N_7  and  C_2 
REMARK    3  A    between atoms: O_11  and  C_6 
REMARK       I    between atoms: C_8  and  N_7 
REMARK    4  A    between atoms: C_14  and  C_8 
REMARK    5  A    between atoms: C_15  and  O_11 
ROOT
ATOM      1  C   UNL d   1      52.964  32.165  53.217  0.00  0.00     0.162 A 
ATOM      2  C   UNL d   1      53.262  32.914  53.394  0.00  0.00     0.109 A 
ATOM      3  N   UNL d   1      52.183  32.249  52.973  0.00  0.00    -0.239 NA
ATOM      4  C   UNL d   1      52.663  33.460  53.258  0.00  0.00     0.037 A 
ATOM      5  C   UNL d   1      51.995  33.055  52.999  0.00  0.00     0.083 A 
ATOM      6  C   UNL d   1      52.644  34.283  53.340  0.00  0.00     0.003 A 
ATOM      7  C   UNL d   1      51.302  33.467  52.818  0.00  0.00     0.019 A 
ATOM      8  C   UNL d   1      51.951  34.695  53.159  0.00  0.00     0.000 A 
ATOM      9  C   UNL d   1      51.286  34.287  52.900  0.00  0.00     0.002 A 
ENDROOT
BRANCH   1  10
ATOM     10  C   UNL d   1      53.383  31.456  53.277  0.00  0.00     0.320 C 
ATOM     11  O   UNL d   1      54.092  31.359  52.870  0.00  0.00    -0.257 OA
BRANCH  10  12
ATOM     12  O   UNL d   1      53.098  30.838  53.743  0.00  0.00    -0.270 OA
BRANCH  12  13
ATOM     13  C   UNL d   1      53.347  30.067  53.589  0.00  0.00     0.126 C 
ATOM     14  C   UNL d   1      53.219  29.483  54.147  0.00  0.00     0.029 C 
ENDBRANCH  12  13
ENDBRANCH  10  12
ENDBRANCH   1  10
BRANCH   2  15
ATOM     15  N   UNL d   1      54.027  33.085  53.660  0.00  0.00    -0.206 NA
ATOM     16  C   UNL d   1      54.156  33.240  54.470  0.00  0.00     0.279 C 
ATOM     17  O   UNL d   1      53.518  33.221  54.998  0.00  0.00    -0.265 OA
BRANCH  16  18
ATOM     18  C   UNL d   1      54.918  33.409  54.732  0.00  0.00     0.062 C 
ATOM     19  C   UNL d   1      55.031  33.688  55.504  0.00  0.00     0.005 C 
ENDBRANCH  16  18
ENDBRANCH   2  15
TORSDOF 5
ENDMDL
MODEL 2
REMARK VINA RESULT:      -8.8      1.108      2.931
REMARK  5 active torsions:
REMARK  status: ('A' for Active; 'I' for Inactive)
REMARK    1  A    between atoms: C_6  and  C_1 
REMARK    2  A    between atoms: N_7  and  C_2 
REMARK    3  A    between atoms: O_11  and  C_6 
REMARK       I    between atoms: C_8  and  N_7 
REMARK    4  A    between atoms: C_14  and  C_8 
REMARK    5  A    between atoms: C_15  and  O_11 
ROOT
ATOM      1  C   UNL d   1      52.622  32.549  53.071  0.00  0.00     0.162 A 
ATOM      2  C   UNL d   1      53.047  32.276  53.724  0.00  0.00     0.109 A 
ATOM      3  N   UNL d   1      52.484  31.912  52.569  0.00  0.00    -0.239 NA
ATOM      4  C   UNL d   1      53.170  31.470  53.624  0.00  0.00     0.037 A 
ATOM      5  C   UNL d   1      52.825  31.240  52.912  0.00  0.00     0.083 A 
ATOM      6  C   UNL d   1      53.558  30.913  54.096  0.00  0.00     0.003 A 
ATOM      7  C   UNL d   1      52.863  30.452  52.667  0.00  0.00     0.019 A 
ATOM      8  C   UNL d   1      53.596  30.125  53.851  0.00  0.00     0.000 A 
ATOM      9  C   UNL d   1      53.250  29.899  53.140  0.00  0.00     0.002 A 
ENDROOT
BRANCH   1  10
ATOM     10  C   UNL d   1      52.380  33.329  52.948  0.00  0.00     0.320 C 
ATOM     11  O   UNL d   1      52.878  33.859  52.563  0.00  0.00    -0.257 OA
BRANCH  10  12
ATOM     12  O   UNL d   1      51.640  33.584  53.207  0.00  0.00    -0.270 OA
BRANCH  12  13
ATOM     13  C   UNL d   1      51.287  34.234  52.843  0.00  0.00     0.126 C 
ATOM     14  C   UNL d   1      50.493  34.387  52.974  0.00  0.00     0.029 C 
ENDBRANCH  12  13
ENDBRANCH  10  12
ENDBRANCH   1  10
BRANCH   2  15
ATOM     15  N   UNL d   1      53.303  32.733  54.365  0.00  0.00    -0.206 NA
ATOM     16  C   UNL d   1      54.103  32.967  54.409  0.00  0.00     0.279 C 
ATOM     17  O   UNL d   1      54.631  32.740  53.813  0.00  0.00    -0.265 OA
BRANCH  16  18
ATOM     18  C   UNL d   1      54.355  33.422  55.048  0.00  0.00     0.062 C 
ATOM     19  C   UNL d   1      55.143  33.675  55.083  0.00  0.00     0.005 C 
ENDBRANCH  16  18
ENDBRANCH   2  15
TORSDOF 5
ENDMDL
MODEL 3
REMARK VINA RESULT:      -8.5      1.025      3.247
REMARK  5 active torsions:
REMARK  status: ('A' for Active; 'I' for Inactive)
REMARK    1  A    between atoms: C_6  and  C_1 
REMARK    2  A    between atoms: N_7  and  C_2 
REMARK    3  A    between atoms: O_11  and  C_6 
REMARK       I    between atoms: C_8  and  N_7 
REMARK    4  A    between atoms: C_14  and  C_8 
REMARK    5  A    between atoms: C_15  and  O_11 
ROOT
ATOM      1  C   UNL d   1      53.977  32.081  53.696  0.00  0.00     0.162 A 
ATOM      2  C   UNL d   1      53.334  32.012  53.184  0.00  0.00     0.109 A 
ATOM      3  N   UNL d   1      54.127  31.341  54.023  0.00  0.00    -0.239 NA
ATOM      4  C   UNL d   1      53.087  31.229  53.196  0.00  0.00     0.037 A 
ATOM      5  C   UNL d   1      53.573  30.810  53.712  0.00  0.00     0.083 A 
ATOM      6  C   UNL d   1      52.474  30.842  52.797  0.00  0.00     0.003 A 
ATOM      7  C   UNL d   1      53.452  30.002  53.834  0.00  0.00     0.019 A 
ATOM      8  C   UNL d   1      52.353  30.034  52.919  0.00  0.00     0.000 A 
ATOM      9  C   UNL d   1      52.841  29.619  53.435  0.00  0.00     0.002 A 
ENDROOT
BRANCH   1  10
ATOM     10  C   UNL d   1      54.396  32.776  53.850  0.00  0.00     0.320 C 
ATOM     11  O   UNL d   1      54.827  33.139  53.251  0.00  0.00    -0.257 OA
BRANCH  10  12
ATOM     12  O   UNL d   1      54.386  33.113  54.603  0.00  0.00    -0.270 OA
BRANCH  12  13
ATOM     13  C   UNL d   1      55.002  33.612  54.829  0.00  0.00     0.126 C 
ATOM     14  C   UNL d   1      55.002  33.938  55.581  0.00  0.00     0.029 C 
ENDBRANCH  12  13
ENDBRANCH  10  12
ENDBRANCH   1  10
BRANCH   2  15
ATOM     15  N   UNL d   1      52.998  32.623  52.739  0.00  0.00    -0.206 NA
ATOM     16  C   UNL d   1      52.289  32.980  52.999  0.00  0.00     0.279 C 
ATOM     17  O   UNL d   1      51.931  32.720  53.699  0.00  0.00    -0.265 OA
BRANCH  16  18
ATOM     18  C   UNL d   1      51.957  33.589  52.554  0.00  0.00     0.062 C 
ATOM     19  C   UNL d   1      51.330  34.030  52.870  0.00  0.00     0.005 C 
ENDBRANCH  16  18
ENDBRANCH   2  15
TORSDOF 5
ENDMDL
MODEL 4
REMARK VINA RESULT:      -8.5      0.935      2.474
REMARK  5 active torsions:
REMARK  status: ('A' for Active; 'I' for Inactive)
REMARK    1  A    between atoms: C_6  and  C_1 
REMARK    2  A    between atoms: N_7  and  C_2 
REMARK    3  A    between atoms: O_11  and  C_6 
REMARK       I    between atoms: C_8  and  N_7 
REMARK    4  A    between atoms: C_14  and  C_8 
REMARK    5  A    between atoms: C_15  and  O_11 
ROOT
ATOM      1  C   UNL d   1      53.336  32.163  53.552  0.00  0.00     0.162 A 
ATOM      2  C   UNL d   1      53.165  32.968  53.488  0.00  0.00     0.109 A 
ATOM      3  N   UNL d   1      53.864  32.062  54.175  0.00  0.00    -0.239 NA
ATOM      4  C   UNL d   1      53.587  33.362  54.071  0.00  0.00     0.037 A 
ATOM      5  C   UNL d   1      54.021  32.807  54.499  0.00  0.00     0.083 A 
ATOM      6  C   UNL d   1      53.631  34.164  54.268  0.00  0.00     0.003 A 
ATOM      7  C   UNL d   1      54.502  33.048  55.126  0.00  0.00     0.019 A 
ATOM      8  C   UNL d   1      54.112  34.405  54.895  0.00  0.00     0.000 A 
ATOM      9  C   UNL d   1      54.544  33.849  55.320  0.00  0.00     0.002 A 
ENDROOT
BRANCH   1  10
ATOM     10  C   UNL d   1      53.028  31.567  53.071  0.00  0.00     0.320 C 
ATOM     11  O   UNL d   1      53.061  31.639  52.252  0.00  0.00    -0.257 OA
BRANCH  10  12
ATOM     12  O   UNL d   1      52.686  30.894  53.404  0.00  0.00    -0.270 OA
BRANCH  12  13
ATOM     13  C   UNL d   1      52.700  30.185  52.985  0.00  0.00     0.126 C 
ATOM     14  C   UNL d   1      52.517  29.485  53.370  0.00  0.00     0.029 C 
ENDBRANCH  12  13
ENDBRANCH  10  12
ENDBRANCH   1  10
BRANCH   2  15
ATOM     15  N   UNL d   1      52.657  33.315  52.933  0.00  0.00    -0.206 NA
ATOM     16  C   UNL d   1      51.890  33.549  53.168  0.00  0.00     0.279 C 
ATOM     17  O   UNL d   1      51.647  33.431  53.950  0.00  0.00    -0.265 OA
BRANCH  16  18
ATOM     18  C   UNL d   1      51.387  33.894  52.614  0.00  0.00     0.062 C 
ATOM     19  C   UNL d   1      50.628  34.131  52.846  0.00  0.00     0.005 C 
ENDBRANCH  16  18
ENDBRANCH   2  15
TORSDOF 5
ENDMDL
MODEL 5
REMARK VINA RESULT:      -8.3      1.261      3.277
REMARK  5 active torsions:
REMARK  status: ('A' for Active; 'I' for Inactive)
REMARK    1  A    between atoms: C_6  and  C_1 
REMARK    2  A    between atoms: N_7  and  C_2 
REMARK    3  A    between atoms: O_11  and  C_6 
REMARK       I    between atoms: C_8  and  N_7 
REMARK    4  A    between atoms: C_14  and  C_8 
REMARK    5  A    between atoms: C_15  and  O_11 
ROOT
ATOM      1  C   UNL d   1      52.423  33.438  53.632  0.00  0.00     0.162 A 
ATOM      2  C   UNL d   1      53.049  32.920  53.483  0.00  0.00     0.109 A 
ATOM      3  N   UNL d   1      52.667  33.978  54.203  0.00  0.00    -0.239 NA
ATOM      4  C   UNL d   1      53.677  33.141  53.963  0.00  0.00     0.037 A 
ATOM      5  C   UNL d   1      53.447  33.793  54.410  0.00  0.00     0.083 A 
ATOM      6  C   UNL d   1      54.437  32.826  54.049  0.00  0.00     0.003 A 
ATOM      7  C   UNL d   1      53.973  34.137  54.947  0.00  0.00     0.019 A 
ATOM      8  C   UNL d   1      54.963  33.170  54.586  0.00  0.00     0.000 A 
ATOM      9  C   UNL d   1      54.730  33.821  55.031  0.00  0.00     0.002 A 
ENDROOT
BRANCH   1  10
ATOM     10  C   UNL d   1      51.683  33.414  53.267  0.00  0.00     0.320 C 
ATOM     11  O   UNL d   1      51.059  33.014  53.625  0.00  0.00    -0.257 OA
BRANCH  10  12
ATOM     12  O   UNL d   1      51.560  33.789  52.543  0.00  0.00    -0.270 OA
BRANCH  12  13
ATOM     13  C   UNL d   1      50.802  34.045  52.345  0.00  0.00     0.126 C 
ATOM     14  C   UNL d   1      50.658  34.335  51.592  0.00  0.00     0.029 C 
ENDBRANCH  12  13
ENDBRANCH  10  12
ENDBRANCH   1  10
BRANCH   2  15
ATOM     15  N   UNL d   1      53.043  32.291  52.945  0.00  0.00    -0.206 NA
ATOM     16  C   UNL d   1      52.985  31.508  53.230  0.00  0.00     0.279 C 
ATOM     17  O   UNL d   1      52.935  31.370  54.045  0.00  0.00    -0.265 OA
BRANCH  16  18
ATOM     18  C   UNL d   1      52.979  30.883  52.693  0.00  0.00     0.062 C 
ATOM     19  C   UNL d   1      52.931  30.105  52.973  0.00  0.00     0.005 C 
ENDBRANCH  16  18
ENDBRANCH   2  15
TORSDOF 5
ENDMDL
MODEL 6
REMARK VINA RESULT:      -8.2      0.889      2.616
REMARK  5 active torsions:
REMARK  status: ('A' for Active; 'I' for Inactive)
REMARK    1  A    between atoms: C_6  and  C_1 
REMARK    2  A    between atoms: N_7  and  C_2 
REMARK    3  A    between atoms: O_11  and  C_6 
REMARK       I    between atoms: C_8  and  N_7 
REMARK    4  A    between atoms: C_14  and  C_8 
REMARK    5  A    between atoms: C_15  and  O_11 
ROOT
ATOM      1  C   UNL d   1      53.297  33.421  53.561  0.00  0.00     0.162 A 
ATOM      2  C   UNL d   1      52.685  32.868  53.539  0.00  0.00     0.109 A 
ATOM      3  N   UNL d   1      52.998  34.145  53.308  0.00  0.00    -0.239 NA
ATOM      4  C   UNL d   1      52.009  33.251  53.273  0.00  0.00     0.037 A 
ATOM      5  C   UNL d   1      52.196  34.040  53.129  0.00  0.00     0.083 A 
ATOM      6  C   UNL d   1      51.240  32.977  53.143  0.00  0.00     0.003 A 
ATOM      7  C   UNL d   1      51.618  34.562  52.853  0.00  0.00     0.019 A 
ATOM      8  C   UNL d   1      50.661  33.499  52.868  0.00  0.00     0.000 A 
ATOM      9  C   UNL d   1      50.852  34.286  52.725  0.00  0.00     0.002 A 
ENDROOT
BRANCH   1  10
ATOM     10  C   UNL d   1      54.073  33.269  53.797  0.00  0.00     0.320 C 
ATOM     11  O   UNL d   1      54.642  33.067  53.237  0.00  0.00    -0.257 OA
BRANCH  10  12
ATOM     12  O   UNL d   1      54.287  33.318  54.592  0.00  0.00    -0.270 OA
BRANCH  12  13
ATOM     13  C   UNL d   1      55.055  33.543  54.790  0.00  0.00     0.126 C 
ATOM     14  C   UNL d   1      55.231  33.737  55.566  0.00  0.00     0.029 C 
ENDBRANCH  12  13
ENDBRANCH  10  12
ENDBRANCH   1  10
BRANCH   2  15
ATOM     15  N   UNL d   1      52.742  32.069  53.749  0.00  0.00    -0.206 NA
ATOM     16  C   UNL d   1      52.807  31.491  53.150  0.00  0.00     0.279 C 
ATOM     17  O   UNL d   1      52.812  31.722  52.355  0.00  0.00    -0.265 OA
BRANCH  16  18
ATOM     18  C   UNL d   1      52.864  30.696  53.361  0.00  0.00     0.062 C 
ATOM     19  C   UNL d   1      52.889  30.118  52.769  0.00  0.00     0.005 C 
ENDBRANCH  16  18
ENDBRANCH   2  15
TORSDOF 5
ENDMDL
