MODEL 1
REMARK VINA RESULT:     -10.0      0.000      0.000
REMARK  1 active torsions:
REMARK  status: ('A' for Active; 'I' for Inactive)
REMARK       I    between atoms: C_2  and  N_1 
REMARK    1  A    between atoms: C_4  and  C_2 
ROOT
ATOM      1  N   UNL d   1      53.263  32.708  53.771  0.00  0.00    -0.272 N 
ATOM      2  C   UNL d   1      53.011  32.175  53.190  0.00  0.00     0.287 C 
ATOM      3  C   UNL d   1      53.143  33.525  53.774  0.00  0.00     0.067 A 
ATOM      4  C   UNL d   1      53.675  32.499  54.435  0.00  0.00     0.083 A 
ATOM      5  O   UNL d   1      52.593  32.452  52.533  0.00  0.00    -0.264 OA
ATOM      6  C   UNL d   1      53.484  33.832  54.451  0.00  0.00     0.018 A 
ATOM      7  C   UNL d   1      53.818  33.200  54.869  0.00  0.00     0.021 A 
ATOM      8  C   UNL d   1      52.768  34.026  53.251  0.00  0.00     0.018 A 
ATOM      9  C   UNL d   1      53.456  34.640  54.614  0.00  0.00     0.002 A 
ATOM     10  C   UNL d   1      52.731  34.837  53.400  0.00  0.00     0.002 A 
ATOM     11  C   UNL d   1      53.076  35.142  54.082  0.00  0.00     0.000 A 
ENDROOT
BRANCH   2  12
ATOM     12  C   UNL d   1      53.176  31.367  53.266  0.00  0.00     0.156 A 
ATOM     13  O   UNL d   1      53.838  30.950  53.540  0.00  0.00    -0.300 OA
ATOM     14  C   UNL d   1      53.676  30.151  53.483  0.00  0.00     0.123 A 
ATOM     15  C   UNL d   1      52.924  30.058  53.178  0.00  0.00     0.029 A 
ATOM     16  C   UNL d   1      52.608  30.805  53.041  0.00  0.00     0.032 A 
ENDBRANCH   2  12
TORSDOF 1
ENDMDL
MODEL 2
REMARK VINA RESULT:      -9.6      1.627      2.947
REMARK  1 active torsions:
REMARK  status: ('A' for Active; 'I' for Inactive)
REMARK       I    between atoms: C_2  and  N_1 
REMARK    1  A    between atoms: C_4  and  C_2 
ROOT
ATOM      1  N   UNL d   1      52.719  33.638  53.557  0.00  0.00    -0.272 N 
ATOM      2  C   UNL d   1      52.249  34.304  53.415  0.00  0.00     0.287 C 
ATOM      3  C   UNL d   1      53.351  33.586  54.087  0.00  0.00     0.067 A 
ATOM      4  C   UNL d   1      52.626  32.925  53.187  0.00  0.00     0.083 A 
ATOM      5  O   UNL d   1      52.395  35.005  53.827  0.00  0.00    -0.264 OA
ATOM      6  C   UNL d   1      53.657  32.828  54.048  0.00  0.00     0.018 A 
ATOM      7  C   UNL d   1      53.211  32.409  53.490  0.00  0.00     0.021 A 
ATOM      8  C   UNL d   1      53.684  34.128  54.597  0.00  0.00     0.018 A 
ATOM      9  C   UNL d   1      54.297  32.603  54.516  0.00  0.00     0.002 A 
ATOM     10  C   UNL d   1      54.325  33.917  55.072  0.00  0.00     0.002 A 
ATOM     11  C   UNL d   1      54.630  33.155  55.029  0.00  0.00     0.000 A 
ENDROOT
BRANCH   2  12
ATOM     12  C   UNL d   1      51.632  34.268  52.863  0.00  0.00     0.156 A 
ATOM     13  O   UNL d   1      51.616  34.154  52.042  0.00  0.00    -0.300 OA
ATOM     14  C   UNL d   1      50.836  34.173  51.798  0.00  0.00     0.123 A 
ATOM     15  C   UNL d   1      50.362  34.297  52.451  0.00  0.00     0.029 A 
ATOM     16  C   UNL d   1      50.846  34.357  53.113  0.00  0.00     0.032 A 
ENDBRANCH   2  12
TORSDOF 1
ENDMDL
MODEL 3
REMARK VINA RESULT:      -9.3      0.933      3.268
REMARK  1 active torsions:
REMARK  status: ('A' for Active; 'I' for Inactive)
REMARK       I    between atoms: C_2  and  N_1 
REMARK    1  A    between atoms: C_4  and  C_2 
ROOT
ATOM      1  N   UNL d   1      53.104  32.629  53.686  0.00  0.00    -0.272 N 
ATOM      2  C   UNL d   1      52.585  33.247  53.504  0.00  0.00     0.287 C 
ATOM      3  C   UNL d   1      53.041  31.843  53.437  0.00  0.00     0.067 A 
ATOM      4  C   UNL d   1      53.765  32.707  54.145  0.00  0.00     0.083 A 
ATOM      5  O   UNL d   1      51.926  33.102  53.028  0.00  0.00    -0.264 OA
ATOM      6  C   UNL d   1      53.671  31.424  53.746  0.00  0.00     0.018 A 
ATOM      7  C   UNL d   1      54.129  31.954  54.189  0.00  0.00     0.021 A 
ATOM      8  C   UNL d   1      52.492  31.458  52.972  0.00  0.00     0.018 A 
ATOM      9  C   UNL d   1      53.762  30.618  53.594  0.00  0.00     0.002 A 
ATOM     10  C   UNL d   1      52.570  30.653  52.811  0.00  0.00     0.002 A 
ATOM     11  C   UNL d   1      53.206  30.235  53.124  0.00  0.00     0.000 A 
ENDROOT
BRANCH   2  12
ATOM     12  C   UNL d   1      52.726  34.008  53.797  0.00  0.00     0.156 A 
ATOM     13  O   UNL d   1      52.875  34.301  54.558  0.00  0.00    -0.300 OA
ATOM     14  C   UNL d   1      52.970  35.111  54.504  0.00  0.00     0.123 A 
ATOM     15  C   UNL d   1      52.884  35.333  53.724  0.00  0.00     0.029 A 
ATOM     16  C   UNL d   1      52.732  34.657  53.279  0.00  0.00     0.032 A 
ENDBRANCH   2  12
TORSDOF 1
ENDMDL
MODEL 4
REMARK VINA RESULT:      -8.8      1.643      2.692
REMARK  1 active torsions:
REMARK  status: ('A' for Active; 'I' for Inactive)
REMARK       I    between atoms: C_2  and  N_1 
REMARK    1  A    between atoms: C_4  and  C_2 
ROOT
ATOM      1  N   UNL d   1      52.842  33.771  53.830  0.00  0.00    -0.272 N 
ATOM      2  C   UNL d   1      53.305  33.165  54.150  0.00  0.00     0.287 C 
ATOM      3  C   UNL d   1      52.098  33.690  53.478  0.00  0.00     0.067 A 
ATOM      4  C   UNL d   1      53.056  34.551  53.815  0.00  0.00     0.083 A 
ATOM      5  O   UNL d   1      53.028  32.386  54.135  0.00  0.00    -0.264 OA
ATOM      6  C   UNL d   1      51.845  34.430  53.240  0.00  0.00     0.018 A 
ATOM      7  C   UNL d   1      52.435  34.973  53.445  0.00  0.00     0.021 A 
ATOM      8  C   UNL d   1      51.624  33.040  53.345  0.00  0.00     0.018 A 
ATOM      9  C   UNL d   1      51.116  34.530  52.867  0.00  0.00     0.002 A 
ATOM     10  C   UNL d   1      50.892  33.125  52.974  0.00  0.00     0.002 A 
ATOM     11  C   UNL d   1      50.640  33.870  52.735  0.00  0.00     0.000 A 
ENDROOT
BRANCH   2  12
ATOM     12  C   UNL d   1      54.042  33.337  54.486  0.00  0.00     0.156 A 
ATOM     13  O   UNL d   1      54.753  33.621  54.169  0.00  0.00    -0.300 OA
ATOM     14  C   UNL d   1      55.296  33.681  54.777  0.00  0.00     0.123 A 
ATOM     15  C   UNL d   1      54.940  33.440  55.470  0.00  0.00     0.029 A 
ATOM     16  C   UNL d   1      54.164  33.226  55.299  0.00  0.00     0.032 A 
ENDBRANCH   2  12
TORSDOF 1
ENDMDL
