MODEL 1
REMARK VINA RESULT:      -7.5      0.000      0.000
REMARK  7 active torsions:
REMARK  status: ('A' for Active; 'I' for Inactive)
REMARK    1  A    between atoms: C_12  and  N_1 
REMARK    2  A    between atoms: C_2  and  N_6 
REMARK    3  A    between atoms: C_9  and  C_5 
REMARK       I    between atoms: N_6  and  C_9 
REMARK    4  A    between atoms: S_15  and  C_7 
REMARK    5  A    between atoms: C_14  and  C_20 
REMARK       I    between atoms: N_21  and  C_14 
REMARK    6  A    between atoms: C_20  and  S_15 
REMARK    7  A    between atoms: O_22  and  C_18 
ROOT
ATOM      1  N   UNL d   1     -47.702  13.262  22.479  0.00  0.00    -0.271 N 
ATOM      2  C   UNL d   1     -47.486  13.884  22.878  0.00  0.00     0.265 A 
ATOM      3  C   UNL d   1     -46.455  13.231  22.595  0.00  0.00     0.080 A 
ATOM      4  C   UNL d   1     -47.065  12.856  22.303  0.00  0.00     0.088 A 
ATOM      5  C   UNL d   1     -46.710  13.871  22.954  0.00  0.00     0.067 A 
ATOM      6  O   UNL d   1     -47.961  14.436  23.159  0.00  0.00    -0.267 OA
ENDROOT
BRANCH   3   7
ATOM      7  C   UNL d   1     -45.713  13.014  22.544  0.00  0.00     0.283 C 
ATOM      8  N   UNL d   1     -45.322  13.124  21.882  0.00  0.00    -0.181 NA
ATOM      9  O   UNL d   1     -45.360  12.687  23.155  0.00  0.00    -0.265 OA
BRANCH   8  10
ATOM     10  C   UNL d   1     -44.580  12.909  21.826  0.00  0.00     0.219 A 
ATOM     11  S   UNL d   1     -44.019  13.288  21.445  0.00  0.00    -0.019 SA
ATOM     12  C   UNL d   1     -43.366  12.893  21.525  0.00  0.00     0.165 A 
ATOM     13  N   UNL d   1     -43.504  12.261  21.956  0.00  0.00    -0.133 NA
ATOM     14  N   UNL d   1     -44.268  12.271  22.145  0.00  0.00    -0.120 NA
BRANCH  12  15
ATOM     15  S   UNL d   1     -41.976  13.539  20.765  0.00  0.00    -0.054 SA
BRANCH  15  16
ATOM     16  C   UNL d   1     -41.578  14.189  21.103  0.00  0.00     0.100 C 
BRANCH  16  17
ATOM     17  C   UNL d   1     -40.939  14.543  20.698  0.00  0.00     0.286 C 
ATOM     18  O   UNL d   1     -40.759  14.314  19.911  0.00  0.00    -0.265 OA
ATOM     19  N   UNL d   1     -40.477  15.128  21.082  0.00  0.00    -0.204 NA
ATOM     20  C   UNL d   1     -39.840  15.475  20.669  0.00  0.00     0.123 C 
ENDBRANCH  16  17
ENDBRANCH  15  16
ENDBRANCH  12  15
ENDBRANCH   8  10
ENDBRANCH   3   7
BRANCH   1  21
ATOM     21  C   UNL d   1     -48.488  13.055  22.269  0.00  0.00     0.089 A 
ATOM     22  C   UNL d   1     -48.869  12.414  22.648  0.00  0.00     0.110 A 
ATOM     23  C   UNL d   1     -49.639  12.208  22.445  0.00  0.00     0.026 A 
ATOM     24  C   UNL d   1     -50.041  12.647  21.853  0.00  0.00     0.002 A 
ATOM     25  C   UNL d   1     -49.674  13.280  21.474  0.00  0.00     0.002 A 
ATOM     26  C   UNL d   1     -48.886  13.493  21.679  0.00  0.00     0.020 A 
BRANCH  22  27
ATOM     27  O   UNL d   1     -48.462  11.985  23.234  0.00  0.00    -0.327 OA
ATOM     28  C   UNL d   1     -48.877  11.429  23.698  0.00  0.00     0.181 C 
ENDBRANCH  22  27
ENDBRANCH   1  21
TORSDOF 7
ENDMDL
MODEL 2
REMARK VINA RESULT:      -5.8      1.657      2.078
REMARK  7 active torsions:
REMARK  status: ('A' for Active; 'I' for Inactive)
REMARK    1  A    between atoms: C_12  and  N_1 
REMARK    2  A    between atoms: C_2  and  N_6 
REMARK    3  A    between atoms: C_9  and  C_5 
REMARK       I    between atoms: N_6  and  C_9 
REMARK    4  A    between atoms: S_15  and  C_7 
REMARK    5  A    between atoms: C_14  and  C_20 
REMARK       I    between atoms: N_21  and  C_14 
REMARK    6  A    between atoms: C_20  and  S_15 
REMARK    7  A    between atoms: O_22  and  C_18 
ROOT
ATOM      1  N   UNL d   1     -49.173  13.950  22.523  0.00  0.00    -0.271 N 
ATOM      2  C   UNL d   1     -49.117  13.816  21.766  0.00  0.00     0.265 A 
ATOM      3  C   UNL d   1     -48.089  13.357  22.315  0.00  0.00     0.080 A 
ATOM      4  C   UNL d   1     -48.536  13.666  22.864  0.00  0.00     0.088 A 
ATOM      5  C   UNL d   1     -48.444  13.447  21.630  0.00  0.00     0.067 A 
ATOM      6  O   UNL d   1     -49.644  14.016  21.226  0.00  0.00    -0.267 OA
ENDROOT
BRANCH   3   7
ATOM      7  C   UNL d   1     -47.402  13.014  22.419  0.00  0.00     0.283 C 
ATOM      8  N   UNL d   1     -46.753  13.441  22.423  0.00  0.00    -0.181 NA
ATOM      9  O   UNL d   1     -47.362  12.244  22.520  0.00  0.00    -0.265 OA
BRANCH   8  10
ATOM     10  C   UNL d   1     -46.064  13.103  22.527  0.00  0.00     0.219 A 
ATOM     11  S   UNL d   1     -45.443  13.173  22.064  0.00  0.00    -0.019 SA
ATOM     12  C   UNL d   1     -44.875  12.751  22.361  0.00  0.00     0.165 A 
ATOM     13  N   UNL d   1     -45.126  12.410  23.012  0.00  0.00    -0.133 NA
ATOM     14  N   UNL d   1     -45.875  12.632  23.117  0.00  0.00    -0.120 NA
BRANCH  12  15
ATOM     15  S   UNL d   1     -43.392  12.748  21.507  0.00  0.00    -0.054 SA
BRANCH  15  16
ATOM     16  C   UNL d   1     -43.034  13.468  21.287  0.00  0.00     0.100 C 
BRANCH  16  17
ATOM     17  C   UNL d   1     -42.206  13.507  21.180  0.00  0.00     0.286 C 
ATOM     18  O   UNL d   1     -41.719  12.867  21.424  0.00  0.00    -0.265 OA
ATOM     19  N   UNL d   1     -41.864  14.187  20.829  0.00  0.00    -0.204 NA
ATOM     20  C   UNL d   1     -41.037  14.216  20.727  0.00  0.00     0.123 C 
ENDBRANCH  16  17
ENDBRANCH  15  16
ENDBRANCH  12  15
ENDBRANCH   8  10
ENDBRANCH   3   7
BRANCH   1  21
ATOM     21  C   UNL d   1     -49.808  14.334  22.914  0.00  0.00     0.089 A 
ATOM     22  C   UNL d   1     -50.390  13.884  23.313  0.00  0.00     0.110 A 
ATOM     23  C   UNL d   1     -51.014  14.258  23.698  0.00  0.00     0.026 A 
ATOM     24  C   UNL d   1     -51.063  15.095  23.687  0.00  0.00     0.002 A 
ATOM     25  C   UNL d   1     -50.495  15.547  23.297  0.00  0.00     0.002 A 
ATOM     26  C   UNL d   1     -49.855  15.168  22.902  0.00  0.00     0.020 A 
BRANCH  22  27
ATOM     27  O   UNL d   1     -50.332  13.054  23.319  0.00  0.00    -0.327 OA
ATOM     28  C   UNL d   1     -50.923  12.604  23.698  0.00  0.00     0.181 C 
ENDBRANCH  22  27
ENDBRANCH   1  21
TORSDOF 7
ENDMDL
MODEL 3
REMARK VINA RESULT:      -5.0      1.757      7.296
REMARK  7 active torsions:
REMARK  status: ('A' for Active; 'I' for Inactive)
REMARK    1  A    between atoms: C_12  and  N_1 
REMARK    2  A    between atoms: C_2  and  N_6 
REMARK    3  A    between atoms: C_9  and  C_5 
REMARK       I    between atoms: N_6  and  C_9 
REMARK    4  A    between atoms: S_15  and  C_7 
REMARK    5  A    between atoms: C_14  and  C_20 
REMARK       I    between atoms: N_21  and  C_14 
REMARK    6  A    between atoms: C_20  and  S_15 
REMARK    7  A    between atoms: O_22  and  C_18 
ROOT
ATOM      1  N   UNL d   1     -40.622  14.636  19.533  0.00  0.00    -0.271 N 
ATOM      2  C   UNL d   1     -40.623  15.192  20.067  0.00  0.00     0.265 A 
ATOM      3  C   UNL d   1     -41.308  14.238  20.504  0.00  0.00     0.080 A 
ATOM      4  C   UNL d   1     -41.046  14.045  19.803  0.00  0.00     0.088 A 
ATOM      5  C   UNL d   1     -41.048  14.951  20.674  0.00  0.00     0.067 A 
ATOM      6  O   UNL d   1     -40.260  15.882  20.011  0.00  0.00    -0.267 OA
ENDROOT
BRANCH   3   7
ATOM      7  C   UNL d   1     -41.753  13.804  20.965  0.00  0.00     0.283 C 
ATOM      8  N   UNL d   1     -42.434  13.535  20.705  0.00  0.00    -0.181 NA
ATOM      9  O   UNL d   1     -41.520  13.639  21.688  0.00  0.00    -0.265 OA
BRANCH   8  10
ATOM     10  C   UNL d   1     -42.883  13.100  21.163  0.00  0.00     0.219 A 
ATOM     11  S   UNL d   1     -43.615  13.257  21.371  0.00  0.00    -0.019 SA
ATOM     12  C   UNL d   1     -43.861  12.690  21.827  0.00  0.00     0.165 A 
ATOM     13  N   UNL d   1     -43.290  12.170  21.914  0.00  0.00    -0.133 NA
ATOM     14  N   UNL d   1     -42.674  12.428  21.495  0.00  0.00    -0.120 NA
BRANCH  12  15
ATOM     15  S   UNL d   1     -45.462  12.816  22.417  0.00  0.00    -0.054 SA
BRANCH  15  16
ATOM     16  C   UNL d   1     -45.816  13.565  22.509  0.00  0.00     0.100 C 
BRANCH  16  17
ATOM     17  C   UNL d   1     -46.604  13.623  22.781  0.00  0.00     0.286 C 
ATOM     18  O   UNL d   1     -46.942  13.000  23.230  0.00  0.00    -0.265 OA
ATOM     19  N   UNL d   1     -47.056  14.307  22.602  0.00  0.00    -0.204 NA
ATOM     20  C   UNL d   1     -47.842  14.355  22.878  0.00  0.00     0.123 C 
ENDBRANCH  16  17
ENDBRANCH  15  16
ENDBRANCH  12  15
ENDBRANCH   8  10
ENDBRANCH   3   7
BRANCH   1  21
ATOM     21  C   UNL d   1     -40.232  14.661  18.791  0.00  0.00     0.089 A 
ATOM     22  C   UNL d   1     -39.510  14.252  18.682  0.00  0.00     0.110 A 
ATOM     23  C   UNL d   1     -39.125  14.274  17.955  0.00  0.00     0.026 A 
ATOM     24  C   UNL d   1     -39.463  14.710  17.323  0.00  0.00     0.002 A 
ATOM     25  C   UNL d   1     -40.173  15.116  17.420  0.00  0.00     0.002 A 
ATOM     26  C   UNL d   1     -40.570  15.095  18.163  0.00  0.00     0.020 A 
BRANCH  22  27
ATOM     27  O   UNL d   1     -39.183  13.822  19.315  0.00  0.00    -0.327 OA
ATOM     28  C   UNL d   1     -38.429  13.475  19.230  0.00  0.00     0.181 C 
ENDBRANCH  22  27
ENDBRANCH   1  21
TORSDOF 7
ENDMDL
MODEL 4
REMARK VINA RESULT:      -4.9      2.967      8.637
REMARK  7 active torsions:
REMARK  status: ('A' for Active; 'I' for Inactive)
REMARK    1  A    between atoms: C_12  and  N_1 
REMARK    2  A    between atoms: C_2  and  N_6 
REMARK    3  A    between atoms: C_9  and  C_5 
REMARK       I    between atoms: N_6  and  C_9 
REMARK    4  A    between atoms: S_15  and  C_7 
REMARK    5  A    between atoms: C_14  and  C_20 
REMARK       I    between atoms: N_21  and  C_14 
REMARK    6  A    between atoms: C_20  and  S_15 
REMARK    7  A    between atoms: O_22  and  C_18 
ROOT
ATOM      1  N   UNL d   1     -38.916  14.821  17.654  0.00  0.00    -0.271 N 
ATOM      2  C   UNL d   1     -38.603  15.417  18.028  0.00  0.00     0.265 A 
ATOM      3  C   UNL d   1     -39.654  15.093  18.629  0.00  0.00     0.080 A 
ATOM      4  C   UNL d   1     -39.567  14.620  18.026  0.00  0.00     0.088 A 
ATOM      5  C   UNL d   1     -39.058  15.592  18.637  0.00  0.00     0.067 A 
ATOM      6  O   UNL d   1     -37.943  15.786  17.832  0.00  0.00    -0.267 OA
ENDROOT
BRANCH   3   7
ATOM      7  C   UNL d   1     -40.231  15.082  19.145  0.00  0.00     0.283 C 
ATOM      8  N   UNL d   1     -40.231  14.555  19.716  0.00  0.00    -0.181 NA
ATOM      9  O   UNL d   1     -40.811  15.597  19.092  0.00  0.00    -0.265 OA
BRANCH   8  10
ATOM     10  C   UNL d   1     -40.807  14.539  20.234  0.00  0.00     0.219 A 
ATOM     11  S   UNL d   1     -41.268  13.934  20.390  0.00  0.00    -0.019 SA
ATOM     12  C   UNL d   1     -41.765  14.146  20.935  0.00  0.00     0.165 A 
ATOM     13  N   UNL d   1     -41.626  14.885  21.131  0.00  0.00    -0.133 NA
ATOM     14  N   UNL d   1     -41.022  15.132  20.689  0.00  0.00    -0.120 NA
BRANCH  12  15
ATOM     15  S   UNL d   1     -42.895  12.968  21.449  0.00  0.00    -0.054 SA
BRANCH  15  16
ATOM     16  C   UNL d   1     -43.706  13.067  21.286  0.00  0.00     0.100 C 
BRANCH  16  17
ATOM     17  C   UNL d   1     -44.276  12.812  21.841  0.00  0.00     0.286 C 
ATOM     18  O   UNL d   1     -44.133  12.132  22.311  0.00  0.00    -0.265 OA
ATOM     19  N   UNL d   1     -44.993  13.240  21.926  0.00  0.00    -0.204 NA
ATOM     20  C   UNL d   1     -45.556  12.977  22.483  0.00  0.00     0.123 C 
ENDBRANCH  16  17
ENDBRANCH  15  16
ENDBRANCH  12  15
ENDBRANCH   8  10
ENDBRANCH   3   7
BRANCH   1  21
ATOM     21  C   UNL d   1     -38.611  14.451  16.966  0.00  0.00     0.089 A 
ATOM     22  C   UNL d   1     -38.272  13.687  17.014  0.00  0.00     0.110 A 
ATOM     23  C   UNL d   1     -37.972  13.322  16.341  0.00  0.00     0.026 A 
ATOM     24  C   UNL d   1     -38.008  13.721  15.604  0.00  0.00     0.002 A 
ATOM     25  C   UNL d   1     -38.339  14.473  15.545  0.00  0.00     0.002 A 
ATOM     26  C   UNL d   1     -38.648  14.850  16.232  0.00  0.00     0.020 A 
BRANCH  22  27
ATOM     27  O   UNL d   1     -38.241  13.299  17.749  0.00  0.00    -0.327 OA
ATOM     28  C   UNL d   1     -37.940  12.523  17.792  0.00  0.00     0.181 C 
ENDBRANCH  22  27
ENDBRANCH   1  21
TORSDOF 7
ENDMDL
