MODEL 1
REMARK VINA RESULT:      61.0      0.000      0.000
REMARK  5 active torsions:
REMARK  status: ('A' for Active; 'I' for Inactive)
REMARK    1  A    between atoms: N_3  and  C_1 
REMARK       I    between atoms: C_7  and  N_3 
REMARK    2  A    between atoms: S_9  and  C_4 
REMARK    3  A    between atoms: C_8  and  C_7 
REMARK    4  A    between atoms: C_13  and  S_9 
REMARK    5  A    between atoms: C_16  and  C_13 
ROOT
ATOM      1  C   UNL d   1     -54.741-101.478 -40.650  0.00  0.00     0.219 A 
ATOM      2  S   UNL d   1     -54.711-101.836 -41.430  0.00  0.00    -0.019 SA
ATOM      3  C   UNL d   1     -54.752-101.177 -41.997  0.00  0.00     0.165 A 
ATOM      4  N   UNL d   1     -54.788-100.777 -40.778  0.00  0.00    -0.120 NA
ATOM      5  N   UNL d   1     -54.794-100.600 -41.622  0.00  0.00    -0.133 NA
ENDROOT
BRANCH   1   6
ATOM      6  N   UNL d   1     -54.716-101.928 -39.846  0.00  0.00    -0.181 NA
ATOM      7  C   UNL d   1     -55.002-101.561 -39.129  0.00  0.00     0.281 C 
ATOM      8  O   UNL d   1     -55.252-100.916 -39.174  0.00  0.00    -0.265 OA
BRANCH   7   9
ATOM      9  C   UNL d   1     -55.034-101.850 -38.364  0.00  0.00     0.058 A 
ATOM     10  C   UNL d   1     -55.368-102.589 -38.220  0.00  0.00     0.006 A 
ATOM     11  C   UNL d   1     -55.399-102.879 -37.442  0.00  0.00     0.012 A 
ATOM     12  C   UNL d   1     -55.092-102.418 -36.821  0.00  0.00     0.058 A 
ATOM     13  C   UNL d   1     -54.761-101.680 -36.987  0.00  0.00     0.012 A 
ATOM     14 CL   UNL d   1     -55.168-102.806 -36.036  0.00  0.00    -0.082 Cl
ATOM     15  C   UNL d   1     -54.735-101.401 -37.757  0.00  0.00     0.006 A 
ENDBRANCH   7   9
ENDBRANCH   1   6
BRANCH   3  16
ATOM     16  S   UNL d   1     -54.749-101.128 -42.902  0.00  0.00    -0.059 SA
BRANCH  16  17
ATOM     17  C   UNL d   1     -54.953-101.774 -43.210  0.00  0.00     0.037 C 
BRANCH  17  18
ATOM     18  C   UNL d   1     -55.024-101.838 -44.021  0.00  0.00     0.007 A 
ATOM     19  C   UNL d   1     -54.719-101.264 -44.520  0.00  0.00     0.001 A 
ATOM     20  C   UNL d   1     -54.791-101.329 -45.343  0.00  0.00     0.007 A 
ATOM     21  C   UNL d   1     -55.180-101.987 -45.662  0.00  0.00     0.035 A 
ATOM     22  C   UNL d   1     -55.496-102.580 -45.154  0.00  0.00     0.007 A 
ATOM     23 BR   UNL d   1     -55.285-102.096 -46.669  0.00  0.00    -0.049 Br
ATOM     24  C   UNL d   1     -55.404-102.480 -44.331  0.00  0.00     0.001 A 
ENDBRANCH  17  18
ENDBRANCH  16  17
ENDBRANCH   3  16
TORSDOF 5
ENDMDL
