MODEL 1
REMARK VINA RESULT:      -9.1      0.000      0.000
REMARK  6 active torsions:
REMARK  status: ('A' for Active; 'I' for Inactive)
REMARK    1  A    between atoms: N_5  and  C_1 
REMARK    2  A    between atoms: N_7  and  C_2 
REMARK    3  A    between atoms: C_8  and  N_3 
REMARK    4  A    between atoms: C_18  and  C_8 
REMARK    5  A    between atoms: C_14  and  N_9 
REMARK    6  A    between atoms: C_19  and  C_14 
ROOT
ATOM      1  C   UNL d   1      53.895  34.270  54.820  0.00  0.00     0.242 A 
ATOM      2  C   UNL d   1      53.580  33.973  54.117  0.00  0.00     0.175 A 
ATOM      3  N   UNL d   1      53.171  34.596  53.740  0.00  0.00    -0.274 N 
ATOM      4  N   UNL d   1      53.684  35.075  54.882  0.00  0.00    -0.203 NA
ATOM      5  C   UNL d   1      53.239  35.263  54.211  0.00  0.00     0.151 A 
ATOM      6  C   UNL d   1      52.915  36.003  54.042  0.00  0.00     0.041 C 
ENDROOT
BRANCH   2   7
ATOM      7  N   UNL d   1      53.738  33.180  53.970  0.00  0.00    -0.285 N 
ATOM      8  C   UNL d   1      53.375  32.589  54.422  0.00  0.00     0.101 A 
ATOM      9  C   UNL d   1      53.542  31.792  54.264  0.00  0.00     0.100 A 
ATOM     10  N   UNL d   1      54.063  31.590  53.667  0.00  0.00    -0.300 N 
ATOM     11  C   UNL d   1      54.426  32.181  53.216  0.00  0.00     0.100 A 
ATOM     12  C   UNL d   1      54.265  32.968  53.367  0.00  0.00     0.101 A 
BRANCH  10  13
ATOM     13  C   UNL d   1      54.228  30.790  53.512  0.00  0.00     0.080 C 
BRANCH  13  14
ATOM     14  C   UNL d   1      53.618  30.245  53.474  0.00  0.00     0.018 A 
ATOM     15  C   UNL d   1      53.535  29.674  54.067  0.00  0.00     0.002 A 
ATOM     16  C   UNL d   1      52.924  29.124  54.034  0.00  0.00     0.000 A 
ATOM     17  C   UNL d   1      52.387  29.144  53.400  0.00  0.00     0.000 A 
ATOM     18  C   UNL d   1      52.470  29.716  52.807  0.00  0.00     0.000 A 
ATOM     19  C   UNL d   1      53.091  30.267  52.849  0.00  0.00     0.002 A 
ENDBRANCH  13  14
ENDBRANCH  10  13
ENDBRANCH   2   7
BRANCH   1  20
ATOM     20  N   UNL d   1      54.346  33.849  55.376  0.00  0.00    -0.092 N 
ATOM     21  O   UNL d   1      53.977  33.399  55.953  0.00  0.00    -0.530 OA
ATOM     22  O   UNL d   1      55.172  33.889  55.343  0.00  0.00    -0.530 OA
ENDBRANCH   1  20
BRANCH   3  23
ATOM     23  C   UNL d   1      52.773  34.536  53.019  0.00  0.00     0.083 C 
BRANCH  23  24
ATOM     24  C   UNL d   1      51.953  34.452  52.995  0.00  0.00     0.018 A 
ATOM     25  C   UNL d   1      51.601  34.078  52.344  0.00  0.00     0.002 A 
ATOM     26  C   UNL d   1      50.777  33.991  52.315  0.00  0.00     0.000 A 
ATOM     27  C   UNL d   1      50.316  34.276  52.931  0.00  0.00     0.000 A 
ATOM     28  C   UNL d   1      50.663  34.646  53.576  0.00  0.00     0.000 A 
ATOM     29  C   UNL d   1      51.487  34.734  53.605  0.00  0.00     0.002 A 
ENDBRANCH  23  24
ENDBRANCH   3  23
TORSDOF 6
ENDMDL
MODEL 2
REMARK VINA RESULT:      -8.3      1.664      2.803
REMARK  6 active torsions:
REMARK  status: ('A' for Active; 'I' for Inactive)
REMARK    1  A    between atoms: N_5  and  C_1 
REMARK    2  A    between atoms: N_7  and  C_2 
REMARK    3  A    between atoms: C_8  and  N_3 
REMARK    4  A    between atoms: C_18  and  C_8 
REMARK    5  A    between atoms: C_14  and  N_9 
REMARK    6  A    between atoms: C_19  and  C_14 
ROOT
ATOM      1  C   UNL d   1      52.131  34.391  53.031  0.00  0.00     0.242 A 
ATOM      2  C   UNL d   1      52.452  33.874  53.589  0.00  0.00     0.175 A 
ATOM      3  N   UNL d   1      52.700  34.330  54.243  0.00  0.00    -0.274 N 
ATOM      4  N   UNL d   1      52.178  35.167  53.334  0.00  0.00    -0.203 NA
ATOM      5  C   UNL d   1      52.531  35.116  54.081  0.00  0.00     0.151 A 
ATOM      6  C   UNL d   1      52.686  35.753  54.582  0.00  0.00     0.041 C 
ENDROOT
BRANCH   2   7
ATOM      7  N   UNL d   1      52.448  33.081  53.374  0.00  0.00    -0.285 N 
ATOM      8  C   UNL d   1      51.835  32.583  53.622  0.00  0.00     0.101 A 
ATOM      9  C   UNL d   1      51.842  31.784  53.400  0.00  0.00     0.100 A 
ATOM     10  N   UNL d   1      52.450  31.488  52.939  0.00  0.00    -0.300 N 
ATOM     11  C   UNL d   1      53.062  31.987  52.691  0.00  0.00     0.100 A 
ATOM     12  C   UNL d   1      53.060  32.775  52.908  0.00  0.00     0.101 A 
BRANCH  10  13
ATOM     13  C   UNL d   1      52.453  30.687  52.718  0.00  0.00     0.080 C 
BRANCH  13  14
ATOM     14  C   UNL d   1      52.787  30.127  53.212  0.00  0.00     0.018 A 
ATOM     15  C   UNL d   1      53.609  30.082  53.293  0.00  0.00     0.002 A 
ATOM     16  C   UNL d   1      53.950  29.521  53.788  0.00  0.00     0.000 A 
ATOM     17  C   UNL d   1      53.464  28.997  54.211  0.00  0.00     0.000 A 
ATOM     18  C   UNL d   1      52.641  29.042  54.131  0.00  0.00     0.000 A 
ATOM     19  C   UNL d   1      52.306  29.612  53.627  0.00  0.00     0.002 A 
ENDBRANCH  13  14
ENDBRANCH  10  13
ENDBRANCH   2   7
BRANCH   1  20
ATOM     20  N   UNL d   1      51.813  34.185  52.292  0.00  0.00    -0.092 N 
ATOM     21  O   UNL d   1      52.293  34.150  51.629  0.00  0.00    -0.530 OA
ATOM     22  O   UNL d   1      51.005  34.015  52.231  0.00  0.00    -0.530 OA
ENDBRANCH   1  20
BRANCH   3  23
ATOM     23  C   UNL d   1      53.054  34.031  54.926  0.00  0.00     0.083 C 
BRANCH  23  24
ATOM     24  C   UNL d   1      53.873  34.025  55.011  0.00  0.00     0.018 A 
ATOM     25  C   UNL d   1      54.240  33.381  55.382  0.00  0.00     0.002 A 
ATOM     26  C   UNL d   1      55.064  33.370  55.470  0.00  0.00     0.000 A 
ATOM     27  C   UNL d   1      55.512  33.997  55.187  0.00  0.00     0.000 A 
ATOM     28  C   UNL d   1      55.150  34.636  54.819  0.00  0.00     0.000 A 
ATOM     29  C   UNL d   1      54.325  34.647  54.731  0.00  0.00     0.002 A 
ENDBRANCH  23  24
ENDBRANCH   3  23
TORSDOF 6
ENDMDL
MODEL 3
REMARK VINA RESULT:      -8.2      1.509      4.454
REMARK  6 active torsions:
REMARK  status: ('A' for Active; 'I' for Inactive)
REMARK    1  A    between atoms: N_5  and  C_1 
REMARK    2  A    between atoms: N_7  and  C_2 
REMARK    3  A    between atoms: C_8  and  N_3 
REMARK    4  A    between atoms: C_18  and  C_8 
REMARK    5  A    between atoms: C_14  and  N_9 
REMARK    6  A    between atoms: C_19  and  C_14 
ROOT
ATOM      1  C   UNL d   1      53.067  34.199  53.896  0.00  0.00     0.242 A 
ATOM      2  C   UNL d   1      52.786  33.621  53.378  0.00  0.00     0.175 A 
ATOM      3  N   UNL d   1      53.394  33.059  53.271  0.00  0.00    -0.274 N 
ATOM      4  N   UNL d   1      53.848  33.999  54.113  0.00  0.00    -0.203 NA
ATOM      5  C   UNL d   1      54.038  33.295  53.722  0.00  0.00     0.151 A 
ATOM      6  C   UNL d   1      54.757  32.895  53.775  0.00  0.00     0.041 C 
ENDROOT
BRANCH   2   7
ATOM      7  N   UNL d   1      52.018  33.736  53.109  0.00  0.00    -0.285 N 
ATOM      8  C   UNL d   1      51.373  33.475  53.557  0.00  0.00     0.101 A 
ATOM      9  C   UNL d   1      50.603  33.596  53.275  0.00  0.00     0.100 A 
ATOM     10  N   UNL d   1      50.479  33.972  52.559  0.00  0.00    -0.300 N 
ATOM     11  C   UNL d   1      51.124  34.233  52.112  0.00  0.00     0.100 A 
ATOM     12  C   UNL d   1      51.886  34.116  52.385  0.00  0.00     0.101 A 
BRANCH  10  13
ATOM     13  C   UNL d   1      49.705  34.092  52.280  0.00  0.00     0.080 C 
BRANCH  13  14
ATOM     14  C   UNL d   1      49.280  34.748  52.522  0.00  0.00     0.018 A 
ATOM     15  C   UNL d   1      48.867  35.202  51.967  0.00  0.00     0.002 A 
ATOM     16  C   UNL d   1      48.438  35.862  52.205  0.00  0.00     0.000 A 
ATOM     17  C   UNL d   1      48.419  36.073  53.008  0.00  0.00     0.000 A 
ATOM     18  C   UNL d   1      48.832  35.619  53.563  0.00  0.00     0.000 A 
ATOM     19  C   UNL d   1      49.263  34.953  53.314  0.00  0.00     0.002 A 
ENDBRANCH  13  14
ENDBRANCH  10  13
ENDBRANCH   2   7
BRANCH   1  20
ATOM     20  N   UNL d   1      52.653  34.868  54.162  0.00  0.00    -0.092 N 
ATOM     21  O   UNL d   1      52.649  35.557  53.718  0.00  0.00    -0.530 OA
ATOM     22  O   UNL d   1      52.245  34.833  54.881  0.00  0.00    -0.530 OA
ENDBRANCH   1  20
BRANCH   3  23
ATOM     23  C   UNL d   1      53.344  32.387  52.793  0.00  0.00     0.083 C 
BRANCH  23  24
ATOM     24  C   UNL d   1      53.280  31.636  53.126  0.00  0.00     0.018 A 
ATOM     25  C   UNL d   1      52.853  31.049  52.727  0.00  0.00     0.002 A 
ATOM     26  C   UNL d   1      52.786  30.291  53.057  0.00  0.00     0.000 A 
ATOM     27  C   UNL d   1      53.144  30.128  53.778  0.00  0.00     0.000 A 
ATOM     28  C   UNL d   1      53.568  30.709  54.174  0.00  0.00     0.000 A 
ATOM     29  C   UNL d   1      53.635  31.466  53.844  0.00  0.00     0.002 A 
ENDBRANCH  23  24
ENDBRANCH   3  23
TORSDOF 6
ENDMDL
