MODEL 1
REMARK VINA RESULT:      29.0      0.000      0.000
REMARK  4 active torsions:
REMARK  status: ('A' for Active; 'I' for Inactive)
REMARK    1  A    between atoms: C_2  and  N_1 
REMARK    2  A    between atoms: C_12  and  C_5 
REMARK    3  A    between atoms: O_20  and  C_12 
REMARK    4  A    between atoms: C_21  and  C_13 
ROOT
ATOM      1  N   UNL d   1      14.299  13.165  -1.936  0.00  0.00    -0.237 N 
ATOM      2  C   UNL d   1      13.827  13.632  -2.444  0.00  0.00     0.263 A 
ATOM      3  C   UNL d   1      14.343  12.398  -2.256  0.00  0.00     0.263 A 
ATOM      4  C   UNL d   1      13.903  12.389  -2.956  0.00  0.00     0.039 A 
ATOM      5  C   UNL d   1      13.583  13.154  -3.071  0.00  0.00     0.039 A 
ATOM      6  C   UNL d   1      13.748  11.780  -3.511  0.00  0.00     0.049 A 
ATOM      7  C   UNL d   1      13.105  13.316  -3.742  0.00  0.00     0.049 A 
ATOM      8  C   UNL d   1      13.264  11.951  -4.186  0.00  0.00    -0.026 A 
ATOM      9  C   UNL d   1      12.949  12.716  -4.294  0.00  0.00    -0.026 A 
ATOM     10  C   UNL d   1      13.636  12.537  -3.302  0.00  0.00     0.018 A 
ATOM     11  O   UNL d   1      14.741  11.794  -1.937  0.00  0.00    -0.267 OA
ATOM     12  O   UNL d   1      13.650  14.393  -2.335  0.00  0.00    -0.267 OA
ENDROOT
BRANCH   1  13
ATOM     13  C   UNL d   1      14.647  13.419  -1.257  0.00  0.00     0.105 A 
ATOM     14  C   UNL d   1      14.554  13.092  -0.539  0.00  0.00     0.086 A 
ATOM     15  C   UNL d   1      14.995  13.512  -0.018  0.00  0.00     0.014 A 
ATOM     16  C   UNL d   1      15.351  14.090  -0.426  0.00  0.00     0.031 A 
ATOM     17  S   UNL d   1      15.143  14.040  -1.185  0.00  0.00    -0.069 SA
BRANCH  14  18
ATOM     18  C   UNL d   1      14.102  12.457  -0.369  0.00  0.00     0.298 C 
ATOM     19  O   UNL d   1      14.439  11.780  -0.113  0.00  0.00    -0.259 OA
BRANCH  18  20
ATOM     20  O   UNL d   1      13.301  12.499  -0.454  0.00  0.00    -0.296 OA
ATOM     21  C   UNL d   1      12.923  11.914  -0.081  0.00  0.00     0.185 C 
ENDBRANCH  18  20
ENDBRANCH  14  18
BRANCH  16  22
ATOM     22  C   UNL d   1      15.832  14.602  -0.040  0.00  0.00     0.006 C 
ATOM     23  C   UNL d   1      15.658  15.397  -0.023  0.00  0.00     0.001 C 
ENDBRANCH  16  22
ENDBRANCH   1  13
TORSDOF 4
ENDMDL
