MODEL 1
REMARK VINA RESULT:      -2.7      0.000      0.000
REMARK  2 active torsions:
REMARK  status: ('A' for Active; 'I' for Inactive)
REMARK    1  A    between atoms: C_6  and  C_1 
REMARK    2  A    between atoms: O_10  and  C_6 
ROOT
ATOM      1  C   UNL d   1      31.752  17.423 -23.973  0.00  0.00     0.096 A 
ATOM      2  S   UNL d   1      31.766  16.679 -23.597  0.00  0.00    -0.040 SA
ATOM      3  C   UNL d   1      31.087  16.203 -23.600  0.00  0.00     0.226 A 
ATOM      4  C   UNL d   1      31.059  17.683 -24.347  0.00  0.00     0.012 A 
ATOM      5  C   UNL d   1      30.386  17.208 -24.348  0.00  0.00     0.004 A 
ATOM      6  C   UNL d   1      30.400  16.472 -23.976  0.00  0.00     0.045 A 
ATOM      7  O   UNL d   1      31.100  15.467 -23.228  0.00  0.00    -0.279 OA
ATOM      8  C   UNL d   1      29.701  17.469 -24.720  0.00  0.00     0.000 A 
ATOM      9  C   UNL d   1      29.728  15.989 -23.973  0.00  0.00     0.004 A 
ATOM     10  C   UNL d   1      29.028  16.994 -24.721  0.00  0.00     0.000 A 
ATOM     11  C   UNL d   1      29.041  16.250 -24.345  0.00  0.00     0.000 A 
ENDROOT
BRANCH   1  12
ATOM     12  C   UNL d   1      32.429  17.891 -23.967  0.00  0.00     0.302 C 
ATOM     13  O   UNL d   1      32.976  17.820 -24.581  0.00  0.00    -0.259 OA
BRANCH  12  14
ATOM     14  O   UNL d   1      32.568  18.426 -23.362  0.00  0.00    -0.295 OA
ATOM     15  C   UNL d   1      33.241  18.919 -23.396  0.00  0.00     0.185 C 
ENDBRANCH  12  14
ENDBRANCH   1  12
TORSDOF 2
ENDMDL
MODEL 2
REMARK VINA RESULT:      -2.7      1.343      3.035
REMARK  2 active torsions:
REMARK  status: ('A' for Active; 'I' for Inactive)
REMARK    1  A    between atoms: C_6  and  C_1 
REMARK    2  A    between atoms: O_10  and  C_6 
ROOT
ATOM      1  C   UNL d   1      30.173  16.267 -23.944  0.00  0.00     0.096 A 
ATOM      2  S   UNL d   1      30.703  15.748 -23.563  0.00  0.00    -0.040 SA
ATOM      3  C   UNL d   1      31.498  15.966 -23.468  0.00  0.00     0.226 A 
ATOM      4  C   UNL d   1      30.445  16.998 -24.226  0.00  0.00     0.012 A 
ATOM      5  C   UNL d   1      31.234  17.212 -24.130  0.00  0.00     0.004 A 
ATOM      6  C   UNL d   1      31.758  16.699 -23.753  0.00  0.00     0.045 A 
ATOM      7  O   UNL d   1      32.022  15.453 -23.091  0.00  0.00    -0.279 OA
ATOM      8  C   UNL d   1      31.500  17.938 -24.411  0.00  0.00     0.000 A 
ATOM      9  C   UNL d   1      32.553  16.906 -23.653  0.00  0.00     0.004 A 
ATOM     10  C   UNL d   1      32.289  18.152 -24.316  0.00  0.00     0.000 A 
ATOM     11  C   UNL d   1      32.819  17.633 -23.934  0.00  0.00     0.000 A 
ENDROOT
BRANCH   1  12
ATOM     12  C   UNL d   1      29.386  16.046 -24.035  0.00  0.00     0.302 C 
ATOM     13  O   UNL d   1      29.152  15.659 -24.725  0.00  0.00    -0.259 OA
BRANCH  12  14
ATOM     14  O   UNL d   1      28.832  16.203 -23.452  0.00  0.00    -0.295 OA
ATOM     15  C   UNL d   1      28.038  15.975 -23.567  0.00  0.00     0.185 C 
ENDBRANCH  12  14
ENDBRANCH   1  12
TORSDOF 2
ENDMDL
MODEL 3
REMARK VINA RESULT:      -2.5      4.770      6.077
REMARK  2 active torsions:
REMARK  status: ('A' for Active; 'I' for Inactive)
REMARK    1  A    between atoms: C_6  and  C_1 
REMARK    2  A    between atoms: O_10  and  C_6 
ROOT
ATOM      1  C   UNL d   1      32.736  22.285 -20.865  0.00  0.00     0.096 A 
ATOM      2  S   UNL d   1      32.905  22.617 -21.611  0.00  0.00    -0.040 SA
ATOM      3  C   UNL d   1      33.073  22.121 -22.254  0.00  0.00     0.226 A 
ATOM      4  C   UNL d   1      32.737  21.461 -20.771  0.00  0.00     0.012 A 
ATOM      5  C   UNL d   1      32.904  20.971 -21.412  0.00  0.00     0.004 A 
ATOM      6  C   UNL d   1      33.072  21.300 -22.150  0.00  0.00     0.045 A 
ATOM      7  O   UNL d   1      33.241  22.450 -22.992  0.00  0.00    -0.279 OA
ATOM      8  C   UNL d   1      32.904  20.154 -21.315  0.00  0.00     0.000 A 
ATOM      9  C   UNL d   1      33.241  20.815 -22.798  0.00  0.00     0.004 A 
ATOM     10  C   UNL d   1      33.072  19.665 -21.955  0.00  0.00     0.000 A 
ATOM     11  C   UNL d   1      33.241  19.997 -22.701  0.00  0.00     0.000 A 
ENDROOT
BRANCH   1  12
ATOM     12  C   UNL d   1      32.570  22.782 -20.230  0.00  0.00     0.302 C 
ATOM     13  O   UNL d   1      31.887  23.244 -20.245  0.00  0.00    -0.259 OA
BRANCH  12  14
ATOM     14  O   UNL d   1      33.072  22.823 -19.583  0.00  0.00    -0.295 OA
ATOM     15  C   UNL d   1      32.888  23.338 -18.953  0.00  0.00     0.185 C 
ENDBRANCH  12  14
ENDBRANCH   1  12
TORSDOF 2
ENDMDL
MODEL 4
REMARK VINA RESULT:      -2.0      1.359      3.289
REMARK  2 active torsions:
REMARK  status: ('A' for Active; 'I' for Inactive)
REMARK    1  A    between atoms: C_6  and  C_1 
REMARK    2  A    between atoms: O_10  and  C_6 
ROOT
ATOM      1  C   UNL d   1      32.137  17.267 -23.984  0.00  0.00     0.096 A 
ATOM      2  S   UNL d   1      32.506  17.446 -23.257  0.00  0.00    -0.040 SA
ATOM      3  C   UNL d   1      32.873  18.182 -23.151  0.00  0.00     0.226 A 
ATOM      4  C   UNL d   1      32.140  17.827 -24.596  0.00  0.00     0.012 A 
ATOM      5  C   UNL d   1      32.506  18.557 -24.488  0.00  0.00     0.004 A 
ATOM      6  C   UNL d   1      32.870  18.734 -23.769  0.00  0.00     0.045 A 
ATOM      7  O   UNL d   1      33.238  18.359 -22.433  0.00  0.00    -0.279 OA
ATOM      8  C   UNL d   1      32.507  19.110 -25.097  0.00  0.00     0.000 A 
ATOM      9  C   UNL d   1      33.240  19.465 -23.653  0.00  0.00     0.004 A 
ATOM     10  C   UNL d   1      32.872  19.840 -24.989  0.00  0.00     0.000 A 
ATOM     11  C   UNL d   1      33.241  20.018 -24.262  0.00  0.00     0.000 A 
ENDROOT
BRANCH   1  12
ATOM     12  C   UNL d   1      31.774  16.535 -24.083  0.00  0.00     0.302 C 
ATOM     13  O   UNL d   1      32.221  15.895 -24.349  0.00  0.00    -0.259 OA
BRANCH  12  14
ATOM     14  O   UNL d   1      30.977  16.433 -23.923  0.00  0.00    -0.295 OA
ATOM     15  C   UNL d   1      30.637  15.676 -23.997  0.00  0.00     0.185 C 
ENDBRANCH  12  14
ENDBRANCH   1  12
TORSDOF 2
ENDMDL
MODEL 5
REMARK VINA RESULT:      -2.0      5.547      6.823
REMARK  2 active torsions:
REMARK  status: ('A' for Active; 'I' for Inactive)
REMARK    1  A    between atoms: C_6  and  C_1 
REMARK    2  A    between atoms: O_10  and  C_6 
ROOT
ATOM      1  C   UNL d   1      32.694  22.892 -20.429  0.00  0.00     0.096 A 
ATOM      2  S   UNL d   1      32.746  22.061 -20.464  0.00  0.00    -0.040 SA
ATOM      3  C   UNL d   1      32.896  21.687 -21.189  0.00  0.00     0.226 A 
ATOM      4  C   UNL d   1      32.794  23.341 -21.120  0.00  0.00     0.012 A 
ATOM      5  C   UNL d   1      32.943  22.967 -21.838  0.00  0.00     0.004 A 
ATOM      6  C   UNL d   1      32.994  22.144 -21.873  0.00  0.00     0.045 A 
ATOM      7  O   UNL d   1      32.947  20.865 -21.224  0.00  0.00    -0.279 OA
ATOM      8  C   UNL d   1      33.041  23.415 -22.521  0.00  0.00     0.000 A 
ATOM      9  C   UNL d   1      33.143  21.762 -22.591  0.00  0.00     0.004 A 
ATOM     10  C   UNL d   1      33.190  23.041 -23.240  0.00  0.00     0.000 A 
ATOM     11  C   UNL d   1      33.241  22.210 -23.275  0.00  0.00     0.000 A 
ENDROOT
BRANCH   1  12
ATOM     12  C   UNL d   1      32.545  23.258 -19.707  0.00  0.00     0.302 C 
ATOM     13  O   UNL d   1      31.837  23.667 -19.599  0.00  0.00    -0.259 OA
BRANCH  12  14
ATOM     14  O   UNL d   1      33.089  23.222 -19.094  0.00  0.00    -0.295 OA
ATOM     15  C   UNL d   1      32.927  23.616 -18.377  0.00  0.00     0.185 C 
ENDBRANCH  12  14
ENDBRANCH   1  12
TORSDOF 2
ENDMDL
MODEL 6
REMARK VINA RESULT:      -2.0      4.059      5.118
REMARK  2 active torsions:
REMARK  status: ('A' for Active; 'I' for Inactive)
REMARK    1  A    between atoms: C_6  and  C_1 
REMARK    2  A    between atoms: O_10  and  C_6 
ROOT
ATOM      1  C   UNL d   1      32.758  21.749 -21.779  0.00  0.00     0.096 A 
ATOM      2  S   UNL d   1      32.816  21.284 -21.089  0.00  0.00    -0.040 SA
ATOM      3  C   UNL d   1      32.951  20.468 -21.153  0.00  0.00     0.226 A 
ATOM      4  C   UNL d   1      32.837  21.393 -22.524  0.00  0.00     0.012 A 
ATOM      5  C   UNL d   1      32.972  20.583 -22.584  0.00  0.00     0.004 A 
ATOM      6  C   UNL d   1      33.028  20.123 -21.902  0.00  0.00     0.045 A 
ATOM      7  O   UNL d   1      33.008  20.007 -20.471  0.00  0.00    -0.279 OA
ATOM      8  C   UNL d   1      33.049  20.234 -23.324  0.00  0.00     0.000 A 
ATOM      9  C   UNL d   1      33.163  19.308 -21.953  0.00  0.00     0.004 A 
ATOM     10  C   UNL d   1      33.184  19.423 -23.384  0.00  0.00     0.000 A 
ATOM     11  C   UNL d   1      33.241  18.958 -22.695  0.00  0.00     0.000 A 
ENDROOT
BRANCH   1  12
ATOM     12  C   UNL d   1      32.624  22.558 -21.710  0.00  0.00     0.302 C 
ATOM     13  O   UNL d   1      33.207  23.088 -21.956  0.00  0.00    -0.259 OA
BRANCH  12  14
ATOM     14  O   UNL d   1      31.921  22.845 -21.402  0.00  0.00    -0.295 OA
ATOM     15  C   UNL d   1      31.764  23.664 -21.429  0.00  0.00     0.185 C 
ENDBRANCH  12  14
ENDBRANCH   1  12
TORSDOF 2
ENDMDL
MODEL 7
REMARK VINA RESULT:      -1.8      3.454      4.445
REMARK  2 active torsions:
REMARK  status: ('A' for Active; 'I' for Inactive)
REMARK    1  A    between atoms: C_6  and  C_1 
REMARK    2  A    between atoms: O_10  and  C_6 
ROOT
ATOM      1  C   UNL d   1      32.773  20.602 -21.951  0.00  0.00     0.096 A 
ATOM      2  S   UNL d   1      32.930  20.962 -22.687  0.00  0.00    -0.040 SA
ATOM      3  C   UNL d   1      33.086  20.490 -23.351  0.00  0.00     0.226 A 
ATOM      4  C   UNL d   1      32.774  19.775 -21.888  0.00  0.00     0.012 A 
ATOM      5  C   UNL d   1      32.929  19.310 -22.549  0.00  0.00     0.004 A 
ATOM      6  C   UNL d   1      33.084  19.665 -23.277  0.00  0.00     0.045 A 
ATOM      7  O   UNL d   1      33.241  20.846 -24.079  0.00  0.00    -0.279 OA
ATOM      8  C   UNL d   1      32.929  18.490 -22.483  0.00  0.00     0.000 A 
ATOM      9  C   UNL d   1      33.241  19.204 -23.946  0.00  0.00     0.004 A 
ATOM     10  C   UNL d   1      33.084  18.024 -23.144  0.00  0.00     0.000 A 
ATOM     11  C   UNL d   1      33.241  18.384 -23.880  0.00  0.00     0.000 A 
ENDROOT
BRANCH   1  12
ATOM     12  C   UNL d   1      32.619  21.075 -21.295  0.00  0.00     0.302 C 
ATOM     13  O   UNL d   1      31.840  21.280 -21.117  0.00  0.00    -0.259 OA
BRANCH  12  14
ATOM     14  O   UNL d   1      33.227  21.345 -20.817  0.00  0.00    -0.295 OA
ATOM     15  C   UNL d   1      33.100  22.007 -20.324  0.00  0.00     0.185 C 
ENDBRANCH  12  14
ENDBRANCH   1  12
TORSDOF 2
ENDMDL
MODEL 8
REMARK VINA RESULT:      -0.1      3.481      5.724
REMARK  2 active torsions:
REMARK  status: ('A' for Active; 'I' for Inactive)
REMARK    1  A    between atoms: C_6  and  C_1 
REMARK    2  A    between atoms: O_10  and  C_6 
ROOT
ATOM      1  C   UNL d   1      32.798  20.732 -22.269  0.00  0.00     0.096 A 
ATOM      2  S   UNL d   1      32.943  21.025 -21.502  0.00  0.00    -0.040 SA
ATOM      3  C   UNL d   1      33.090  21.834 -21.390  0.00  0.00     0.226 A 
ATOM      4  C   UNL d   1      32.800  21.251 -22.915  0.00  0.00     0.012 A 
ATOM      5  C   UNL d   1      32.947  22.054 -22.802  0.00  0.00     0.004 A 
ATOM      6  C   UNL d   1      33.091  22.344 -22.043  0.00  0.00     0.045 A 
ATOM      7  O   UNL d   1      33.235  22.123 -20.632  0.00  0.00    -0.279 OA
ATOM      8  C   UNL d   1      32.949  22.566 -23.445  0.00  0.00     0.000 A 
ATOM      9  C   UNL d   1      33.239  23.148 -21.920  0.00  0.00     0.004 A 
ATOM     10  C   UNL d   1      33.095  23.368 -23.332  0.00  0.00     0.000 A 
ATOM     11  C   UNL d   1      33.241  23.661 -22.565  0.00  0.00     0.000 A 
ENDROOT
BRANCH   1  12
ATOM     12  C   UNL d   1      32.652  19.929 -22.374  0.00  0.00     0.302 C 
ATOM     13  O   UNL d   1      31.904  19.626 -22.200  0.00  0.00    -0.259 OA
BRANCH  12  14
ATOM     14  O   UNL d   1      33.238  19.425 -22.647  0.00  0.00    -0.295 OA
ATOM     15  C   UNL d   1      33.039  18.648 -22.874  0.00  0.00     0.185 C 
ENDBRANCH  12  14
ENDBRANCH   1  12
TORSDOF 2
ENDMDL
