MODEL 1
REMARK VINA RESULT:     101.4      0.000      0.000
REMARK  4 active torsions:
REMARK  status: ('A' for Active; 'I' for Inactive)
REMARK    1  A    between atoms: C_2  and  C_1 
REMARK    2  A    between atoms: C_16  and  C_4 
REMARK    3  A    between atoms: C_28  and  C_15 
REMARK    4  A    between atoms: N_17  and  C_16 
ROOT
ATOM      1  C   UNL d   1     -49.105  28.119  34.219  0.00  0.00     0.098 A 
ATOM      2  C   UNL d   1     -47.649  30.041  34.811  0.00  0.00     0.079 A 
ATOM      3  C   UNL d   1     -48.400  28.892  35.205  0.00  0.00     0.062 A 
ATOM      4  C   UNL d   1     -48.883  28.252  35.016  0.00  0.00     0.202 A 
ATOM      5  C   UNL d   1     -48.126  29.412  34.615  0.00  0.00     0.108 A 
ATOM      6  C   UNL d   1     -48.830  28.639  33.628  0.00  0.00     0.129 A 
ATOM      7  O   UNL d   1     -48.340  29.287  33.821  0.00  0.00    -0.305 OA
ATOM      8  C   UNL d   1     -47.434  30.168  35.595  0.00  0.00     0.199 A 
ATOM      9  C   UNL d   1     -48.186  29.017  35.992  0.00  0.00     0.008 A 
ATOM     10  C   UNL d   1     -47.705  29.655  36.178  0.00  0.00     0.039 A 
ATOM     11  O   UNL d   1     -49.150  27.744  35.600  0.00  0.00    -0.286 OA
ATOM     12  O   UNL d   1     -46.953  30.801  35.798  0.00  0.00    -0.286 OA
ENDROOT
BRANCH   1  13
ATOM     13  C   UNL d   1     -49.588  27.480  34.023  0.00  0.00     0.153 A 
ATOM     14  N   UNL d   1     -49.367  26.680  34.036  0.00  0.00    -0.227 NA
ATOM     15  C   UNL d   1     -50.025  26.235  33.800  0.00  0.00     0.099 A 
ATOM     16  C   UNL d   1     -50.126  25.427  33.712  0.00  0.00     0.021 A 
ATOM     17  C   UNL d   1     -50.639  26.748  33.643  0.00  0.00     0.083 A 
ATOM     18  C   UNL d   1     -50.854  25.130  33.463  0.00  0.00     0.002 A 
ATOM     19  C   UNL d   1     -51.472  25.643  33.306  0.00  0.00     0.002 A 
ATOM     20  C   UNL d   1     -51.365  26.465  33.396  0.00  0.00     0.019 A 
ATOM     21  N   UNL d   1     -50.372  27.529  33.781  0.00  0.00    -0.288 N 
ATOM     22  C   UNL d   1     -50.807  28.226  33.694  0.00  0.00     0.101 C 
ENDBRANCH   1  13
BRANCH  10  23
ATOM     23  C   UNL d   1     -47.486  29.785  36.972  0.00  0.00     0.003 C 
ATOM     24  C   UNL d   1     -46.689  29.859  37.181  0.00  0.00     0.000 C 
ENDBRANCH  10  23
BRANCH   2  25
ATOM     25  C   UNL d   1     -47.378  30.554  34.228  0.00  0.00     0.086 C 
BRANCH  25  26
ATOM     26  N   UNL d   1     -47.667  31.317  34.187  0.00  0.00    -0.300 N 
ATOM     27  C   UNL d   1     -47.197  31.956  34.442  0.00  0.00     0.100 A 
ATOM     28  C   UNL d   1     -47.504  32.734  34.396  0.00  0.00     0.100 A 
ATOM     29  N   UNL d   1     -48.261  32.868  34.102  0.00  0.00    -0.299 N 
ATOM     30  C   UNL d   1     -48.724  32.224  33.849  0.00  0.00     0.100 A 
ATOM     31  C   UNL d   1     -48.560  33.640  34.058  0.00  0.00     0.100 C 
ATOM     32  C   UNL d   1     -48.428  31.454  33.892  0.00  0.00     0.100 A 
ENDBRANCH  25  26
ENDBRANCH   2  25
TORSDOF 4
ENDMDL
