MODEL 1
REMARK VINA RESULT:      10.6      0.000      0.000
REMARK  11 active torsions:
REMARK  status: ('A' for Active; 'I' for Inactive)
REMARK    1  A    between atoms: C_2  and  C_1 
REMARK       I    between atoms: N_5  and  C_1 
REMARK    2  A    between atoms: C_4  and  C_2 
REMARK    3  A    between atoms: C_3  and  C_4 
REMARK    4  A    between atoms: O_10  and  C_3 
REMARK    5  A    between atoms: N_9  and  C_4 
REMARK    6  A    between atoms: C_8  and  N_5 
REMARK    7  A    between atoms: C_17  and  N_9 
REMARK    8  A    between atoms: O_16  and  C_11 
REMARK    9  A    between atoms: C_19  and  C_17 
REMARK   10  A    between atoms: C_21  and  C_19 
REMARK   11  A    between atoms: C_20  and  C_21 
ROOT
ATOM      1  C   UNK d   1      45.705 -15.306  44.879  0.00  0.00     0.084 C 
ENDROOT
BRANCH   1   2
ATOM      2  C   UNK d   1      45.773 -15.979  44.397  0.00  0.00     0.259 C 
ATOM      3  N   UNK d   1      46.083 -16.675  44.705  0.00  0.00    -0.321 N 
ATOM      4  H   UNK d   1      46.328 -16.711  45.493  0.00  0.00     0.169 HD
ATOM      5  O   UNK d   1      45.527 -15.938  43.613  0.00  0.00    -0.267 OA
BRANCH   3   6
ATOM      6  C   UNK d   1      46.148 -17.348  44.213  0.00  0.00     0.059 A 
ATOM      7  C   UNK d   1      46.236 -18.093  44.548  0.00  0.00     0.019 A 
ATOM      8  C   UNK d   1      46.299 -18.752  44.059  0.00  0.00     0.026 A 
ATOM      9  C   UNK d   1      46.276 -18.670  43.239  0.00  0.00     0.094 A 
ATOM     10  C   UNK d   1      46.187 -17.918  42.908  0.00  0.00     0.026 A 
ATOM     11  C   UNK d   1      46.124 -17.258  43.403  0.00  0.00     0.019 A 
BRANCH   9  12
ATOM     12  O   UNK d   1      46.339 -19.330  42.751  0.00  0.00    -0.328 OA
ATOM     13  C   UNK d   1      46.236 -20.082  43.062  0.00  0.00     0.181 C 
ENDBRANCH   9  12
ENDBRANCH   3   6
ENDBRANCH   1   2
BRANCH   1  14
ATOM     14  C   UNK d   1      45.255 -14.667  44.639  0.00  0.00     0.124 C 
BRANCH  14  15
ATOM     15  C   UNK d   1      44.454 -14.630  44.830  0.00  0.00     0.194 C 
ATOM     16  O   UNK d   1      44.020 -15.329  44.954  0.00  0.00    -0.645 OA
BRANCH  15  17
ATOM     17  O   UNK d   1      44.079 -13.904  44.901  0.00  0.00    -0.772 OA
ATOM     18  H   UNK d   1      43.256 -13.863  44.885  0.00  0.00     0.167 HD
ENDBRANCH  15  17
ENDBRANCH  14  15
BRANCH  14  19
ATOM     19  N   UNK d   1      45.606 -14.054  44.201  0.00  0.00    -0.347 N 
ATOM     20  H   UNK d   1      46.149 -14.237  43.607  0.00  0.00     0.166 HD
BRANCH  19  21
ATOM     21  C   UNK d   0      45.413 -13.270  44.361  0.00  0.00     0.073 C 
BRANCH  21  22
ATOM     22  C   UNK d   0      45.523 -12.694  43.781  0.00  0.00     0.018 C 
BRANCH  22  23
ATOM     23  C   UNK d   0      45.200 -12.811  43.028  0.00  0.00     0.002 C 
BRANCH  23  24
ATOM     24  C   UNK d   0      44.946 -12.173  42.574  0.00  0.00     0.000 C 
ATOM     25  C   UNK d   0      45.130 -12.158  41.769  0.00  0.00     0.000 C 
ENDBRANCH  23  24
ENDBRANCH  22  23
ENDBRANCH  21  22
ENDBRANCH  19  21
ENDBRANCH  14  19
ENDBRANCH   1  14
TORSDOF 11
ENDMDL
