MODEL 1
REMARK VINA RESULT:      24.2      0.000      0.000
REMARK  9 active torsions:
REMARK  status: ('A' for Active; 'I' for Inactive)
REMARK    1  A    between atoms: C_2  and  S_1 
REMARK    2  A    between atoms: N_3  and  S_1 
REMARK    3  A    between atoms: C_14  and  N_3 
REMARK    4  A    between atoms: C_15  and  N_3 
REMARK    5  A    between atoms: C_6  and  C_7 
REMARK    6  A    between atoms: C_7  and  C_8 
REMARK    7  A    between atoms: C_8  and  C_12 
REMARK    8  A    between atoms: C_21  and  C_14 
REMARK    9  A    between atoms: C_20  and  C_15 
ROOT
ATOM      1  C   UNL d   1      14.063  12.580  -1.914  0.00  0.00     0.104 A 
ATOM      2  C   UNL d   1      13.490  12.065  -1.610  0.00  0.00     0.012 A 
ATOM      3  C   UNL d   1      14.037  12.810  -2.720  0.00  0.00     0.013 A 
ATOM      4  C   UNL d   1      13.446  12.525  -3.202  0.00  0.00     0.001 A 
ATOM      5  C   UNL d   1      12.900  11.780  -2.092  0.00  0.00     0.001 A 
ATOM      6  C   UNL d   1      12.866  12.002  -2.891  0.00  0.00     0.000 A 
ATOM      7  C   UNL d   1      13.522  11.843  -0.815  0.00  0.00     0.001 C 
ENDROOT
BRANCH   1   8
ATOM      8  S   UNL d   1      14.669  12.873  -1.418  0.00  0.00     0.272 S 
ATOM      9  O   UNL d   1      14.484  13.647  -1.650  0.00  0.00    -0.200 OA
ATOM     10  O   UNL d   1      14.852  12.106  -1.189  0.00  0.00    -0.200 OA
BRANCH   8  11
ATOM     11  N   UNL d   1      15.260  13.159  -0.935  0.00  0.00    -0.223 N 
BRANCH  11  12
ATOM     12  C   UNL d   1      15.944  12.693  -0.788  0.00  0.00     0.137 C 
BRANCH  12  13
ATOM     13  C   UNL d   1      16.366  12.381  -1.411  0.00  0.00     0.254 C 
ATOM     14  O   UNL d   1      17.005  11.883  -1.272  0.00  0.00    -0.281 OA
ENDBRANCH  12  13
ENDBRANCH  11  12
BRANCH  11  15
ATOM     15  C   UNL d   1      15.192  13.909  -0.587  0.00  0.00     0.137 C 
BRANCH  15  16
ATOM     16  C   UNL d   1      15.844  14.229  -0.190  0.00  0.00     0.254 C 
ATOM     17  O   UNL d   1      15.847  15.035  -0.016  0.00  0.00    -0.281 OA
ENDBRANCH  15  16
ENDBRANCH  11  15
ENDBRANCH   8  11
ENDBRANCH   1   8
BRANCH   4  18
ATOM     18  C   UNL d   1      13.410  12.743  -3.995  0.00  0.00     0.006 C 
BRANCH  18  19
ATOM     19  C   UNL d   1      13.692  12.237  -4.573  0.00  0.00     0.070 C 
BRANCH  19  20
ATOM     20  C   UNL d   1      13.550  12.374  -5.370  0.00  0.00     0.211 C 
ATOM     21  O   UNL d   1      13.274  13.127  -5.612  0.00  0.00    -0.644 OA
ATOM     22  O   UNL d   1      13.671  11.795  -5.921  0.00  0.00    -0.644 OA
ENDBRANCH  19  20
ENDBRANCH  18  19
ENDBRANCH   4  18
TORSDOF 9
ENDMDL
