MODEL 1
REMARK VINA RESULT:      -2.6      0.000      0.000
REMARK  3 active torsions:
REMARK  status: ('A' for Active; 'I' for Inactive)
REMARK    1  A    between atoms: C_11  and  C_6 
REMARK       I    between atoms: N_15  and  C_11 
REMARK    2  A    between atoms: C_23  and  N_15 
REMARK    3  A    between atoms: C_22  and  C_23 
ROOT
ATOM      1  C   UNL d   1      33.182  21.434 -22.816  0.00  0.00     0.155 A 
ATOM      2  C   UNL d   1      33.162  20.687 -22.461  0.00  0.00     0.091 A 
ATOM      3  N   UNL d   1      33.199  22.109 -22.345  0.00  0.00    -0.210 NA
ATOM      4  N   UNL d   1      33.176  21.298 -21.174  0.00  0.00    -0.258 N 
ATOM      5  N   UNL d   1      33.185  21.496 -23.635  0.00  0.00    -0.272 N 
ATOM      6  C   UNL d   1      33.148  20.071 -23.758  0.00  0.00     0.094 A 
ATOM      7  C   UNL d   1      33.196  22.041 -21.536  0.00  0.00     0.152 A 
ATOM      8  C   UNL d   1      33.159  20.618 -21.636  0.00  0.00     0.269 A 
ATOM      9  C   UNL d   1      33.167  20.810 -24.109  0.00  0.00     0.175 A 
ATOM     10  C   UNL d   1      33.145  20.005 -22.926  0.00  0.00     0.016 A 
ATOM     11  C   UNL d   1      33.213  22.719 -21.060  0.00  0.00     0.035 A 
ATOM     12  C   UNL d   1      33.173  21.228 -20.352  0.00  0.00     0.084 A 
ATOM     13  N   UNL d   1      33.170  20.878 -24.936  0.00  0.00    -0.128 N 
ATOM     14  O   UNL d   1      33.139  19.877 -21.284  0.00  0.00    -0.266 OA
ATOM     15  C   UNL d   1      33.190  21.907 -19.892  0.00  0.00     0.019 A 
ATOM     16  C   UNL d   1      33.210  22.654 -20.247  0.00  0.00     0.005 A 
ATOM     17  C   UNL d   1      33.204  22.240 -23.988  0.00  0.00     0.102 C 
ATOM     18  C   UNL d   1      33.233  23.463 -21.414  0.00  0.00     0.003 C 
ENDROOT
BRANCH   6  19
ATOM     19  C   UNL d   1      33.130  19.387 -24.228  0.00  0.00     0.282 C 
ATOM     20  N   UNL d   1      33.003  18.653 -23.875  0.00  0.00    -0.206 NA
ATOM     21  O   UNL d   1      33.240  19.443 -25.040  0.00  0.00    -0.265 OA
BRANCH  20  22
ATOM     22  C   UNL d   1      32.986  17.977 -24.344  0.00  0.00     0.104 C 
BRANCH  22  23
ATOM     23  C   UNL d   1      32.691  17.271 -24.030  0.00  0.00     0.038 A 
ATOM     24  C   UNL d   1      33.195  16.772 -23.610  0.00  0.00     0.101 A 
ATOM     25  N   UNL d   1      32.905  16.067 -23.295  0.00  0.00    -0.242 NA
ATOM     26  C   UNL d   1      32.114  15.864 -23.402  0.00  0.00     0.099 A 
ATOM     27  C   UNL d   1      31.609  16.366 -23.824  0.00  0.00     0.021 A 
ATOM     28  C   UNL d   1      31.905  17.070 -24.136  0.00  0.00     0.005 A 
ENDBRANCH  22  23
ENDBRANCH  20  22
ENDBRANCH   6  19
TORSDOF 3
ENDMDL
