MODEL 1
REMARK VINA RESULT:      -0.2      0.000      0.000
REMARK  7 active torsions:
REMARK  status: ('A' for Active; 'I' for Inactive)
REMARK    1  A    between atoms: C_5  and  C_1 
REMARK    2  A    between atoms: N_3  and  C_2 
REMARK    3  A    between atoms: C_14  and  C_5 
REMARK    4  A    between atoms: C_10  and  C_6 
REMARK    5  A    between atoms: O_19  and  C_10 
REMARK    6  A    between atoms: O_22  and  C_18 
REMARK    7  A    between atoms: C_26  and  O_19 
ROOT
ATOM      1  C   UNL d   1      57.790   0.195  31.700  0.00  0.00     0.074 A 
ATOM      2  C   UNL d   1      58.390   0.162  31.118  0.00  0.00     0.070 A 
ATOM      3  C   UNL d   1      59.174   0.319  31.321  0.00  0.00     0.036 A 
ATOM      4  C   UNL d   1      57.986   0.385  32.479  0.00  0.00     0.103 A 
ATOM      5  N   UNL d   1      58.783   0.543  32.679  0.00  0.00    -0.244 NA
ATOM      6  C   UNL d   1      59.371   0.509  32.100  0.00  0.00     0.083 A 
ATOM      7  C   UNL d   1      59.762   0.285  30.742  0.00  0.00     0.027 A 
ATOM      8  C   UNL d   1      60.155   0.666  32.303  0.00  0.00     0.021 A 
ATOM      9  C   UNL d   1      60.547   0.442  30.945  0.00  0.00     0.094 A 
ATOM     10  C   UNL d   1      60.743   0.632  31.724  0.00  0.00     0.026 A 
ENDROOT
BRANCH   2  11
ATOM     11  N   UNL d   1      58.192  -0.029  30.334  0.00  0.00    -0.303 N 
ATOM     12  C   UNL d   1      58.300  -0.798  30.056  0.00  0.00     0.086 A 
ATOM     13  C   UNL d   1      58.102  -0.990  29.268  0.00  0.00     0.081 A 
ATOM     14  C   UNL d   1      57.797  -0.411  28.766  0.00  0.00     0.008 A 
ATOM     15  C   UNL d   1      57.689   0.358  29.044  0.00  0.00     0.019 A 
ATOM     16  C   UNL d   1      57.888   0.550  29.832  0.00  0.00     0.080 A 
BRANCH  13  17
ATOM     17  C   UNL d   1      58.212  -1.772  28.989  0.00  0.00     0.302 C 
ATOM     18  O   UNL d   1      57.657  -2.094  28.455  0.00  0.00    -0.259 OA
BRANCH  17  19
ATOM     19  O   UNL d   1      58.862  -2.213  29.241  0.00  0.00    -0.271 OA
BRANCH  19  20
ATOM     20  C   UNL d   1      59.021  -2.945  28.896  0.00  0.00     0.126 C 
ATOM     21  C   UNL d   1      59.785  -3.256  28.924  0.00  0.00     0.029 C 
ENDBRANCH  19  20
ENDBRANCH  17  19
ENDBRANCH  13  17
ENDBRANCH   2  11
BRANCH   1  22
ATOM     22  C   UNL d   1      57.005   0.038  31.497  0.00  0.00     0.198 C 
ATOM     23  O   UNL d   1      56.723   0.198  30.737  0.00  0.00    -0.286 OA
BRANCH  22  24
ATOM     24  C   UNL d   1      56.494  -0.282  32.059  0.00  0.00     0.039 A 
ATOM     25  C   UNL d   1      55.890   0.184  32.377  0.00  0.00     0.003 A 
ATOM     26  C   UNL d   1      55.368  -0.135  32.947  0.00  0.00     0.000 A 
ATOM     27  C   UNL d   1      55.468  -0.920  33.183  0.00  0.00     0.000 A 
ATOM     28  C   UNL d   1      56.070  -1.386  32.865  0.00  0.00     0.000 A 
ATOM     29  C   UNL d   1      56.584  -1.066  32.302  0.00  0.00     0.003 A 
ENDBRANCH  22  24
ENDBRANCH   1  22
BRANCH   9  30
ATOM     30  O   UNL d   1      61.133   0.407  30.362  0.00  0.00    -0.328 OA
ATOM     31  C   UNL d   1      60.922   0.504  29.568  0.00  0.00     0.181 C 
ENDBRANCH   9  30
TORSDOF 7
ENDMDL
MODEL 2
REMARK VINA RESULT:       1.8      1.108      3.870
REMARK  7 active torsions:
REMARK  status: ('A' for Active; 'I' for Inactive)
REMARK    1  A    between atoms: C_5  and  C_1 
REMARK    2  A    between atoms: N_3  and  C_2 
REMARK    3  A    between atoms: C_14  and  C_5 
REMARK    4  A    between atoms: C_10  and  C_6 
REMARK    5  A    between atoms: O_19  and  C_10 
REMARK    6  A    between atoms: O_22  and  C_18 
REMARK    7  A    between atoms: C_26  and  O_19 
ROOT
ATOM      1  C   UNL d   1      57.892  -1.816  29.761  0.00  0.00     0.074 A 
ATOM      2  C   UNL d   1      57.982  -1.081  30.149  0.00  0.00     0.070 A 
ATOM      3  C   UNL d   1      57.596  -0.939  30.864  0.00  0.00     0.036 A 
ATOM      4  C   UNL d   1      57.415  -2.400  30.097  0.00  0.00     0.103 A 
ATOM      5  N   UNL d   1      57.026  -2.250  30.822  0.00  0.00    -0.244 NA
ATOM      6  C   UNL d   1      57.118  -1.523  31.201  0.00  0.00     0.083 A 
ATOM      7  C   UNL d   1      57.688  -0.211  31.243  0.00  0.00     0.027 A 
ATOM      8  C   UNL d   1      56.732  -1.381  31.916  0.00  0.00     0.021 A 
ATOM      9  C   UNL d   1      57.301  -0.069  31.958  0.00  0.00     0.094 A 
ATOM     10  C   UNL d   1      56.824  -0.653  32.294  0.00  0.00     0.026 A 
ENDROOT
BRANCH   2  11
ATOM     11  N   UNL d   1      58.462  -0.493  29.811  0.00  0.00    -0.303 N 
ATOM     12  C   UNL d   1      59.250  -0.419  30.044  0.00  0.00     0.086 A 
ATOM     13  C   UNL d   1      59.733   0.172  29.704  0.00  0.00     0.081 A 
ATOM     14  C   UNL d   1      59.422   0.682  29.135  0.00  0.00     0.008 A 
ATOM     15  C   UNL d   1      58.635   0.607  28.901  0.00  0.00     0.019 A 
ATOM     16  C   UNL d   1      58.152   0.017  29.241  0.00  0.00     0.080 A 
BRANCH  13  17
ATOM     17  C   UNL d   1      60.532   0.246  29.943  0.00  0.00     0.302 C 
ATOM     18  O   UNL d   1      61.129  -0.096  29.469  0.00  0.00    -0.259 OA
BRANCH  17  19
ATOM     19  O   UNL d   1      60.721   0.651  30.636  0.00  0.00    -0.271 OA
BRANCH  19  20
ATOM     20  C   UNL d   1      61.095   0.254  31.255  0.00  0.00     0.126 C 
ATOM     21  C   UNL d   1      61.079   0.572  32.016  0.00  0.00     0.029 C 
ENDBRANCH  19  20
ENDBRANCH  17  19
ENDBRANCH  13  17
ENDBRANCH   2  11
BRANCH   1  22
ATOM     22  C   UNL d   1      58.279  -1.958  29.045  0.00  0.00     0.198 C 
ATOM     23  O   UNL d   1      58.332  -1.371  28.467  0.00  0.00    -0.286 OA
BRANCH  22  24
ATOM     24  C   UNL d   1      58.618  -2.696  28.903  0.00  0.00     0.039 A 
ATOM     25  C   UNL d   1      59.437  -2.790  28.962  0.00  0.00     0.003 A 
ATOM     26  C   UNL d   1      59.787  -3.535  28.819  0.00  0.00     0.000 A 
ATOM     27  C   UNL d   1      59.300  -4.172  28.619  0.00  0.00     0.000 A 
ATOM     28  C   UNL d   1      58.482  -4.079  28.560  0.00  0.00     0.000 A 
ATOM     29  C   UNL d   1      58.141  -3.340  28.703  0.00  0.00     0.003 A 
ENDBRANCH  22  24
ENDBRANCH   1  22
BRANCH   9  30
ATOM     30  O   UNL d   1      57.396   0.662  32.335  0.00  0.00    -0.328 OA
ATOM     31  C   UNL d   1      57.650   0.682  33.122  0.00  0.00     0.181 C 
ENDBRANCH   9  30
TORSDOF 7
ENDMDL
