MODEL 1
REMARK VINA RESULT:      81.5      0.000      0.000
REMARK  5 active torsions:
REMARK  status: ('A' for Active; 'I' for Inactive)
REMARK    1  A    between atoms: C_7  and  C_2 
REMARK    2  A    between atoms: C_9  and  C_4 
REMARK    3  A    between atoms: C_16  and  C_7 
REMARK    4  A    between atoms: N_8  and  C_9 
REMARK    5  A    between atoms: C_23  and  C_14 
ROOT
ATOM      1  C   UNL d   1     -54.938-101.227 -43.025  0.00  0.00     0.108 A 
ATOM      2  C   UNL d   1     -54.873-101.042 -41.696  0.00  0.00     0.139 A 
ATOM      3  O   UNL d   1     -54.894-100.648 -42.431  0.00  0.00    -0.304 OA
ATOM      4  C   UNL d   1     -54.972-101.170 -43.838  0.00  0.00     0.079 A 
ATOM      5  C   UNL d   1     -54.943-101.970 -42.661  0.00  0.00     0.064 A 
ATOM      6  C   UNL d   1     -54.903-101.852 -41.841  0.00  0.00     0.220 A 
ATOM      7  C   UNL d   1     -54.984-102.654 -43.119  0.00  0.00     0.009 A 
ATOM      8  C   UNL d   1     -55.013-101.854 -44.292  0.00  0.00     0.199 A 
ATOM      9  O   UNL d   1     -54.895-102.450 -41.268  0.00  0.00    -0.284 OA
ATOM     10  C   UNL d   1     -55.018-102.594 -43.934  0.00  0.00     0.042 A 
ATOM     11  O   UNL d   1     -55.047-101.796 -45.114  0.00  0.00    -0.286 OA
ENDROOT
BRANCH   2  12
ATOM     12  C   UNL d   1     -54.829-100.678 -40.954  0.00  0.00     0.028 C 
BRANCH  12  13
ATOM     13  C   UNL d   1     -55.004-101.108 -40.271  0.00  0.00     0.002 A 
ATOM     14  C   UNL d   1     -54.769-101.897 -40.207  0.00  0.00     0.000 A 
ATOM     15  C   UNL d   1     -54.944-102.327 -39.524  0.00  0.00     0.000 A 
ATOM     16  C   UNL d   1     -55.355-101.966 -38.906  0.00  0.00     0.000 A 
ATOM     17  C   UNL d   1     -55.591-101.177 -38.971  0.00  0.00     0.000 A 
ATOM     18  C   UNL d   1     -55.416-100.747 -39.654  0.00  0.00     0.000 A 
BRANCH  16  19
ATOM     19  C   UNL d   1     -55.530-102.395 -38.224  0.00  0.00     0.000 C 
ATOM     20  C   UNL d   1     -55.037-102.343 -37.563  0.00  0.00     0.000 C 
ATOM     21  C   UNL d   1     -56.202-102.880 -38.202  0.00  0.00     0.000 C 
ENDBRANCH  16  19
ENDBRANCH  12  13
ENDBRANCH   2  12
BRANCH   4  22
ATOM     22  C   UNL d   1     -54.967-100.440 -44.205  0.00  0.00     0.086 C 
BRANCH  22  23
ATOM     23  N   UNL d   1     -55.614-100.046 -44.526  0.00  0.00    -0.300 N 
ATOM     24  C   UNL d   1     -56.210-100.471 -44.893  0.00  0.00     0.100 A 
ATOM     25  C   UNL d   1     -56.856-100.086 -45.215  0.00  0.00     0.100 A 
ATOM     26  N   UNL d   1     -56.898 -99.269 -45.164  0.00  0.00    -0.299 N 
ATOM     27  C   UNL d   1     -56.301 -98.844 -44.798  0.00  0.00     0.100 A 
ATOM     28  C   UNL d   1     -57.540 -98.874 -45.483  0.00  0.00     0.100 C 
ATOM     29  C   UNL d   1     -55.662 -99.241 -44.481  0.00  0.00     0.100 A 
ENDBRANCH  22  23
ENDBRANCH   4  22
TORSDOF 5
ENDMDL
