MODEL 1
REMARK VINA RESULT:       2.0      0.000      0.000
REMARK  4 active torsions:
REMARK  status: ('A' for Active; 'I' for Inactive)
REMARK    1  A    between atoms: C_4  and  N_1 
REMARK    2  A    between atoms: S_8  and  C_5 
REMARK    3  A    between atoms: C_10  and  C_7 
REMARK    4  A    between atoms: C_9  and  S_8 
ROOT
ATOM      1  N   UNL d   1      32.582  19.740 -22.919  0.00  0.00    -0.241 N 
ATOM      2  C   UNL d   1      32.811  19.187 -22.357  0.00  0.00     0.268 A 
ATOM      3  C   UNL d   1      32.162  19.347 -23.515  0.00  0.00     0.273 A 
ATOM      4  C   UNL d   1      32.133  18.551 -23.316  0.00  0.00     0.091 A 
ATOM      5  C   UNL d   1      32.533  18.448 -22.600  0.00  0.00     0.072 A 
ATOM      6  O   UNL d   1      33.241  19.341 -21.669  0.00  0.00    -0.267 OA
ATOM      7  O   UNL d   1      31.833  19.694 -24.186  0.00  0.00    -0.266 OA
ENDROOT
BRANCH   1   8
ATOM      8  C   UNL d   1      32.744  20.544 -22.894  0.00  0.00     0.070 A 
ATOM      9  C   UNL d   1      32.577  20.985 -22.211  0.00  0.00     0.016 A 
ATOM     10  C   UNL d   1      32.742  21.796 -22.191  0.00  0.00     0.001 A 
ATOM     11  C   UNL d   1      32.247  20.610 -21.561  0.00  0.00     0.001 A 
ATOM     12  C   UNL d   1      32.576  22.229 -21.517  0.00  0.00     0.000 A 
ATOM     13  C   UNL d   1      33.071  22.166 -22.843  0.00  0.00     0.000 A 
ATOM     14  C   UNL d   1      32.244  21.860 -20.856  0.00  0.00     0.000 A 
ATOM     15  C   UNL d   1      32.080  21.047 -20.881  0.00  0.00     0.000 A 
ATOM     16  C   UNL d   1      33.241  21.731 -23.529  0.00  0.00     0.002 A 
ATOM     17  C   UNL d   1      33.077  20.922 -23.551  0.00  0.00     0.018 A 
ENDBRANCH   1   8
BRANCH   4  18
ATOM     18  S   UNL d   1      31.767  17.950 -23.755  0.00  0.00    -0.082 SA
BRANCH  18  19
ATOM     19  C   UNL d   1      32.109  17.210 -23.662  0.00  0.00     0.035 A 
ATOM     20  C   UNL d   1      31.654  16.534 -23.782  0.00  0.00     0.070 A 
ATOM     21  C   UNL d   1      32.001  15.792 -23.688  0.00  0.00     0.007 A 
ATOM     22  C   UNL d   1      32.792  15.727 -23.476  0.00  0.00     0.000 A 
ATOM     23  C   UNL d   1      33.241  16.405 -23.358  0.00  0.00     0.001 A 
ATOM     24  C   UNL d   1      32.909  17.140 -23.448  0.00  0.00     0.007 A 
BRANCH  20  25
ATOM     25  C   UNL d   1      30.862  16.601 -23.994  0.00  0.00     0.211 C 
ATOM     26  O   UNL d   1      30.273  16.427 -23.443  0.00  0.00    -0.644 OA
ATOM     27  O   UNL d   1      30.660  16.842 -24.758  0.00  0.00    -0.644 OA
ENDBRANCH  20  25
ENDBRANCH  18  19
ENDBRANCH   4  18
TORSDOF 4
ENDMDL
