MODEL 1
REMARK VINA RESULT:      -8.4      0.000      0.000
REMARK  3 active torsions:
REMARK  status: ('A' for Active; 'I' for Inactive)
REMARK       I    between atoms: N_2  and  C_1 
REMARK    1  A    between atoms: C_3  and  C_1 
REMARK    2  A    between atoms: C_8  and  N_2 
REMARK    3  A    between atoms: C_7  and  C_6 
ROOT
ATOM      1  C   UNL d   1     -48.025  13.392  22.721  0.00  0.00     0.279 C 
ATOM      2  N   UNL d   1     -47.376  13.411  23.228  0.00  0.00    -0.208 NA
ATOM      3  O   UNL d   1     -47.938  13.053  21.970  0.00  0.00    -0.265 OA
ENDROOT
BRANCH   1   4
ATOM      4  C   UNL d   1     -48.758  13.704  22.946  0.00  0.00     0.058 A 
ATOM      5  C   UNL d   1     -48.855  14.528  23.025  0.00  0.00     0.005 A 
ATOM      6  C   UNL d   1     -49.586  14.810  23.247  0.00  0.00     0.000 A 
ATOM      7  C   UNL d   1     -49.693  15.632  23.329  0.00  0.00     0.000 A 
ATOM      8  C   UNL d   1     -50.224  14.295  23.393  0.00  0.00     0.000 A 
ATOM      9  C   UNL d   1     -50.439  15.922  23.556  0.00  0.00     0.000 A 
ATOM     10  C   UNL d   1     -51.064  15.401  23.698  0.00  0.00     0.000 A 
ATOM     11  C   UNL d   1     -50.956  14.591  23.616  0.00  0.00     0.000 A 
ATOM     12  C   UNL d   1     -50.121  13.491  23.313  0.00  0.00     0.000 A 
ATOM     13  C   UNL d   1     -49.382  13.184  23.087  0.00  0.00     0.005 A 
ENDBRANCH   1   4
BRANCH   2  14
ATOM     14  C   UNL d   1     -46.644  13.097  22.999  0.00  0.00     0.085 A 
ATOM     15  C   UNL d   1     -46.385  12.392  23.298  0.00  0.00     0.022 A 
ATOM     16  C   UNL d   1     -45.659  12.086  23.069  0.00  0.00     0.041 A 
ATOM     17  C   UNL d   1     -45.169  12.474  22.534  0.00  0.00     0.003 A 
ATOM     18  C   UNL d   1     -45.422  13.194  22.222  0.00  0.00     0.002 A 
ATOM     19  C   UNL d   1     -46.154  13.528  22.438  0.00  0.00     0.019 A 
BRANCH  16  20
ATOM     20  C   UNL d   1     -45.406  11.346  23.393  0.00  0.00     0.196 C 
ATOM     21  O   UNL d   1     -44.612  11.151  23.401  0.00  0.00    -0.287 OA
ATOM     22  C   UNL d   1     -45.970  10.833  23.697  0.00  0.00     0.045 C 
ENDBRANCH  16  20
ENDBRANCH   2  14
TORSDOF 3
ENDMDL
MODEL 2
REMARK VINA RESULT:      -7.7      0.864      1.574
REMARK  3 active torsions:
REMARK  status: ('A' for Active; 'I' for Inactive)
REMARK       I    between atoms: N_2  and  C_1 
REMARK    1  A    between atoms: C_3  and  C_1 
REMARK    2  A    between atoms: C_8  and  N_2 
REMARK    3  A    between atoms: C_7  and  C_6 
ROOT
ATOM      1  C   UNL d   1     -47.778  13.557  22.611  0.00  0.00     0.279 C 
ATOM      2  N   UNL d   1     -47.109  13.612  23.088  0.00  0.00    -0.208 NA
ATOM      3  O   UNL d   1     -47.796  12.987  22.010  0.00  0.00    -0.265 OA
ENDROOT
BRANCH   1   4
ATOM      4  C   UNL d   1     -48.429  14.057  22.720  0.00  0.00     0.058 A 
ATOM      5  C   UNL d   1     -49.110  13.777  23.109  0.00  0.00     0.005 A 
ATOM      6  C   UNL d   1     -49.737  14.288  23.203  0.00  0.00     0.000 A 
ATOM      7  C   UNL d   1     -50.423  14.017  23.591  0.00  0.00     0.000 A 
ATOM      8  C   UNL d   1     -49.705  15.071  22.921  0.00  0.00     0.000 A 
ATOM      9  C   UNL d   1     -51.064  14.539  23.688  0.00  0.00     0.000 A 
ATOM     10  C   UNL d   1     -51.021  15.313  23.404  0.00  0.00     0.000 A 
ATOM     11  C   UNL d   1     -50.343  15.577  23.022  0.00  0.00     0.000 A 
ATOM     12  C   UNL d   1     -49.035  15.337  22.542  0.00  0.00     0.000 A 
ATOM     13  C   UNL d   1     -48.385  14.830  22.436  0.00  0.00     0.005 A 
ENDBRANCH   1   4
BRANCH   2  14
ATOM     14  C   UNL d   1     -46.459  13.110  22.976  0.00  0.00     0.085 A 
ATOM     15  C   UNL d   1     -45.835  13.339  22.518  0.00  0.00     0.022 A 
ATOM     16  C   UNL d   1     -45.193  12.838  22.410  0.00  0.00     0.041 A 
ATOM     17  C   UNL d   1     -45.156  12.093  22.757  0.00  0.00     0.003 A 
ATOM     18  C   UNL d   1     -45.788  11.848  23.227  0.00  0.00     0.002 A 
ATOM     19  C   UNL d   1     -46.450  12.336  23.353  0.00  0.00     0.019 A 
BRANCH  16  20
ATOM     20  C   UNL d   1     -44.549  13.097  21.926  0.00  0.00     0.196 C 
ATOM     21  O   UNL d   1     -44.228  13.841  22.033  0.00  0.00    -0.287 OA
ATOM     22  C   UNL d   1     -44.255  12.589  21.351  0.00  0.00     0.045 C 
ENDBRANCH  16  20
ENDBRANCH   2  14
TORSDOF 3
ENDMDL
MODEL 3
REMARK VINA RESULT:      -7.6      1.192      4.973
REMARK  3 active torsions:
REMARK  status: ('A' for Active; 'I' for Inactive)
REMARK       I    between atoms: N_2  and  C_1 
REMARK    1  A    between atoms: C_3  and  C_1 
REMARK    2  A    between atoms: C_8  and  N_2 
REMARK    3  A    between atoms: C_7  and  C_6 
ROOT
ATOM      1  C   UNL d   1     -48.302  12.948  22.870  0.00  0.00     0.279 C 
ATOM      2  N   UNL d   1     -48.695  13.226  23.537  0.00  0.00    -0.208 NA
ATOM      3  O   UNL d   1     -48.701  12.941  22.143  0.00  0.00    -0.265 OA
ENDROOT
BRANCH   1   4
ATOM      4  C   UNL d   1     -47.521  12.678  22.909  0.00  0.00     0.058 A 
ATOM      5  C   UNL d   1     -47.348  11.950  23.276  0.00  0.00     0.005 A 
ATOM      6  C   UNL d   1     -46.572  11.706  23.302  0.00  0.00     0.000 A 
ATOM      7  C   UNL d   1     -46.389  10.980  23.667  0.00  0.00     0.000 A 
ATOM      8  C   UNL d   1     -45.960  12.167  22.973  0.00  0.00     0.000 A 
ATOM      9  C   UNL d   1     -45.596  10.730  23.694  0.00  0.00     0.000 A 
ATOM     10  C   UNL d   1     -44.999  11.195  23.365  0.00  0.00     0.000 A 
ATOM     11  C   UNL d   1     -45.181  11.911  23.006  0.00  0.00     0.000 A 
ATOM     12  C   UNL d   1     -46.137  12.877  22.616  0.00  0.00     0.000 A 
ATOM     13  C   UNL d   1     -46.924  13.143  22.580  0.00  0.00     0.005 A 
ENDBRANCH   1   4
BRANCH   2  14
ATOM     14  C   UNL d   1     -49.477  13.496  23.494  0.00  0.00     0.085 A 
ATOM     15  C   UNL d   1     -49.639  14.270  23.326  0.00  0.00     0.022 A 
ATOM     16  C   UNL d   1     -50.415  14.533  23.284  0.00  0.00     0.041 A 
ATOM     17  C   UNL d   1     -51.055  14.030  23.408  0.00  0.00     0.003 A 
ATOM     18  C   UNL d   1     -50.904  13.238  23.580  0.00  0.00     0.002 A 
ATOM     19  C   UNL d   1     -50.125  12.945  23.629  0.00  0.00     0.019 A 
BRANCH  16  20
ATOM     20  C   UNL d   1     -50.563  15.347  23.107  0.00  0.00     0.196 C 
ATOM     21  O   UNL d   1     -50.964  15.553  22.425  0.00  0.00    -0.287 OA
ATOM     22  C   UNL d   1     -50.297  15.921  23.630  0.00  0.00     0.045 C 
ENDBRANCH  16  20
ENDBRANCH   2  14
TORSDOF 3
ENDMDL
MODEL 4
REMARK VINA RESULT:      -7.4      1.340      4.860
REMARK  3 active torsions:
REMARK  status: ('A' for Active; 'I' for Inactive)
REMARK       I    between atoms: N_2  and  C_1 
REMARK    1  A    between atoms: C_3  and  C_1 
REMARK    2  A    between atoms: C_8  and  N_2 
REMARK    3  A    between atoms: C_7  and  C_6 
ROOT
ATOM      1  C   UNL d   1     -47.591  13.373  22.992  0.00  0.00     0.279 C 
ATOM      2  N   UNL d   1     -47.880  13.729  22.309  0.00  0.00    -0.208 NA
ATOM      3  O   UNL d   1     -48.019  13.451  23.698  0.00  0.00    -0.265 OA
ENDROOT
BRANCH   1   4
ATOM      4  C   UNL d   1     -46.885  12.942  22.989  0.00  0.00     0.058 A 
ATOM      5  C   UNL d   1     -46.852  12.190  23.347  0.00  0.00     0.005 A 
ATOM      6  C   UNL d   1     -46.145  11.786  23.330  0.00  0.00     0.000 A 
ATOM      7  C   UNL d   1     -46.103  11.034  23.685  0.00  0.00     0.000 A 
ATOM      8  C   UNL d   1     -45.469  12.109  22.967  0.00  0.00     0.000 A 
ATOM      9  C   UNL d   1     -45.381  10.619  23.668  0.00  0.00     0.000 A 
ATOM     10  C   UNL d   1     -44.718  10.950  23.306  0.00  0.00     0.000 A 
ATOM     11  C   UNL d   1     -44.762  11.692  22.957  0.00  0.00     0.000 A 
ATOM     12  C   UNL d   1     -45.508  12.845  22.620  0.00  0.00     0.000 A 
ATOM     13  C   UNL d   1     -46.221  13.273  22.627  0.00  0.00     0.005 A 
ENDBRANCH   1   4
BRANCH   2  14
ATOM     14  C   UNL d   1     -48.588  14.160  22.316  0.00  0.00     0.085 A 
ATOM     15  C   UNL d   1     -49.291  13.803  22.138  0.00  0.00     0.022 A 
ATOM     16  C   UNL d   1     -49.990  14.234  22.147  0.00  0.00     0.041 A 
ATOM     17  C   UNL d   1     -50.008  15.036  22.333  0.00  0.00     0.003 A 
ATOM     18  C   UNL d   1     -49.297  15.412  22.516  0.00  0.00     0.002 A 
ATOM     19  C   UNL d   1     -48.574  14.998  22.515  0.00  0.00     0.019 A 
BRANCH  16  20
ATOM     20  C   UNL d   1     -50.715  13.842  21.958  0.00  0.00     0.196 C 
ATOM     21  O   UNL d   1     -51.064  13.340  22.502  0.00  0.00    -0.287 OA
ATOM     22  C   UNL d   1     -51.059  13.973  21.224  0.00  0.00     0.045 C 
ENDBRANCH  16  20
ENDBRANCH   2  14
TORSDOF 3
ENDMDL
MODEL 5
REMARK VINA RESULT:      -7.1      8.673     10.162
REMARK  3 active torsions:
REMARK  status: ('A' for Active; 'I' for Inactive)
REMARK       I    between atoms: N_2  and  C_1 
REMARK    1  A    between atoms: C_3  and  C_1 
REMARK    2  A    between atoms: C_8  and  N_2 
REMARK    3  A    between atoms: C_7  and  C_6 
ROOT
ATOM      1  C   UNL d   1     -39.582  14.770  19.519  0.00  0.00     0.279 C 
ATOM      2  N   UNL d   1     -39.771  14.274  18.890  0.00  0.00    -0.208 NA
ATOM      3  O   UNL d   1     -39.496  15.583  19.379  0.00  0.00    -0.265 OA
ENDROOT
BRANCH   1   4
ATOM      4  C   UNL d   1     -39.477  14.476  20.286  0.00  0.00     0.058 A 
ATOM      5  C   UNL d   1     -38.788  14.048  20.478  0.00  0.00     0.005 A 
ATOM      6  C   UNL d   1     -38.708  13.769  21.239  0.00  0.00     0.000 A 
ATOM      7  C   UNL d   1     -38.023  13.340  21.441  0.00  0.00     0.000 A 
ATOM      8  C   UNL d   1     -39.295  13.903  21.815  0.00  0.00     0.000 A 
ATOM      9  C   UNL d   1     -37.940  13.054  22.218  0.00  0.00     0.000 A 
ATOM     10  C   UNL d   1     -38.528  13.194  22.780  0.00  0.00     0.000 A 
ATOM     11  C   UNL d   1     -39.203  13.617  22.579  0.00  0.00     0.000 A 
ATOM     12  C   UNL d   1     -39.965  14.322  21.619  0.00  0.00     0.000 A 
ATOM     13  C   UNL d   1     -40.065  14.615  20.847  0.00  0.00     0.005 A 
ENDBRANCH   1   4
BRANCH   2  14
ATOM     14  C   UNL d   1     -39.876  14.573  18.125  0.00  0.00     0.085 A 
ATOM     15  C   UNL d   1     -39.272  14.554  17.588  0.00  0.00     0.022 A 
ATOM     16  C   UNL d   1     -39.380  14.851  16.830  0.00  0.00     0.041 A 
ATOM     17  C   UNL d   1     -40.096  15.176  16.585  0.00  0.00     0.003 A 
ATOM     18  C   UNL d   1     -40.720  15.201  17.124  0.00  0.00     0.002 A 
ATOM     19  C   UNL d   1     -40.636  14.906  17.899  0.00  0.00     0.019 A 
BRANCH  16  20
ATOM     20  C   UNL d   1     -38.736  14.823  16.283  0.00  0.00     0.196 C 
ATOM     21  O   UNL d   1     -38.326  15.505  16.095  0.00  0.00    -0.287 OA
ATOM     22  C   UNL d   1     -38.531  14.101  15.948  0.00  0.00     0.045 C 
ENDBRANCH  16  20
ENDBRANCH   2  14
TORSDOF 3
ENDMDL
MODEL 6
REMARK VINA RESULT:      -7.0      8.313     10.534
REMARK  3 active torsions:
REMARK  status: ('A' for Active; 'I' for Inactive)
REMARK       I    between atoms: N_2  and  C_1 
REMARK    1  A    between atoms: C_3  and  C_1 
REMARK    2  A    between atoms: C_8  and  N_2 
REMARK    3  A    between atoms: C_7  and  C_6 
ROOT
ATOM      1  C   UNL d   1     -39.724  14.317  18.533  0.00  0.00     0.279 C 
ATOM      2  N   UNL d   1     -39.402  14.887  19.031  0.00  0.00    -0.208 NA
ATOM      3  O   UNL d   1     -40.483  14.025  18.694  0.00  0.00    -0.265 OA
ENDROOT
BRANCH   1   4
ATOM      4  C   UNL d   1     -39.308  14.031  17.877  0.00  0.00     0.058 A 
ATOM      5  C   UNL d   1     -39.189  14.518  17.212  0.00  0.00     0.005 A 
ATOM      6  C   UNL d   1     -38.776  14.213  16.580  0.00  0.00     0.000 A 
ATOM      7  C   UNL d   1     -38.652  14.693  15.910  0.00  0.00     0.000 A 
ATOM      8  C   UNL d   1     -38.478  13.435  16.590  0.00  0.00     0.000 A 
ATOM      9  C   UNL d   1     -38.230  14.382  15.263  0.00  0.00     0.000 A 
ATOM     10  C   UNL d   1     -37.940  13.610  15.285  0.00  0.00     0.000 A 
ATOM     11  C   UNL d   1     -38.063  13.139  15.946  0.00  0.00     0.000 A 
ATOM     12  C   UNL d   1     -38.599  12.965  17.244  0.00  0.00     0.000 A 
ATOM     13  C   UNL d   1     -39.018  13.259  17.899  0.00  0.00     0.005 A 
ENDBRANCH   1   4
BRANCH   2  14
ATOM     14  C   UNL d   1     -39.821  15.171  19.686  0.00  0.00     0.085 A 
ATOM     15  C   UNL d   1     -39.535  15.071  20.435  0.00  0.00     0.022 A 
ATOM     16  C   UNL d   1     -39.955  15.354  21.082  0.00  0.00     0.041 A 
ATOM     17  C   UNL d   1     -40.673  15.747  21.000  0.00  0.00     0.003 A 
ATOM     18  C   UNL d   1     -40.976  15.856  20.240  0.00  0.00     0.002 A 
ATOM     19  C   UNL d   1     -40.571  15.578  19.568  0.00  0.00     0.019 A 
BRANCH  16  20
ATOM     20  C   UNL d   1     -39.638  15.239  21.858  0.00  0.00     0.196 C 
ATOM     21  O   UNL d   1     -39.566  14.484  22.164  0.00  0.00    -0.287 OA
ATOM     22  C   UNL d   1     -39.406  15.895  22.294  0.00  0.00     0.045 C 
ENDBRANCH  16  20
ENDBRANCH   2  14
TORSDOF 3
ENDMDL
MODEL 7
REMARK VINA RESULT:      -6.8      8.903      9.341
REMARK  3 active torsions:
REMARK  status: ('A' for Active; 'I' for Inactive)
REMARK       I    between atoms: N_2  and  C_1 
REMARK    1  A    between atoms: C_3  and  C_1 
REMARK    2  A    between atoms: C_8  and  N_2 
REMARK    3  A    between atoms: C_7  and  C_6 
ROOT
ATOM      1  C   UNL d   1     -39.844  14.670  20.155  0.00  0.00     0.279 C 
ATOM      2  N   UNL d   1     -39.093  14.749  20.482  0.00  0.00    -0.208 NA
ATOM      3  O   UNL d   1     -40.492  14.551  20.659  0.00  0.00    -0.265 OA
ENDROOT
BRANCH   1   4
ATOM      4  C   UNL d   1     -39.965  14.705  19.337  0.00  0.00     0.058 A 
ATOM      5  C   UNL d   1     -40.447  15.301  19.011  0.00  0.00     0.005 A 
ATOM      6  C   UNL d   1     -40.550  15.315  18.203  0.00  0.00     0.000 A 
ATOM      7  C   UNL d   1     -41.030  15.907  17.868  0.00  0.00     0.000 A 
ATOM      8  C   UNL d   1     -40.186  14.751  17.709  0.00  0.00     0.000 A 
ATOM      9  C   UNL d   1     -41.136  15.922  17.042  0.00  0.00     0.000 A 
ATOM     10  C   UNL d   1     -40.771  15.358  16.564  0.00  0.00     0.000 A 
ATOM     11  C   UNL d   1     -40.298  14.775  16.896  0.00  0.00     0.000 A 
ATOM     12  C   UNL d   1     -39.717  14.171  18.036  0.00  0.00     0.000 A 
ATOM     13  C   UNL d   1     -39.600  14.141  18.858  0.00  0.00     0.005 A 
ENDBRANCH   1   4
BRANCH   2  14
ATOM     14  C   UNL d   1     -38.977  14.713  21.302  0.00  0.00     0.085 A 
ATOM     15  C   UNL d   1     -38.758  14.022  21.658  0.00  0.00     0.022 A 
ATOM     16  C   UNL d   1     -38.643  13.990  22.470  0.00  0.00     0.041 A 
ATOM     17  C   UNL d   1     -38.743  14.650  22.952  0.00  0.00     0.003 A 
ATOM     18  C   UNL d   1     -38.967  15.362  22.601  0.00  0.00     0.002 A 
ATOM     19  C   UNL d   1     -39.090  15.421  21.779  0.00  0.00     0.019 A 
BRANCH  16  20
ATOM     20  C   UNL d   1     -38.414  13.257  22.823  0.00  0.00     0.196 C 
ATOM     21  O   UNL d   1     -38.014  12.696  22.383  0.00  0.00    -0.287 OA
ATOM     22  C   UNL d   1     -38.600  13.120  23.611  0.00  0.00     0.045 C 
ENDBRANCH  16  20
ENDBRANCH   2  14
TORSDOF 3
ENDMDL
MODEL 8
REMARK VINA RESULT:      -6.7      8.014     10.235
REMARK  3 active torsions:
REMARK  status: ('A' for Active; 'I' for Inactive)
REMARK       I    between atoms: N_2  and  C_1 
REMARK    1  A    between atoms: C_3  and  C_1 
REMARK    2  A    between atoms: C_8  and  N_2 
REMARK    3  A    between atoms: C_7  and  C_6 
ROOT
ATOM      1  C   UNL d   1     -39.689  14.250  17.981  0.00  0.00     0.279 C 
ATOM      2  N   UNL d   1     -38.883  14.263  17.816  0.00  0.00    -0.208 NA
ATOM      3  O   UNL d   1     -40.193  13.814  17.487  0.00  0.00    -0.265 OA
ENDROOT
BRANCH   1   4
ATOM      4  C   UNL d   1     -40.005  14.661  18.626  0.00  0.00     0.058 A 
ATOM      5  C   UNL d   1     -40.171  14.259  19.337  0.00  0.00     0.005 A 
ATOM      6  C   UNL d   1     -40.481  14.686  19.957  0.00  0.00     0.000 A 
ATOM      7  C   UNL d   1     -40.651  14.293  20.672  0.00  0.00     0.000 A 
ATOM      8  C   UNL d   1     -40.632  15.502  19.891  0.00  0.00     0.000 A 
ATOM      9  C   UNL d   1     -40.968  14.728  21.307  0.00  0.00     0.000 A 
ATOM     10  C   UNL d   1     -41.113  15.537  21.228  0.00  0.00     0.000 A 
ATOM     11  C   UNL d   1     -40.945  15.922  20.523  0.00  0.00     0.000 A 
ATOM     12  C   UNL d   1     -40.467  15.888  19.193  0.00  0.00     0.000 A 
ATOM     13  C   UNL d   1     -40.149  15.469  18.548  0.00  0.00     0.005 A 
ENDBRANCH   1   4
BRANCH   2  14
ATOM     14  C   UNL d   1     -38.570  13.850  17.169  0.00  0.00     0.085 A 
ATOM     15  C   UNL d   1     -38.466  14.217  16.457  0.00  0.00     0.022 A 
ATOM     16  C   UNL d   1     -38.156  13.804  15.818  0.00  0.00     0.041 A 
ATOM     17  C   UNL d   1     -37.940  13.012  15.872  0.00  0.00     0.003 A 
ATOM     18  C   UNL d   1     -38.041  12.626  16.595  0.00  0.00     0.002 A 
ATOM     19  C   UNL d   1     -38.353  13.022  17.258  0.00  0.00     0.019 A 
BRANCH  16  20
ATOM     20  C   UNL d   1     -38.055  14.206  15.081  0.00  0.00     0.196 C 
ATOM     21  O   UNL d   1     -38.073  15.023  15.053  0.00  0.00    -0.287 OA
ATOM     22  C   UNL d   1     -37.940  13.763  14.399  0.00  0.00     0.045 C 
ENDBRANCH  16  20
ENDBRANCH   2  14
TORSDOF 3
ENDMDL
MODEL 9
REMARK VINA RESULT:      -5.9      1.386      2.013
REMARK  3 active torsions:
REMARK  status: ('A' for Active; 'I' for Inactive)
REMARK       I    between atoms: N_2  and  C_1 
REMARK    1  A    between atoms: C_3  and  C_1 
REMARK    2  A    between atoms: C_8  and  N_2 
REMARK    3  A    between atoms: C_7  and  C_6 
ROOT
ATOM      1  C   UNL d   1     -47.587  13.112  22.685  0.00  0.00     0.279 C 
ATOM      2  N   UNL d   1     -46.856  12.761  22.828  0.00  0.00    -0.208 NA
ATOM      3  O   UNL d   1     -47.610  13.848  22.304  0.00  0.00    -0.265 OA
ENDROOT
BRANCH   1   4
ATOM      4  C   UNL d   1     -48.294  12.748  22.913  0.00  0.00     0.058 A 
ATOM      5  C   UNL d   1     -48.984  13.203  23.017  0.00  0.00     0.005 A 
ATOM      6  C   UNL d   1     -49.667  12.820  23.242  0.00  0.00     0.000 A 
ATOM      7  C   UNL d   1     -50.362  13.266  23.348  0.00  0.00     0.000 A 
ATOM      8  C   UNL d   1     -49.683  11.996  23.366  0.00  0.00     0.000 A 
ATOM      9  C   UNL d   1     -51.061  12.876  23.578  0.00  0.00     0.000 A 
ATOM     10  C   UNL d   1     -51.064  12.060  23.698  0.00  0.00     0.000 A 
ATOM     11  C   UNL d   1     -50.378  11.622  23.592  0.00  0.00     0.000 A 
ATOM     12  C   UNL d   1     -49.004  11.559  23.262  0.00  0.00     0.000 A 
ATOM     13  C   UNL d   1     -48.297  11.931  23.033  0.00  0.00     0.005 A 
ENDBRANCH   1   4
BRANCH   2  14
ATOM     14  C   UNL d   1     -46.150  13.129  22.599  0.00  0.00     0.085 A 
ATOM     15  C   UNL d   1     -45.507  12.690  22.382  0.00  0.00     0.022 A 
ATOM     16  C   UNL d   1     -44.810  13.059  22.155  0.00  0.00     0.041 A 
ATOM     17  C   UNL d   1     -44.733  13.879  22.138  0.00  0.00     0.003 A 
ATOM     18  C   UNL d   1     -45.383  14.338  22.357  0.00  0.00     0.002 A 
ATOM     19  C   UNL d   1     -46.102  13.988  22.591  0.00  0.00     0.019 A 
BRANCH  16  20
ATOM     20  C   UNL d   1     -44.148  12.582  21.931  0.00  0.00     0.196 C 
ATOM     21  O   UNL d   1     -44.074  11.821  22.220  0.00  0.00    -0.287 OA
ATOM     22  C   UNL d   1     -43.585  12.896  21.422  0.00  0.00     0.045 C 
ENDBRANCH  16  20
ENDBRANCH   2  14
TORSDOF 3
ENDMDL
