MODEL 1
REMARK VINA RESULT:      10.4      0.000      0.000
REMARK  4 active torsions:
REMARK  status: ('A' for Active; 'I' for Inactive)
REMARK    1  A    between atoms: S_9  and  C_1 
REMARK       I    between atoms: N_4  and  C_5 
REMARK    2  A    between atoms: C_5  and  C_13 
REMARK    3  A    between atoms: C_8  and  C_10 
REMARK    4  A    between atoms: C_13  and  S_9 
ROOT
ATOM      1  N   UNL d   1      45.431 -14.986  44.380  0.00  0.00    -0.272 N 
ATOM      2  C   UNL d   1      45.428 -15.759  44.520  0.00  0.00     0.271 C 
ATOM      3  C   UNL d   1      45.462 -13.392  44.073  0.00  0.00     0.062 A 
ATOM      4  C   UNL d   1      46.003 -14.660  43.935  0.00  0.00     0.083 A 
ATOM      5  C   UNL d   1      44.859 -14.452  44.672  0.00  0.00     0.083 A 
ATOM      6  O   UNL d   1      44.868 -16.069  44.955  0.00  0.00    -0.266 OA
ATOM      7  C   UNL d   1      46.039 -13.877  43.770  0.00  0.00     0.024 A 
ATOM      8  C   UNL d   1      44.854 -13.662  44.533  0.00  0.00     0.024 A 
ENDROOT
BRANCH   2   9
ATOM      9  C   UNL d   1      46.004 -16.264  44.221  0.00  0.00     0.098 C 
BRANCH   9  10
ATOM     10  S   UNL d   1      46.103 -17.006  44.614  0.00  0.00    -0.056 SA
BRANCH  10  11
ATOM     11  C   UNL d   1      46.223 -17.666  44.156  0.00  0.00     0.141 A 
ATOM     12  N   UNL d   1      46.331 -17.665  43.356  0.00  0.00    -0.232 NA
ATOM     13  C   UNL d   1      46.427 -18.502  43.184  0.00  0.00     0.088 A 
ATOM     14  C   UNL d   1      46.565 -18.845  42.380  0.00  0.00     0.020 A 
ATOM     15  C   UNL d   1      46.374 -18.957  43.870  0.00  0.00     0.049 A 
ATOM     16  C   UNL d   1      46.645 -19.672  42.322  0.00  0.00     0.002 A 
ATOM     17  C   UNL d   1      46.592 -20.167  43.041  0.00  0.00     0.001 A 
ATOM     18  C   UNL d   1      46.461 -19.801  43.778  0.00  0.00     0.008 A 
ATOM     19  S   UNL d   1      46.249 -18.442  44.466  0.00  0.00    -0.060 SA
ENDBRANCH  10  11
ENDBRANCH   9  10
ENDBRANCH   2   9
BRANCH   3  20
ATOM     20  C   UNL d   1      45.501 -12.548  43.896  0.00  0.00     0.297 C 
ATOM     21  O   UNL d   1      46.010 -12.104  44.332  0.00  0.00    -0.264 OA
ATOM     22  N   UNL d   1      45.029 -12.274  43.311  0.00  0.00    -0.102 N 
ENDBRANCH   3  20
TORSDOF 4
ENDMDL
MODEL 2
REMARK VINA RESULT:      12.8      1.706      5.142
REMARK  4 active torsions:
REMARK  status: ('A' for Active; 'I' for Inactive)
REMARK    1  A    between atoms: S_9  and  C_1 
REMARK       I    between atoms: N_4  and  C_5 
REMARK    2  A    between atoms: C_5  and  C_13 
REMARK    3  A    between atoms: C_8  and  C_10 
REMARK    4  A    between atoms: C_13  and  S_9 
ROOT
ATOM      1  N   UNL d   1      46.119 -18.130  43.692  0.00  0.00    -0.272 N 
ATOM      2  C   UNL d   1      45.999 -17.663  44.314  0.00  0.00     0.271 C 
ATOM      3  C   UNL d   1      46.379 -19.067  42.393  0.00  0.00     0.062 A 
ATOM      4  C   UNL d   1      46.449 -17.839  43.030  0.00  0.00     0.083 A 
ATOM      5  C   UNL d   1      45.920 -18.940  43.666  0.00  0.00     0.083 A 
ATOM      6  O   UNL d   1      45.676 -17.954  44.955  0.00  0.00    -0.266 OA
ATOM      7  C   UNL d   1      46.587 -18.282  42.377  0.00  0.00     0.024 A 
ATOM      8  C   UNL d   1      46.040 -19.423  43.036  0.00  0.00     0.024 A 
ENDROOT
BRANCH   2   9
ATOM      9  C   UNL d   1      46.203 -16.867  44.315  0.00  0.00     0.098 C 
BRANCH   9  10
ATOM     10  S   UNL d   1      45.899 -16.396  44.947  0.00  0.00    -0.056 SA
BRANCH  10  11
ATOM     11  C   UNL d   1      45.829 -15.595  44.825  0.00  0.00     0.141 A 
ATOM     12  N   UNL d   1      46.445 -15.074  44.792  0.00  0.00    -0.232 NA
ATOM     13  C   UNL d   1      46.041 -14.327  44.654  0.00  0.00     0.088 A 
ATOM     14  C   UNL d   1      46.440 -13.541  44.568  0.00  0.00     0.020 A 
ATOM     15  C   UNL d   1      45.224 -14.429  44.612  0.00  0.00     0.049 A 
ATOM     16  C   UNL d   1      45.956 -12.876  44.437  0.00  0.00     0.002 A 
ATOM     17  C   UNL d   1      45.088 -12.970  44.390  0.00  0.00     0.001 A 
ATOM     18  C   UNL d   1      44.756 -13.729  44.477  0.00  0.00     0.008 A 
ATOM     19  S   UNL d   1      45.096 -15.210  44.717  0.00  0.00    -0.060 SA
ENDBRANCH  10  11
ENDBRANCH   9  10
ENDBRANCH   2   9
BRANCH   3  20
ATOM     20  C   UNL d   1      46.528 -19.545  41.689  0.00  0.00     0.297 C 
ATOM     21  O   UNL d   1      46.536 -19.163  40.982  0.00  0.00    -0.264 OA
ATOM     22  N   UNL d   1      46.646 -20.329  41.796  0.00  0.00    -0.102 N 
ENDBRANCH   3  20
TORSDOF 4
ENDMDL
