MODEL 1
REMARK VINA RESULT:      -6.4      0.000      0.000
REMARK  5 active torsions:
REMARK  status: ('A' for Active; 'I' for Inactive)
REMARK    1  A    between atoms: C_7  and  N_2 
REMARK    2  A    between atoms: C_8  and  C_7 
REMARK    3  A    between atoms: C_13  and  C_8 
REMARK    4  A    between atoms: C_9  and  O_11 
REMARK    5  A    between atoms: O_11  and  C_13 
ROOT
ATOM      1  C   UNL d   1     -45.513  13.286  22.594  0.00  0.00     0.378 A 
ATOM      2  N   UNL d   1     -46.236  13.102  22.961  0.00  0.00    -0.251 N 
ATOM      3  O   UNL d   1     -45.052  12.606  22.585  0.00  0.00    -0.258 OA
ATOM      4  C   UNL d   1     -46.209  12.299  23.176  0.00  0.00     0.092 A 
ATOM      5  C   UNL d   1     -45.478  11.995  22.943  0.00  0.00     0.121 A 
ATOM      6  O   UNL d   1     -45.305  14.024  22.295  0.00  0.00    -0.237 OA
ATOM      7  C   UNL d   1     -46.762  11.818  23.553  0.00  0.00     0.020 A 
ATOM      8  C   UNL d   1     -45.296  11.195  23.089  0.00  0.00     0.026 A 
ATOM      9  C   UNL d   1     -46.579  11.022  23.698  0.00  0.00     0.002 A 
ATOM     10  C   UNL d   1     -45.847  10.711  23.466  0.00  0.00     0.002 A 
ENDROOT
BRANCH   2  11
ATOM     11  C   UNL d   1     -46.858  13.617  23.087  0.00  0.00     0.087 C 
BRANCH  11  12
ATOM     12  C   UNL d   1     -47.407  13.767  22.495  0.00  0.00     0.046 C 
BRANCH  12  13
ATOM     13  C   UNL d   1     -48.095  14.174  22.657  0.00  0.00     0.124 C 
BRANCH  13  14
ATOM     14  O   UNL d   1     -48.629  14.354  22.059  0.00  0.00    -0.305 OA
BRANCH  14  15
ATOM     15  C   UNL d   1     -49.416  14.541  22.235  0.00  0.00     0.100 A 
ATOM     16  C   UNL d   1     -49.586  15.065  22.839  0.00  0.00     0.025 A 
ATOM     17  C   UNL d   1     -50.373  15.252  23.015  0.00  0.00     0.002 A 
ATOM     18  C   UNL d   1     -50.978  14.910  22.581  0.00  0.00     0.000 A 
ATOM     19  C   UNL d   1     -50.805  14.380  21.970  0.00  0.00     0.002 A 
ATOM     20  C   UNL d   1     -50.019  14.193  21.794  0.00  0.00     0.025 A 
ENDBRANCH  14  15
ENDBRANCH  13  14
ENDBRANCH  12  13
ENDBRANCH  11  12
ENDBRANCH   2  11
TORSDOF 5
ENDMDL
MODEL 2
REMARK VINA RESULT:      -6.3      1.729      2.153
REMARK  5 active torsions:
REMARK  status: ('A' for Active; 'I' for Inactive)
REMARK    1  A    between atoms: C_7  and  N_2 
REMARK    2  A    between atoms: C_8  and  C_7 
REMARK    3  A    between atoms: C_13  and  C_8 
REMARK    4  A    between atoms: C_9  and  O_11 
REMARK    5  A    between atoms: O_11  and  C_13 
ROOT
ATOM      1  C   UNL d   1     -45.681  12.462  22.914  0.00  0.00     0.378 A 
ATOM      2  N   UNL d   1     -46.001  11.806  23.311  0.00  0.00    -0.251 N 
ATOM      3  O   UNL d   1     -44.900  12.288  22.723  0.00  0.00    -0.258 OA
ATOM      4  C   UNL d   1     -45.405  11.228  23.361  0.00  0.00     0.092 A 
ATOM      5  C   UNL d   1     -44.727  11.527  22.998  0.00  0.00     0.121 A 
ATOM      6  O   UNL d   1     -46.082  13.160  22.745  0.00  0.00    -0.237 OA
ATOM      7  C   UNL d   1     -45.406  10.473  23.692  0.00  0.00     0.020 A 
ATOM      8  C   UNL d   1     -44.036  11.063  22.964  0.00  0.00     0.026 A 
ATOM      9  C   UNL d   1     -44.717  10.013  23.658  0.00  0.00     0.002 A 
ATOM     10  C   UNL d   1     -44.033  10.307  23.295  0.00  0.00     0.002 A 
ENDROOT
BRANCH   2  11
ATOM     11  C   UNL d   1     -46.763  11.742  23.600  0.00  0.00     0.087 C 
BRANCH  11  12
ATOM     12  C   UNL d   1     -47.390  11.565  23.099  0.00  0.00     0.046 C 
BRANCH  12  13
ATOM     13  C   UNL d   1     -48.160  11.705  23.329  0.00  0.00     0.124 C 
BRANCH  13  14
ATOM     14  O   UNL d   1     -48.791  11.428  22.880  0.00  0.00    -0.305 OA
BRANCH  14  15
ATOM     15  C   UNL d   1     -49.534  11.787  22.927  0.00  0.00     0.100 A 
ATOM     16  C   UNL d   1     -49.798  12.263  22.316  0.00  0.00     0.025 A 
ATOM     17  C   UNL d   1     -50.543  12.622  22.363  0.00  0.00     0.002 A 
ATOM     18  C   UNL d   1     -51.012  12.498  23.024  0.00  0.00     0.000 A 
ATOM     19  C   UNL d   1     -50.744  12.017  23.641  0.00  0.00     0.002 A 
ATOM     20  C   UNL d   1     -50.001  11.658  23.594  0.00  0.00     0.025 A 
ENDBRANCH  14  15
ENDBRANCH  13  14
ENDBRANCH  12  13
ENDBRANCH  11  12
ENDBRANCH   2  11
TORSDOF 5
ENDMDL
MODEL 3
REMARK VINA RESULT:      -6.1      1.314      4.554
REMARK  5 active torsions:
REMARK  status: ('A' for Active; 'I' for Inactive)
REMARK    1  A    between atoms: C_7  and  N_2 
REMARK    2  A    between atoms: C_8  and  C_7 
REMARK    3  A    between atoms: C_13  and  C_8 
REMARK    4  A    between atoms: C_9  and  O_11 
REMARK    5  A    between atoms: O_11  and  C_13 
ROOT
ATOM      1  C   UNL d   1     -49.701  15.182  22.765  0.00  0.00     0.378 A 
ATOM      2  N   UNL d   1     -49.227  14.680  22.302  0.00  0.00    -0.251 N 
ATOM      3  O   UNL d   1     -50.458  14.862  22.796  0.00  0.00    -0.258 OA
ATOM      4  C   UNL d   1     -49.706  14.049  22.050  0.00  0.00     0.092 A 
ATOM      5  C   UNL d   1     -50.464  14.162  22.355  0.00  0.00     0.121 A 
ATOM      6  O   UNL d   1     -49.448  15.877  23.127  0.00  0.00    -0.237 OA
ATOM      7  C   UNL d   1     -49.537  13.391  21.582  0.00  0.00     0.020 A 
ATOM      8  C   UNL d   1     -51.064  13.610  22.190  0.00  0.00     0.026 A 
ATOM      9  C   UNL d   1     -50.136  12.842  21.418  0.00  0.00     0.002 A 
ATOM     10  C   UNL d   1     -50.899  12.951  21.722  0.00  0.00     0.002 A 
ENDROOT
BRANCH   2  11
ATOM     11  C   UNL d   1     -48.436  14.789  22.128  0.00  0.00     0.087 C 
BRANCH  11  12
ATOM     12  C   UNL d   1     -47.860  14.681  22.704  0.00  0.00     0.046 C 
BRANCH  12  13
ATOM     13  C   UNL d   1     -47.106  14.447  22.499  0.00  0.00     0.124 C 
BRANCH  13  14
ATOM     14  O   UNL d   1     -46.587  14.156  23.067  0.00  0.00    -0.305 OA
BRANCH  14  15
ATOM     15  C   UNL d   1     -46.093  13.513  22.900  0.00  0.00     0.100 A 
ATOM     16  C   UNL d   1     -45.484  13.594  22.361  0.00  0.00     0.025 A 
ATOM     17  C   UNL d   1     -44.990  12.950  22.195  0.00  0.00     0.002 A 
ATOM     18  C   UNL d   1     -45.116  12.234  22.573  0.00  0.00     0.000 A 
ATOM     19  C   UNL d   1     -45.732  12.153  23.118  0.00  0.00     0.002 A 
ATOM     20  C   UNL d   1     -46.226  12.796  23.285  0.00  0.00     0.025 A 
ENDBRANCH  14  15
ENDBRANCH  13  14
ENDBRANCH  12  13
ENDBRANCH  11  12
ENDBRANCH   2  11
TORSDOF 5
ENDMDL
MODEL 4
REMARK VINA RESULT:      -6.0      1.296      4.803
REMARK  5 active torsions:
REMARK  status: ('A' for Active; 'I' for Inactive)
REMARK    1  A    between atoms: C_7  and  N_2 
REMARK    2  A    between atoms: C_8  and  C_7 
REMARK    3  A    between atoms: C_13  and  C_8 
REMARK    4  A    between atoms: C_9  and  O_11 
REMARK    5  A    between atoms: O_11  and  C_13 
ROOT
ATOM      1  C   UNL d   1     -48.118  13.984  22.737  0.00  0.00     0.378 A 
ATOM      2  N   UNL d   1     -48.155  13.158  22.823  0.00  0.00    -0.251 N 
ATOM      3  O   UNL d   1     -48.730  14.215  22.239  0.00  0.00    -0.258 OA
ATOM      4  C   UNL d   1     -48.797  12.888  22.369  0.00  0.00     0.092 A 
ATOM      5  C   UNL d   1     -49.151  13.541  22.010  0.00  0.00     0.121 A 
ATOM      6  O   UNL d   1     -47.563  14.476  23.093  0.00  0.00    -0.237 OA
ATOM      7  C   UNL d   1     -49.095  12.129  22.246  0.00  0.00     0.020 A 
ATOM      8  C   UNL d   1     -49.814  13.436  21.518  0.00  0.00     0.026 A 
ATOM      9  C   UNL d   1     -49.756  12.026  21.755  0.00  0.00     0.002 A 
ATOM     10  C   UNL d   1     -50.115  12.678  21.392  0.00  0.00     0.002 A 
ENDROOT
BRANCH   2  11
ATOM     11  C   UNL d   1     -47.650  12.697  23.271  0.00  0.00     0.087 C 
BRANCH  11  12
ATOM     12  C   UNL d   1     -46.848  12.657  23.095  0.00  0.00     0.046 C 
BRANCH  12  13
ATOM     13  C   UNL d   1     -46.405  12.009  23.315  0.00  0.00     0.124 C 
BRANCH  13  14
ATOM     14  O   UNL d   1     -45.583  12.035  23.295  0.00  0.00    -0.305 OA
BRANCH  14  15
ATOM     15  C   UNL d   1     -45.136  11.343  23.370  0.00  0.00     0.100 A 
ATOM     16  C   UNL d   1     -45.491  10.651  23.624  0.00  0.00     0.025 A 
ATOM     17  C   UNL d   1     -45.043   9.959  23.698  0.00  0.00     0.002 A 
ATOM     18  C   UNL d   1     -44.244   9.971  23.516  0.00  0.00     0.000 A 
ATOM     19  C   UNL d   1     -43.885  10.671  23.259  0.00  0.00     0.002 A 
ATOM     20  C   UNL d   1     -44.333  11.363  23.184  0.00  0.00     0.025 A 
ENDBRANCH  14  15
ENDBRANCH  13  14
ENDBRANCH  12  13
ENDBRANCH  11  12
ENDBRANCH   2  11
TORSDOF 5
ENDMDL
MODEL 5
REMARK VINA RESULT:      -5.7      1.603      5.060
REMARK  5 active torsions:
REMARK  status: ('A' for Active; 'I' for Inactive)
REMARK    1  A    between atoms: C_7  and  N_2 
REMARK    2  A    between atoms: C_8  and  C_7 
REMARK    3  A    between atoms: C_13  and  C_8 
REMARK    4  A    between atoms: C_9  and  O_11 
REMARK    5  A    between atoms: O_11  and  C_13 
ROOT
ATOM      1  C   UNL d   1     -50.320  12.868  23.394  0.00  0.00     0.378 A 
ATOM      2  N   UNL d   1     -49.688  13.340  23.135  0.00  0.00    -0.251 N 
ATOM      3  O   UNL d   1     -50.927  13.366  23.640  0.00  0.00    -0.258 OA
ATOM      4  C   UNL d   1     -49.916  14.135  23.226  0.00  0.00     0.092 A 
ATOM      5  C   UNL d   1     -50.680  14.148  23.538  0.00  0.00     0.121 A 
ATOM      6  O   UNL d   1     -50.330  12.045  23.400  0.00  0.00    -0.237 OA
ATOM      7  C   UNL d   1     -49.518  14.837  23.061  0.00  0.00     0.020 A 
ATOM      8  C   UNL d   1     -51.054  14.877  23.688  0.00  0.00     0.026 A 
ATOM      9  C   UNL d   1     -49.892  15.562  23.212  0.00  0.00     0.002 A 
ATOM     10  C   UNL d   1     -50.658  15.582  23.525  0.00  0.00     0.002 A 
ENDROOT
BRANCH   2  11
ATOM     11  C   UNL d   1     -48.973  13.072  22.843  0.00  0.00     0.087 C 
BRANCH  11  12
ATOM     12  C   UNL d   1     -48.407  12.753  23.346  0.00  0.00     0.046 C 
BRANCH  12  13
ATOM     13  C   UNL d   1     -47.708  12.454  23.050  0.00  0.00     0.124 C 
BRANCH  13  14
ATOM     14  O   UNL d   1     -47.002  12.550  23.460  0.00  0.00    -0.305 OA
BRANCH  14  15
ATOM     15  C   UNL d   1     -46.396  11.989  23.399  0.00  0.00     0.100 A 
ATOM     16  C   UNL d   1     -46.505  11.236  23.697  0.00  0.00     0.025 A 
ATOM     17  C   UNL d   1     -45.899  10.675  23.635  0.00  0.00     0.002 A 
ATOM     18  C   UNL d   1     -45.192  10.879  23.275  0.00  0.00     0.000 A 
ATOM     19  C   UNL d   1     -45.083  11.642  22.974  0.00  0.00     0.002 A 
ATOM     20  C   UNL d   1     -45.688  12.202  23.035  0.00  0.00     0.025 A 
ENDBRANCH  14  15
ENDBRANCH  13  14
ENDBRANCH  12  13
ENDBRANCH  11  12
ENDBRANCH   2  11
TORSDOF 5
ENDMDL
MODEL 6
REMARK VINA RESULT:      -5.4      8.381      9.645
REMARK  5 active torsions:
REMARK  status: ('A' for Active; 'I' for Inactive)
REMARK    1  A    between atoms: C_7  and  N_2 
REMARK    2  A    between atoms: C_8  and  C_7 
REMARK    3  A    between atoms: C_13  and  C_8 
REMARK    4  A    between atoms: C_9  and  O_11 
REMARK    5  A    between atoms: O_11  and  C_13 
ROOT
ATOM      1  C   UNL d   1     -40.724  14.393  18.050  0.00  0.00     0.378 A 
ATOM      2  N   UNL d   1     -39.949  14.540  18.311  0.00  0.00    -0.251 N 
ATOM      3  O   UNL d   1     -40.824  14.766  17.325  0.00  0.00    -0.258 OA
ATOM      4  C   UNL d   1     -39.576  15.009  17.735  0.00  0.00     0.092 A 
ATOM      5  C   UNL d   1     -40.117  15.147  17.127  0.00  0.00     0.121 A 
ATOM      6  O   UNL d   1     -41.287  13.949  18.454  0.00  0.00    -0.237 OA
ATOM      7  C   UNL d   1     -38.814  15.321  17.697  0.00  0.00     0.020 A 
ATOM      8  C   UNL d   1     -39.893  15.606  16.469  0.00  0.00     0.026 A 
ATOM      9  C   UNL d   1     -38.593  15.777  17.041  0.00  0.00     0.002 A 
ATOM     10  C   UNL d   1     -39.131  15.919  16.428  0.00  0.00     0.002 A 
ENDROOT
BRANCH   2  11
ATOM     11  C   UNL d   1     -39.616  14.272  19.008  0.00  0.00     0.087 C 
BRANCH  11  12
ATOM     12  C   UNL d   1     -39.895  14.533  19.736  0.00  0.00     0.046 C 
BRANCH  12  13
ATOM     13  C   UNL d   1     -39.512  14.329  20.426  0.00  0.00     0.124 C 
BRANCH  13  14
ATOM     14  O   UNL d   1     -39.803  14.570  21.156  0.00  0.00    -0.305 OA
BRANCH  14  15
ATOM     15  C   UNL d   1     -39.378  14.424  21.851  0.00  0.00     0.100 A 
ATOM     16  C   UNL d   1     -39.258  13.655  22.103  0.00  0.00     0.025 A 
ATOM     17  C   UNL d   1     -38.833  13.509  22.799  0.00  0.00     0.002 A 
ATOM     18  C   UNL d   1     -38.535  14.138  23.232  0.00  0.00     0.000 A 
ATOM     19  C   UNL d   1     -38.657  14.916  22.976  0.00  0.00     0.002 A 
ATOM     20  C   UNL d   1     -39.082  15.062  22.281  0.00  0.00     0.025 A 
ENDBRANCH  14  15
ENDBRANCH  13  14
ENDBRANCH  12  13
ENDBRANCH  11  12
ENDBRANCH   2  11
TORSDOF 5
ENDMDL
MODEL 7
REMARK VINA RESULT:      -5.4      8.137      9.439
REMARK  5 active torsions:
REMARK  status: ('A' for Active; 'I' for Inactive)
REMARK    1  A    between atoms: C_7  and  N_2 
REMARK    2  A    between atoms: C_8  and  C_7 
REMARK    3  A    between atoms: C_13  and  C_8 
REMARK    4  A    between atoms: C_9  and  O_11 
REMARK    5  A    between atoms: O_11  and  C_13 
ROOT
ATOM      1  C   UNL d   1     -40.528  15.022  17.212  0.00  0.00     0.378 A 
ATOM      2  N   UNL d   1     -40.206  14.455  17.727  0.00  0.00    -0.251 N 
ATOM      3  O   UNL d   1     -40.060  15.046  16.536  0.00  0.00    -0.258 OA
ATOM      4  C   UNL d   1     -39.536  14.133  17.356  0.00  0.00     0.092 A 
ATOM      5  C   UNL d   1     -39.447  14.498  16.622  0.00  0.00     0.121 A 
ATOM      6  O   UNL d   1     -41.198  15.476  17.360  0.00  0.00    -0.237 OA
ATOM      7  C   UNL d   1     -39.003  13.554  17.604  0.00  0.00     0.020 A 
ATOM      8  C   UNL d   1     -38.815  14.283  16.125  0.00  0.00     0.026 A 
ATOM      9  C   UNL d   1     -38.374  13.341  17.107  0.00  0.00     0.002 A 
ATOM     10  C   UNL d   1     -38.280  13.704  16.369  0.00  0.00     0.002 A 
ENDROOT
BRANCH   2  11
ATOM     11  C   UNL d   1     -40.498  14.253  18.463  0.00  0.00     0.087 C 
BRANCH  11  12
ATOM     12  C   UNL d   1     -40.481  14.790  19.085  0.00  0.00     0.046 C 
BRANCH  12  13
ATOM     13  C   UNL d   1     -40.395  14.533  19.855  0.00  0.00     0.124 C 
BRANCH  13  14
ATOM     14  O   UNL d   1     -40.488  15.054  20.485  0.00  0.00    -0.305 OA
BRANCH  14  15
ATOM     15  C   UNL d   1     -40.021  14.984  21.164  0.00  0.00     0.100 A 
ATOM     16  C   UNL d   1     -39.833  14.244  21.457  0.00  0.00     0.025 A 
ATOM     17  C   UNL d   1     -39.366  14.175  22.138  0.00  0.00     0.002 A 
ATOM     18  C   UNL d   1     -39.095  14.850  22.514  0.00  0.00     0.000 A 
ATOM     19  C   UNL d   1     -39.286  15.598  22.217  0.00  0.00     0.002 A 
ATOM     20  C   UNL d   1     -39.752  15.668  21.538  0.00  0.00     0.025 A 
ENDBRANCH  14  15
ENDBRANCH  13  14
ENDBRANCH  12  13
ENDBRANCH  11  12
ENDBRANCH   2  11
TORSDOF 5
ENDMDL
MODEL 8
REMARK VINA RESULT:      -5.0      8.108      9.873
REMARK  5 active torsions:
REMARK  status: ('A' for Active; 'I' for Inactive)
REMARK    1  A    between atoms: C_7  and  N_2 
REMARK    2  A    between atoms: C_8  and  C_7 
REMARK    3  A    between atoms: C_13  and  C_8 
REMARK    4  A    between atoms: C_9  and  O_11 
REMARK    5  A    between atoms: O_11  and  C_13 
ROOT
ATOM      1  C   UNL d   1     -40.174  14.790  20.675  0.00  0.00     0.378 A 
ATOM      2  N   UNL d   1     -39.416  14.555  20.426  0.00  0.00    -0.251 N 
ATOM      3  O   UNL d   1     -40.279  14.532  21.449  0.00  0.00    -0.258 OA
ATOM      4  C   UNL d   1     -39.060  14.150  21.059  0.00  0.00     0.092 A 
ATOM      5  C   UNL d   1     -39.593  14.137  21.689  0.00  0.00     0.121 A 
ATOM      6  O   UNL d   1     -40.717  15.207  20.219  0.00  0.00    -0.237 OA
ATOM      7  C   UNL d   1     -38.319  13.797  21.131  0.00  0.00     0.020 A 
ATOM      8  C   UNL d   1     -39.383  13.764  22.403  0.00  0.00     0.026 A 
ATOM      9  C   UNL d   1     -38.111  13.426  21.843  0.00  0.00     0.002 A 
ATOM     10  C   UNL d   1     -38.642  13.410  22.478  0.00  0.00     0.002 A 
ENDROOT
BRANCH   2  11
ATOM     11  C   UNL d   1     -39.084  14.697  19.693  0.00  0.00     0.087 C 
BRANCH  11  12
ATOM     12  C   UNL d   1     -39.371  14.321  19.021  0.00  0.00     0.046 C 
BRANCH  12  13
ATOM     13  C   UNL d   1     -38.980  14.387  18.308  0.00  0.00     0.124 C 
BRANCH  13  14
ATOM     14  O   UNL d   1     -39.241  13.975  17.646  0.00  0.00    -0.305 OA
BRANCH  14  15
ATOM     15  C   UNL d   1     -38.805  13.984  16.943  0.00  0.00     0.100 A 
ATOM     16  C   UNL d   1     -38.376  13.324  16.719  0.00  0.00     0.025 A 
ATOM     17  C   UNL d   1     -37.940  13.333  16.015  0.00  0.00     0.002 A 
ATOM     18  C   UNL d   1     -37.941  14.005  15.546  0.00  0.00     0.000 A 
ATOM     19  C   UNL d   1     -38.375  14.672  15.773  0.00  0.00     0.002 A 
ATOM     20  C   UNL d   1     -38.811  14.663  16.476  0.00  0.00     0.025 A 
ENDBRANCH  14  15
ENDBRANCH  13  14
ENDBRANCH  12  13
ENDBRANCH  11  12
ENDBRANCH   2  11
TORSDOF 5
ENDMDL
MODEL 9
REMARK VINA RESULT:      -4.3      8.241     10.085
REMARK  5 active torsions:
REMARK  status: ('A' for Active; 'I' for Inactive)
REMARK    1  A    between atoms: C_7  and  N_2 
REMARK    2  A    between atoms: C_8  and  C_7 
REMARK    3  A    between atoms: C_13  and  C_8 
REMARK    4  A    between atoms: C_9  and  O_11 
REMARK    5  A    between atoms: O_11  and  C_13 
ROOT
ATOM      1  C   UNL d   1     -38.378  13.015  17.307  0.00  0.00     0.378 A 
ATOM      2  N   UNL d   1     -38.317  13.838  17.406  0.00  0.00    -0.251 N 
ATOM      3  O   UNL d   1     -38.286  12.846  16.508  0.00  0.00    -0.258 OA
ATOM      4  C   UNL d   1     -38.186  14.170  16.655  0.00  0.00     0.092 A 
ATOM      5  C   UNL d   1     -38.167  13.557  16.103  0.00  0.00     0.121 A 
ATOM      6  O   UNL d   1     -38.509  12.471  17.911  0.00  0.00    -0.237 OA
ATOM      7  C   UNL d   1     -38.083  14.953  16.417  0.00  0.00     0.020 A 
ATOM      8  C   UNL d   1     -38.043  13.729  15.297  0.00  0.00     0.026 A 
ATOM      9  C   UNL d   1     -37.960  15.121  15.614  0.00  0.00     0.002 A 
ATOM     10  C   UNL d   1     -37.940  14.511  15.056  0.00  0.00     0.002 A 
ENDROOT
BRANCH   2  11
ATOM     11  C   UNL d   1     -38.376  14.245  18.112  0.00  0.00     0.087 C 
BRANCH  11  12
ATOM     12  C   UNL d   1     -38.953  14.050  18.664  0.00  0.00     0.046 C 
BRANCH  12  13
ATOM     13  C   UNL d   1     -39.270  14.619  19.155  0.00  0.00     0.124 C 
BRANCH  13  14
ATOM     14  O   UNL d   1     -39.546  14.422  19.904  0.00  0.00    -0.305 OA
BRANCH  14  15
ATOM     15  C   UNL d   1     -40.063  14.925  20.310  0.00  0.00     0.100 A 
ATOM     16  C   UNL d   1     -39.851  15.227  21.039  0.00  0.00     0.025 A 
ATOM     17  C   UNL d   1     -40.368  15.730  21.446  0.00  0.00     0.002 A 
ATOM     18  C   UNL d   1     -41.093  15.922  21.113  0.00  0.00     0.000 A 
ATOM     19  C   UNL d   1     -41.307  15.615  20.375  0.00  0.00     0.002 A 
ATOM     20  C   UNL d   1     -40.790  15.113  19.969  0.00  0.00     0.025 A 
ENDBRANCH  14  15
ENDBRANCH  13  14
ENDBRANCH  12  13
ENDBRANCH  11  12
ENDBRANCH   2  11
TORSDOF 5
ENDMDL
