MODEL 1
REMARK VINA RESULT:       0.9      0.000      0.000
REMARK  4 active torsions:
REMARK  status: ('A' for Active; 'I' for Inactive)
REMARK    1  A    between atoms: C_10  and  N_3 
REMARK    2  A    between atoms: C_11  and  C_6 
REMARK    3  A    between atoms: C_16  and  C_10 
REMARK    4  A    between atoms: N_17  and  C_16 
ROOT
ATOM      1  C   UNL d   1      58.199  -1.210  30.378  0.00  0.00     0.083 A 
ATOM      2  C   UNL d   1      57.745  -1.872  30.504  0.00  0.00     0.161 A 
ATOM      3  N   UNL d   1      58.643  -2.163  29.593  0.00  0.00    -0.270 N 
ATOM      4  C   UNL d   1      58.020  -2.464  30.018  0.00  0.00     0.288 A 
ATOM      5  C   UNL d   1      58.053  -0.516  30.791  0.00  0.00     0.201 A 
ATOM      6  C   UNL d   1      58.754  -1.392  29.814  0.00  0.00     0.072 A 
ATOM      7  O   UNL d   1      57.131  -1.847  31.054  0.00  0.00    -0.302 OA
ATOM      8  C   UNL d   1      57.439  -0.501  31.337  0.00  0.00     0.062 A 
ATOM      9  C   UNL d   1      56.983  -1.168  31.464  0.00  0.00     0.103 A 
ATOM     10  O   UNL d   1      57.715  -3.234  29.969  0.00  0.00    -0.264 OA
ATOM     11  O   UNL d   1      58.515   0.158  30.663  0.00  0.00    -0.286 OA
ATOM     12  C   UNL d   1      57.286   0.193  31.758  0.00  0.00     0.005 A 
ATOM     13  C   UNL d   1      56.371  -1.144  32.012  0.00  0.00     0.025 A 
ATOM     14  C   UNL d   1      56.680   0.201  32.294  0.00  0.00     0.000 A 
ATOM     15  C   UNL d   1      56.224  -0.466  32.421  0.00  0.00     0.002 A 
ENDROOT
BRANCH   6  16
ATOM     16  C   UNL d   1      59.336  -0.872  29.516  0.00  0.00     0.017 A 
ATOM     17  C   UNL d   1      59.158  -0.381  28.878  0.00  0.00     0.004 A 
ATOM     18  C   UNL d   1      59.736   0.133  28.585  0.00  0.00     0.030 A 
ATOM     19  C   UNL d   1      60.500   0.154  28.935  0.00  0.00     0.140 A 
ATOM     20  C   UNL d   1      60.667  -0.342  29.573  0.00  0.00     0.030 A 
ATOM     21  F   UNL d   1      61.081   0.671  28.640  0.00  0.00    -0.204 F 
ATOM     22  C   UNL d   1      60.086  -0.859  29.869  0.00  0.00     0.004 A 
ENDBRANCH   6  16
BRANCH   3  23
ATOM     23  C   UNL d   1      59.094  -2.579  29.026  0.00  0.00     0.102 C 
BRANCH  23  24
ATOM     24  C   UNL d   1      58.932  -3.386  28.884  0.00  0.00     0.100 C 
BRANCH  24  25
ATOM     25  N   UNL d   1      59.541  -3.884  28.605  0.00  0.00    -0.299 N 
ATOM     26  C   UNL d   1      60.297  -3.569  28.460  0.00  0.00     0.100 C 
ATOM     27  C   UNL d   1      59.389  -4.689  28.476  0.00  0.00     0.100 C 
ENDBRANCH  24  25
ENDBRANCH  23  24
ENDBRANCH   3  23
TORSDOF 4
ENDMDL
