MODEL 1
REMARK VINA RESULT:      71.0      0.000      0.000
REMARK  8 active torsions:
REMARK  status: ('A' for Active; 'I' for Inactive)
REMARK    1  A    between atoms: S_10  and  C_2 
REMARK    2  A    between atoms: C_7  and  C_4 
REMARK    3  A    between atoms: C_17  and  S_10 
REMARK    4  A    between atoms: C_14  and  C_17 
REMARK    5  A    between atoms: O_18  and  C_14 
REMARK    6  A    between atoms: O_19  and  C_15 
REMARK    7  A    between atoms: C_22  and  O_18 
REMARK    8  A    between atoms: C_24  and  C_22 
ROOT
ATOM      1  C   UNL d   1     -48.273  30.423  34.696  0.00  0.00     0.093 A 
ATOM      2  C   UNL d   1     -48.144  29.695  35.080  0.00  0.00     0.124 A 
ATOM      3  N   UNL d   1     -47.603  29.649  35.700  0.00  0.00    -0.200 NA
ATOM      4  C   UNL d   1     -47.860  31.095  34.938  0.00  0.00     0.028 A 
ATOM      5  C   UNL d   1     -47.321  31.046  35.557  0.00  0.00     0.127 A 
ATOM      6  C   UNL d   1     -47.191  30.318  35.940  0.00  0.00     0.289 A 
ATOM      7  C   UNL d   1     -48.810  30.474  34.080  0.00  0.00     0.103 C 
ATOM      8  C   UNL d   1     -46.907  31.717  35.799  0.00  0.00     0.106 C 
ATOM      9  N   UNL d   1     -49.342  30.519  33.469  0.00  0.00    -0.191 NA
ATOM     10  N   UNL d   1     -46.499  32.377  36.038  0.00  0.00    -0.191 NA
ATOM     11  O   UNL d   1     -46.593  30.320  36.609  0.00  0.00    -0.264 OA
ENDROOT
BRANCH   2  12
ATOM     12  S   UNL d   1     -48.607  29.025  34.782  0.00  0.00    -0.061 SA
BRANCH  12  13
ATOM     13  C   UNL d   1     -48.468  28.174  34.900  0.00  0.00     0.105 C 
BRANCH  13  14
ATOM     14  C   UNL d   1     -49.143  27.629  34.907  0.00  0.00     0.307 C 
ATOM     15  O   UNL d   1     -49.359  27.443  35.352  0.00  0.00    -0.258 OA
BRANCH  14  16
ATOM     16  O   UNL d   1     -49.444  27.409  34.103  0.00  0.00    -0.271 OA
BRANCH  16  17
ATOM     17  C   UNL d   1     -49.889  26.623  34.057  0.00  0.00     0.126 C 
BRANCH  17  18
ATOM     18  C   UNL d   1     -50.446  26.659  33.306  0.00  0.00     0.027 C 
ATOM     19  C   UNL d   1     -50.977  25.930  33.325  0.00  0.00     0.002 C 
ENDBRANCH  17  18
ENDBRANCH  16  17
ENDBRANCH  14  16
ENDBRANCH  13  14
ENDBRANCH  12  13
ENDBRANCH   2  12
BRANCH   4  20
ATOM     20  C   UNL d   1     -47.987  31.812  34.560  0.00  0.00     0.024 A 
ATOM     21  C   UNL d   1     -47.456  32.077  33.991  0.00  0.00     0.094 A 
ATOM     22  C   UNL d   1     -47.584  32.798  33.611  0.00  0.00     0.024 A 
ATOM     23  C   UNL d   1     -48.243  33.255  33.800  0.00  0.00     0.002 A 
ATOM     24  C   UNL d   1     -48.776  32.987  34.372  0.00  0.00     0.000 A 
ATOM     25  C   UNL d   1     -48.648  32.266  34.752  0.00  0.00     0.002 A 
BRANCH  21  26
ATOM     26  O   UNL d   1     -46.877  31.751  33.775  0.00  0.00    -0.328 OA
ATOM     27  C   UNL d   1     -46.296  32.162  33.306  0.00  0.00     0.181 C 
ENDBRANCH  21  26
ENDBRANCH   4  20
TORSDOF 8
ENDMDL
MODEL 2
REMARK VINA RESULT:      73.3      2.841      6.815
REMARK  8 active torsions:
REMARK  status: ('A' for Active; 'I' for Inactive)
REMARK    1  A    between atoms: S_10  and  C_2 
REMARK    2  A    between atoms: C_7  and  C_4 
REMARK    3  A    between atoms: C_17  and  S_10 
REMARK    4  A    between atoms: C_14  and  C_17 
REMARK    5  A    between atoms: O_18  and  C_14 
REMARK    6  A    between atoms: O_19  and  C_15 
REMARK    7  A    between atoms: C_22  and  O_18 
REMARK    8  A    between atoms: C_24  and  C_22 
ROOT
ATOM      1  C   UNL d   1     -50.486  26.132  33.759  0.00  0.00     0.093 A 
ATOM      2  C   UNL d   1     -50.596  26.955  33.831  0.00  0.00     0.124 A 
ATOM      3  N   UNL d   1     -51.354  27.274  33.773  0.00  0.00    -0.200 NA
ATOM      4  C   UNL d   1     -51.135  25.641  33.629  0.00  0.00     0.028 A 
ATOM      5  C   UNL d   1     -51.890  25.961  33.570  0.00  0.00     0.127 A 
ATOM      6  C   UNL d   1     -52.000  26.783  33.643  0.00  0.00     0.289 A 
ATOM      7  C   UNL d   1     -49.735  25.812  33.817  0.00  0.00     0.103 C 
ATOM      8  C   UNL d   1     -52.539  25.469  33.440  0.00  0.00     0.106 C 
ATOM      9  N   UNL d   1     -48.989  25.498  33.875  0.00  0.00    -0.191 NA
ATOM     10  N   UNL d   1     -53.179  24.987  33.312  0.00  0.00    -0.191 NA
ATOM     11  O   UNL d   1     -52.843  27.081  33.571  0.00  0.00    -0.264 OA
ENDROOT
BRANCH   2  12
ATOM     12  S   UNL d   1     -49.878  27.421  33.968  0.00  0.00    -0.061 SA
BRANCH  12  13
ATOM     13  C   UNL d   1     -49.769  28.113  34.485  0.00  0.00     0.105 C 
BRANCH  13  14
ATOM     14  C   UNL d   1     -48.985  28.273  34.822  0.00  0.00     0.307 C 
ATOM     15  O   UNL d   1     -48.903  28.342  35.339  0.00  0.00    -0.258 OA
BRANCH  14  16
ATOM     16  O   UNL d   1     -48.331  28.312  34.226  0.00  0.00    -0.271 OA
BRANCH  16  17
ATOM     17  C   UNL d   1     -47.742  28.987  34.340  0.00  0.00     0.126 C 
BRANCH  17  18
ATOM     18  C   UNL d   1     -47.753  29.219  35.248  0.00  0.00     0.027 C 
ATOM     19  C   UNL d   1     -47.053  29.767  35.397  0.00  0.00     0.002 C 
ENDBRANCH  17  18
ENDBRANCH  16  17
ENDBRANCH  14  16
ENDBRANCH  13  14
ENDBRANCH  12  13
ENDBRANCH   2  12
BRANCH   4  20
ATOM     20  C   UNL d   1     -51.027  24.830  33.557  0.00  0.00     0.024 A 
ATOM     21  C   UNL d   1     -51.665  24.320  33.651  0.00  0.00     0.094 A 
ATOM     22  C   UNL d   1     -51.556  23.505  33.579  0.00  0.00     0.024 A 
ATOM     23  C   UNL d   1     -50.809  23.200  33.413  0.00  0.00     0.002 A 
ATOM     24  C   UNL d   1     -50.168  23.714  33.319  0.00  0.00     0.000 A 
ATOM     25  C   UNL d   1     -50.277  24.529  33.391  0.00  0.00     0.002 A 
BRANCH  21  26
ATOM     26  O   UNL d   1     -52.325  24.498  33.792  0.00  0.00    -0.328 OA
ATOM     27  C   UNL d   1     -52.934  23.903  33.848  0.00  0.00     0.181 C 
ENDBRANCH  21  26
ENDBRANCH   4  20
TORSDOF 8
ENDMDL
