MODEL 1
REMARK VINA RESULT:      75.3      0.000      0.000
REMARK  4 active torsions:
REMARK  status: ('A' for Active; 'I' for Inactive)
REMARK    1  A    between atoms: C_18  and  N_4 
REMARK    2  A    between atoms: C_11  and  C_6 
REMARK       I    between atoms: N_15  and  C_11 
REMARK    3  A    between atoms: C_26  and  N_15 
REMARK    4  A    between atoms: C_17  and  C_26 
ROOT
ATOM      1  C   UNL d   1      44.282 -14.704  37.789  0.00  0.00     0.155 A 
ATOM      2  C   UNL d   1      43.657 -14.309  38.152  0.00  0.00     0.091 A 
ATOM      3  N   UNL d   1      44.122 -15.354  37.303  0.00  0.00    -0.210 NA
ATOM      4  N   UNL d   1      45.045 -14.453  37.911  0.00  0.00    -0.275 N 
ATOM      5  C   UNL d   1      45.204 -13.811  38.390  0.00  0.00     0.175 A 
ATOM      6  C   UNL d   1      44.581 -13.417  38.752  0.00  0.00     0.094 A 
ATOM      7  N   UNL d   1      42.718 -15.211  37.545  0.00  0.00    -0.258 N 
ATOM      8  C   UNL d   1      43.352 -15.612  37.177  0.00  0.00     0.152 A 
ATOM      9  C   UNL d   1      42.864 -14.559  38.034  0.00  0.00     0.269 A 
ATOM     10  C   UNL d   1      43.804 -13.659  38.639  0.00  0.00     0.016 A 
ATOM     11  C   UNL d   1      43.199 -16.255  36.696  0.00  0.00     0.035 A 
ATOM     12  N   UNL d   1      45.984 -13.553  38.516  0.00  0.00    -0.128 N 
ATOM     13  C   UNL d   1      41.941 -15.459  37.427  0.00  0.00     0.084 A 
ATOM     14  O   UNL d   1      42.251 -14.162  38.398  0.00  0.00    -0.266 OA
ATOM     15  C   UNL d   1      41.797 -16.110  36.939  0.00  0.00     0.019 A 
ATOM     16  C   UNL d   1      42.431 -16.512  36.570  0.00  0.00     0.005 A 
ATOM     17  C   UNL d   1      43.829 -16.653  36.330  0.00  0.00     0.003 C 
ENDROOT
BRANCH   6  18
ATOM     18  C   UNL d   1      44.735 -12.763  39.242  0.00  0.00     0.282 C 
ATOM     19  N   UNL d   1      44.551 -12.792  40.045  0.00  0.00    -0.204 NA
ATOM     20  O   UNL d   1      45.076 -12.081  38.919  0.00  0.00    -0.265 OA
BRANCH  19  21
ATOM     21  C   UNL d   1      44.704 -12.146  40.527  0.00  0.00     0.127 C 
BRANCH  21  22
ATOM     22  C   UNL d   1      44.870 -12.255  41.334  0.00  0.00     0.119 A 
ATOM     23  O   UNL d   1      45.574 -12.551  41.651  0.00  0.00    -0.304 OA
ATOM     24  C   UNL d   1      45.493 -12.562  42.474  0.00  0.00     0.123 A 
ATOM     25  C   UNL d   1      44.744 -12.274  42.660  0.00  0.00     0.029 A 
ATOM     26  C   UNL d   1      44.358 -12.084  41.951  0.00  0.00     0.028 A 
ENDBRANCH  21  22
ENDBRANCH  19  21
ENDBRANCH   6  18
BRANCH   4  27
ATOM     27  C   UNL d   1      45.674 -14.851  37.545  0.00  0.00     0.067 A 
ATOM     28  C   UNL d   1      46.059 -14.605  36.858  0.00  0.00     0.018 A 
ATOM     29  C   UNL d   1      46.647 -15.159  36.688  0.00  0.00     0.002 A 
ATOM     30  C   UNL d   1      46.627 -15.754  37.276  0.00  0.00     0.002 A 
ATOM     31  C   UNL d   1      46.023 -15.553  37.797  0.00  0.00     0.018 A 
ENDBRANCH   4  27
TORSDOF 4
ENDMDL
MODEL 2
REMARK VINA RESULT:      76.9      4.787      5.917
REMARK  4 active torsions:
REMARK  status: ('A' for Active; 'I' for Inactive)
REMARK    1  A    between atoms: C_18  and  N_4 
REMARK    2  A    between atoms: C_11  and  C_6 
REMARK       I    between atoms: N_15  and  C_11 
REMARK    3  A    between atoms: C_26  and  N_15 
REMARK    4  A    between atoms: C_17  and  C_26 
ROOT
ATOM      1  C   UNL d   1      46.196 -17.605  42.770  0.00  0.00     0.155 A 
ATOM      2  C   UNL d   1      46.258 -17.349  43.550  0.00  0.00     0.091 A 
ATOM      3  N   UNL d   1      46.174 -18.417  42.612  0.00  0.00    -0.210 NA
ATOM      4  N   UNL d   1      46.157 -17.062  42.168  0.00  0.00    -0.275 N 
ATOM      5  C   UNL d   1      46.178 -16.261  42.323  0.00  0.00     0.175 A 
ATOM      6  C   UNL d   1      46.240 -16.005  43.102  0.00  0.00     0.094 A 
ATOM      7  N   UNL d   1      46.277 -18.711  44.009  0.00  0.00    -0.258 N 
ATOM      8  C   UNL d   1      46.214 -18.971  43.217  0.00  0.00     0.152 A 
ATOM      9  C   UNL d   1      46.299 -17.901  44.183  0.00  0.00     0.269 A 
ATOM     10  C   UNL d   1      46.280 -16.542  43.722  0.00  0.00     0.016 A 
ATOM     11  C   UNL d   1      46.192 -19.771  43.056  0.00  0.00     0.035 A 
ATOM     12  N   UNL d   1      46.138 -15.703  41.708  0.00  0.00    -0.128 N 
ATOM     13  C   UNL d   1      46.317 -19.255  44.626  0.00  0.00     0.084 A 
ATOM     14  O   UNL d   1      46.361 -17.638  44.953  0.00  0.00    -0.266 OA
ATOM     15  C   UNL d   1      46.294 -20.063  44.452  0.00  0.00     0.019 A 
ATOM     16  C   UNL d   1      46.231 -20.323  43.660  0.00  0.00     0.005 A 
ATOM     17  C   UNL d   1      46.129 -20.030  42.269  0.00  0.00     0.003 C 
ENDROOT
BRANCH   6  18
ATOM     18  C   UNL d   1      46.262 -15.191  43.267  0.00  0.00     0.282 C 
ATOM     19  N   UNL d   1      45.908 -14.896  43.952  0.00  0.00    -0.204 NA
ATOM     20  O   UNL d   1      46.641 -14.675  42.742  0.00  0.00    -0.265 OA
BRANCH  19  21
ATOM     21  C   UNL d   1      45.930 -14.092  44.114  0.00  0.00     0.127 C 
BRANCH  21  22
ATOM     22  C   UNL d   1      45.358 -13.583  43.793  0.00  0.00     0.119 A 
ATOM     23  O   UNL d   1      44.611 -13.803  43.516  0.00  0.00    -0.304 OA
ATOM     24  C   UNL d   1      44.231 -13.118  43.247  0.00  0.00     0.123 A 
ATOM     25  C   UNL d   1      44.744 -12.483  43.359  0.00  0.00     0.029 A 
ATOM     26  C   UNL d   1      45.443 -12.773  43.698  0.00  0.00     0.028 A 
ENDBRANCH  21  22
ENDBRANCH  19  21
ENDBRANCH   6  18
BRANCH   4  27
ATOM     27  C   UNL d   1      46.094 -17.321  41.382  0.00  0.00     0.067 A 
ATOM     28  C   UNL d   1      45.470 -17.764  41.074  0.00  0.00     0.018 A 
ATOM     29  C   UNL d   1      45.629 -17.899  40.276  0.00  0.00     0.002 A 
ATOM     30  C   UNL d   1      46.359 -17.536  40.087  0.00  0.00     0.002 A 
ATOM     31  C   UNL d   1      46.635 -17.183  40.776  0.00  0.00     0.018 A 
ENDBRANCH   4  27
TORSDOF 4
ENDMDL
