MODEL 1
REMARK VINA RESULT:      60.0      0.000      0.000
REMARK  3 active torsions:
REMARK  status: ('A' for Active; 'I' for Inactive)
REMARK    1  A    between atoms: C_9  and  C_1 
REMARK       I    between atoms: N_12  and  C_9 
REMARK    2  A    between atoms: C_16  and  N_12 
REMARK    3  A    between atoms: C_17  and  C_16 
ROOT
ATOM      1  C   UNL d   1      13.722  13.853  -3.755  0.00  0.00     0.108 A 
ATOM      2  C   UNL d   1      13.641  14.884  -4.585  0.00  0.00     0.044 A 
ATOM      3  C   UNL d   1      14.206  15.080  -3.970  0.00  0.00     0.112 A 
ATOM      4  S   UNL d   1      14.253  14.432  -3.453  0.00  0.00    -0.061 SA
ATOM      5  C   UNL d   1      13.354  14.121  -4.432  0.00  0.00     0.116 A 
ATOM      6  N   UNL d   1      14.578  15.800  -3.980  0.00  0.00    -0.239 NA
ATOM      7  C   UNL d   1      13.868  16.151  -5.171  0.00  0.00     0.057 A 
ATOM      8  C   UNL d   1      13.484  15.421  -5.171  0.00  0.00     0.008 A 
ATOM      9  C   UNL d   1      14.409  16.338  -4.583  0.00  0.00     0.085 A 
ATOM     10  C   UNL d   1      13.700  16.694  -5.776  0.00  0.00     0.197 A 
ATOM     11  N   UNL d   1      12.786  13.684  -4.883  0.00  0.00    -0.147 N 
ATOM     12  O   UNL d   1      13.151  16.504  -6.374  0.00  0.00    -0.286 OA
ATOM     13  C   UNL d   1      14.794  17.074  -4.585  0.00  0.00     0.019 A 
ATOM     14  C   UNL d   1      14.072  17.421  -5.790  0.00  0.00     0.042 A 
ATOM     15  C   UNL d   1      14.637  17.617  -5.174  0.00  0.00     0.005 A 
ENDROOT
BRANCH   1  16
ATOM     16  C   UNL d   1      13.583  13.105  -3.415  0.00  0.00     0.287 C 
ATOM     17  N   UNL d   1      13.847  12.975  -2.647  0.00  0.00    -0.206 NA
ATOM     18  O   UNL d   1      13.197  12.507  -3.821  0.00  0.00    -0.265 OA
BRANCH  17  19
ATOM     19  C   UNL d   1      13.717  12.233  -2.292  0.00  0.00     0.102 C 
BRANCH  19  20
ATOM     20  C   UNL d   1      13.996  12.082  -1.534  0.00  0.00     0.019 A 
ATOM     21  C   UNL d   1      14.807  12.070  -1.388  0.00  0.00     0.002 A 
ATOM     22  C   UNL d   1      15.083  11.918  -0.625  0.00  0.00     0.000 A 
ATOM     23  C   UNL d   1      14.560  11.780  -0.014  0.00  0.00     0.000 A 
ATOM     24  C   UNL d   1      13.751  11.790  -0.153  0.00  0.00     0.000 A 
ATOM     25  C   UNL d   1      13.466  11.941  -0.914  0.00  0.00     0.002 A 
ENDBRANCH  19  20
ENDBRANCH  17  19
ENDBRANCH   1  16
TORSDOF 3
ENDMDL
MODEL 2
REMARK VINA RESULT:      61.6      1.971      5.480
REMARK  3 active torsions:
REMARK  status: ('A' for Active; 'I' for Inactive)
REMARK    1  A    between atoms: C_9  and  C_1 
REMARK       I    between atoms: N_12  and  C_9 
REMARK    2  A    between atoms: C_16  and  N_12 
REMARK    3  A    between atoms: C_17  and  C_16 
ROOT
ATOM      1  C   UNL d   1      14.212  15.699  -4.256  0.00  0.00     0.108 A 
ATOM      2  C   UNL d   1      13.813  14.479  -3.922  0.00  0.00     0.044 A 
ATOM      3  C   UNL d   1      13.744  14.560  -4.773  0.00  0.00     0.112 A 
ATOM      4  S   UNL d   1      13.995  15.324  -4.977  0.00  0.00    -0.061 SA
ATOM      5  C   UNL d   1      14.105  15.196  -3.622  0.00  0.00     0.116 A 
ATOM      6  N   UNL d   1      13.471  13.937  -5.215  0.00  0.00    -0.239 NA
ATOM      7  C   UNL d   1      13.327  13.155  -4.027  0.00  0.00     0.057 A 
ATOM      8  C   UNL d   1      13.604  13.781  -3.567  0.00  0.00     0.008 A 
ATOM      9  C   UNL d   1      13.261  13.232  -4.842  0.00  0.00     0.085 A 
ATOM     10  C   UNL d   1      13.115  12.445  -3.654  0.00  0.00     0.197 A 
ATOM     11  N   UNL d   1      14.266  15.388  -2.814  0.00  0.00    -0.147 N 
ATOM     12  O   UNL d   1      13.182  12.366  -2.826  0.00  0.00    -0.286 OA
ATOM     13  C   UNL d   1      12.981  12.601  -5.302  0.00  0.00     0.019 A 
ATOM     14  C   UNL d   1      12.839  11.816  -4.095  0.00  0.00     0.042 A 
ATOM     15  C   UNL d   1      12.770  11.897  -4.947  0.00  0.00     0.005 A 
ENDROOT
BRANCH   1  16
ATOM     16  C   UNL d   1      14.500  16.478  -4.186  0.00  0.00     0.287 C 
ATOM     17  N   UNL d   1      14.322  17.009  -4.787  0.00  0.00    -0.206 NA
ATOM     18  O   UNL d   1      14.947  16.722  -3.544  0.00  0.00    -0.265 OA
BRANCH  17  19
ATOM     19  C   UNL d   1      14.601  17.793  -4.734  0.00  0.00     0.102 C 
BRANCH  19  20
ATOM     20  C   UNL d   1      14.364  18.355  -5.285  0.00  0.00     0.019 A 
ATOM     21  C   UNL d   1      14.799  19.048  -5.381  0.00  0.00     0.002 A 
ATOM     22  C   UNL d   1      14.557  19.609  -5.935  0.00  0.00     0.000 A 
ATOM     23  C   UNL d   1      13.891  19.484  -6.389  0.00  0.00     0.000 A 
ATOM     24  C   UNL d   1      13.453  18.796  -6.299  0.00  0.00     0.000 A 
ATOM     25  C   UNL d   1      13.688  18.228  -5.746  0.00  0.00     0.002 A 
ENDBRANCH  19  20
ENDBRANCH  17  19
ENDBRANCH   1  16
TORSDOF 3
ENDMDL
