MODEL 1
REMARK VINA RESULT:      70.7      0.000      0.000
REMARK  6 active torsions:
REMARK  status: ('A' for Active; 'I' for Inactive)
REMARK    1  A    between atoms: C_9  and  C_1 
REMARK    2  A    between atoms: N_4  and  C_2 
REMARK       I    between atoms: C_5  and  N_4 
REMARK    3  A    between atoms: C_7  and  C_5 
REMARK    4  A    between atoms: O_13  and  C_9 
REMARK    5  A    between atoms: O_16  and  C_11 
REMARK    6  A    between atoms: C_19  and  O_13 
ROOT
ATOM      1  C   UNL d   1      60.680  49.344  52.004  0.00  0.00     0.181 A 
ATOM      2  C   UNL d   1      60.232  49.388  51.305  0.00  0.00     0.115 A 
ATOM      3  O   UNL d   1      61.442  49.100  51.788  0.00  0.00    -0.300 OA
ATOM      4  C   UNL d   1      60.715  49.176  50.679  0.00  0.00     0.043 A 
ATOM      5  C   UNL d   1      61.466  48.996  50.976  0.00  0.00     0.102 A 
ATOM      6  C   UNL d   1      60.570  49.120  49.869  0.00  0.00     0.004 A 
ATOM      7  C   UNL d   1      62.063  48.765  50.466  0.00  0.00     0.025 A 
ATOM      8  C   UNL d   1      61.176  48.886  49.355  0.00  0.00     0.000 A 
ATOM      9  C   UNL d   1      61.924  48.708  49.661  0.00  0.00     0.002 A 
ENDROOT
BRANCH   2  10
ATOM     10  N   UNL d   1      59.432  49.611  51.255  0.00  0.00    -0.206 NA
ATOM     11  C   UNL d   1      58.849  49.032  51.210  0.00  0.00     0.281 C 
ATOM     12  O   UNL d   1      59.053  48.234  51.212  0.00  0.00    -0.265 OA
BRANCH  11  13
ATOM     13  C   UNL d   1      58.059  49.253  51.161  0.00  0.00     0.080 A 
ATOM     14  C   UNL d   1      57.690  49.329  50.415  0.00  0.00     0.099 A 
ATOM     15  C   UNL d   1      56.903  49.550  50.379  0.00  0.00     0.024 A 
ATOM     16  C   UNL d   1      56.478  49.696  51.079  0.00  0.00     0.002 A 
ATOM     17  C   UNL d   1      56.848  49.620  51.804  0.00  0.00     0.000 A 
ATOM     18  C   UNL d   1      57.636  49.399  51.849  0.00  0.00     0.007 A 
BRANCH  14  19
ATOM     19  O   UNL d   1      58.123  49.181  49.735  0.00  0.00    -0.328 OA
ATOM     20  C   UNL d   1      58.044  49.700  49.099  0.00  0.00     0.181 C 
ENDBRANCH  14  19
ENDBRANCH  11  13
ENDBRANCH   2  10
BRANCH   1  21
ATOM     21  C   UNL d   1      60.414  49.511  52.768  0.00  0.00     0.325 C 
ATOM     22  O   UNL d   1      60.955  49.544  53.394  0.00  0.00    -0.257 OA
BRANCH  21  23
ATOM     23  O   UNL d   1      59.618  49.642  52.901  0.00  0.00    -0.269 OA
BRANCH  23  24
ATOM     24  C   UNL d   1      59.310  49.580  53.671  0.00  0.00     0.126 C 
ATOM     25  C   UNL d   1      59.809  49.705  54.322  0.00  0.00     0.029 C 
ENDBRANCH  23  24
ENDBRANCH  21  23
ENDBRANCH   1  21
TORSDOF 6
ENDMDL
