MODEL 1
REMARK VINA RESULT:       5.2      0.000      0.000
REMARK  6 active torsions:
REMARK  status: ('A' for Active; 'I' for Inactive)
REMARK    1  A    between atoms: N_9  and  C_1 
REMARK    2  A    between atoms: C_15  and  N_4 
REMARK    3  A    between atoms: C_7  and  N_9 
REMARK    4  A    between atoms: C_12  and  C_11 
REMARK    5  A    between atoms: C_13  and  C_12 
REMARK       I    between atoms: N_16  and  C_13 
REMARK    6  A    between atoms: C_20  and  N_16 
ROOT
ATOM      1  N   UNL d   1     -41.413-121.323 -50.869  0.00  0.00    -0.182 NA
ATOM      2  C   UNL d   1     -41.228-122.078 -51.153  0.00  0.00     0.197 A 
ATOM      3  C   UNL d   1     -41.422-120.804 -51.507  0.00  0.00     0.287 A 
ATOM      4  S   UNL d   1     -41.123-122.021 -51.973  0.00  0.00    -0.043 SA
ATOM      5  C   UNL d   1     -41.243-121.238 -52.185  0.00  0.00     0.095 A 
ATOM      6  O   UNL d   1     -41.583-119.992 -51.472  0.00  0.00    -0.265 OA
ENDROOT
BRANCH   2   7
ATOM      7  N   UNL d   1     -41.161-122.762 -50.697  0.00  0.00    -0.215 NA
BRANCH   7   8
ATOM      8  C   UNL d   1     -41.759-122.969 -50.181  0.00  0.00     0.159 A 
ATOM      9  C   UNL d   1     -41.744-122.859 -49.359  0.00  0.00     0.298 A 
ATOM     10  N   UNL d   1     -42.461-123.146 -49.054  0.00  0.00    -0.209 N 
ATOM     11  O   UNL d   1     -41.133-122.527 -48.926  0.00  0.00    -0.263 OA
ATOM     12  N   UNL d   1     -42.910-123.430 -49.684  0.00  0.00    -0.238 N 
ATOM     13  C   UNL d   1     -42.476-123.321 -50.381  0.00  0.00     0.104 A 
ATOM     14  C   UNL d   1     -43.658-123.764 -49.633  0.00  0.00     0.120 C 
ATOM     15  C   UNL d   1     -42.713-123.524 -51.138  0.00  0.00     0.022 C 
BRANCH  10  16
ATOM     16  C   UNL d   1     -42.680-123.148 -48.269  0.00  0.00     0.085 A 
ATOM     17  C   UNL d   1     -43.030-122.474 -47.937  0.00  0.00     0.019 A 
ATOM     18  C   UNL d   1     -43.250-122.476 -47.151  0.00  0.00     0.002 A 
ATOM     19  C   UNL d   1     -43.127-123.148 -46.677  0.00  0.00     0.000 A 
ATOM     20  C   UNL d   1     -42.779-123.817 -47.010  0.00  0.00     0.002 A 
ATOM     21  C   UNL d   1     -42.556-123.817 -47.804  0.00  0.00     0.019 A 
ENDBRANCH  10  16
ENDBRANCH   7   8
ENDBRANCH   2   7
BRANCH   5  22
ATOM     22  C   UNL d   1     -41.195-120.930 -52.949  0.00  0.00     0.074 C 
BRANCH  22  23
ATOM     23  C   UNL d   1     -41.499-121.355 -53.583  0.00  0.00     0.280 C 
ATOM     24  N   UNL d   1     -42.109-121.048 -54.037  0.00  0.00    -0.208 NA
ATOM     25  O   UNL d   1     -41.191-122.100 -53.768  0.00  0.00    -0.265 OA
BRANCH  24  26
ATOM     26  C   UNL d   1     -42.410-121.475 -54.669  0.00  0.00     0.085 A 
ATOM     27  C   UNL d   1     -42.016-121.467 -55.393  0.00  0.00     0.020 A 
ATOM     28  C   UNL d   1     -42.317-121.896 -56.031  0.00  0.00     0.013 A 
ATOM     29  C   UNL d   1     -43.018-122.334 -55.936  0.00  0.00     0.058 A 
ATOM     30  C   UNL d   1     -43.405-122.338 -55.216  0.00  0.00     0.013 A 
ATOM     31 CL   UNL d   1     -43.319-122.763 -56.574  0.00  0.00    -0.082 Cl
ATOM     32  C   UNL d   1     -43.104-121.909 -54.578  0.00  0.00     0.020 A 
ENDBRANCH  24  26
ENDBRANCH  22  23
ENDBRANCH   5  22
TORSDOF 6
ENDMDL
