MODEL 1
REMARK VINA RESULT:      49.6      0.000      0.000
REMARK  4 active torsions:
REMARK  status: ('A' for Active; 'I' for Inactive)
REMARK    1  A    between atoms: N_5  and  C_1 
REMARK    2  A    between atoms: C_8  and  C_2 
REMARK       I    between atoms: C_7  and  N_5 
REMARK    3  A    between atoms: C_10  and  C_7 
REMARK    4  A    between atoms: N_9  and  C_8 
ROOT
ATOM      1  C   UNL d   1      45.969 -18.708  42.922  0.00  0.00     0.115 A 
ATOM      2  C   UNL d   1      46.328 -18.342  43.566  0.00  0.00     0.042 A 
ATOM      3  S   UNL d   1      45.758 -19.484  43.153  0.00  0.00    -0.068 SA
ATOM      4  C   UNL d   1      46.340 -18.886  44.194  0.00  0.00     0.009 A 
ATOM      5  C   UNL d   1      45.985 -19.584  43.924  0.00  0.00     0.031 A 
ATOM      6  C   UNL d   1      46.647 -18.762  44.953  0.00  0.00     0.001 C 
ATOM      7  C   UNL d   1      45.877 -20.278  44.365  0.00  0.00     0.007 C 
ENDROOT
BRANCH   1   8
ATOM      8  N   UNL d   1      45.879 -18.298  42.211  0.00  0.00    -0.201 NA
ATOM      9  C   UNL d   1      45.909 -18.702  41.495  0.00  0.00     0.280 C 
ATOM     10  O   UNL d   1      46.030 -19.517  41.489  0.00  0.00    -0.265 OA
BRANCH   9  11
ATOM     11  C   UNL d   1      45.819 -18.292  40.785  0.00  0.00     0.058 A 
ATOM     12  C   UNL d   1      45.069 -18.188  40.461  0.00  0.00     0.007 A 
ATOM     13  C   UNL d   1      44.978 -17.774  39.743  0.00  0.00     0.030 A 
ATOM     14  C   UNL d   1      45.637 -17.469  39.357  0.00  0.00     0.140 A 
ATOM     15  C   UNL d   1      46.387 -17.573  39.680  0.00  0.00     0.030 A 
ATOM     16  F   UNL d   1      45.546 -17.059  38.647  0.00  0.00    -0.204 F 
ATOM     17  C   UNL d   1      46.479 -17.987  40.398  0.00  0.00     0.007 A 
ENDBRANCH   9  11
ENDBRANCH   1   8
BRANCH   2  18
ATOM     18  C   UNL d   1      46.626 -17.563  43.585  0.00  0.00     0.082 C 
BRANCH  18  19
ATOM     19  N   UNL d   1      46.166 -16.952  43.895  0.00  0.00    -0.302 N 
ATOM     20  C   UNL d   1      46.257 -16.252  43.466  0.00  0.00     0.080 A 
ATOM     21  C   UNL d   1      45.901 -15.526  43.591  0.00  0.00     0.019 A 
ATOM     22  C   UNL d   1      45.363 -15.308  44.177  0.00  0.00     0.002 A 
ATOM     23  C   UNL d   1      45.047 -15.767  44.785  0.00  0.00     0.002 A 
ATOM     24  C   UNL d   1      45.196 -16.564  44.954  0.00  0.00     0.019 A 
ATOM     25  C   UNL d   1      45.691 -17.089  44.561  0.00  0.00     0.080 A 
ENDBRANCH  18  19
ENDBRANCH   2  18
TORSDOF 4
ENDMDL
