MODEL 1
REMARK VINA RESULT:     -10.0      0.000      0.000
REMARK  5 active torsions:
REMARK  status: ('A' for Active; 'I' for Inactive)
REMARK    1  A    between atoms: C_6  and  N_1 
REMARK    2  A    between atoms: C_7  and  C_2 
REMARK    3  A    between atoms: C_12  and  C_6 
REMARK    4  A    between atoms: C_11  and  C_7 
REMARK       I    between atoms: C_8  and  N_10 
REMARK    5  A    between atoms: N_10  and  C_11 
ROOT
ATOM      1  N   UNL d   1      53.303  32.752  53.552  0.00  0.00    -0.289 N 
ATOM      2  C   UNL d   1      52.564  33.111  53.688  0.00  0.00     0.149 A 
ATOM      3  N   UNL d   1      52.660  33.674  54.287  0.00  0.00    -0.227 NA
ATOM      4  C   UNL d   1      53.854  33.094  54.068  0.00  0.00     0.083 A 
ATOM      5  C   UNL d   1      53.455  33.666  54.524  0.00  0.00     0.099 A 
ATOM      6  C   UNL d   1      54.664  32.965  54.186  0.00  0.00     0.019 A 
ATOM      7  C   UNL d   1      53.871  34.103  55.093  0.00  0.00     0.021 A 
ATOM      8  C   UNL d   1      55.073  33.399  54.751  0.00  0.00     0.002 A 
ATOM      9  C   UNL d   1      54.678  33.966  55.202  0.00  0.00     0.002 A 
ENDROOT
BRANCH   1  10
ATOM     10  C   UNL d   1      53.462  32.157  53.001  0.00  0.00     0.082 C 
BRANCH  10  11
ATOM     11  C   UNL d   1      53.275  31.374  53.170  0.00  0.00     0.018 A 
ATOM     12  C   UNL d   1      53.782  30.928  53.642  0.00  0.00     0.002 A 
ATOM     13  C   UNL d   1      53.598  30.137  53.816  0.00  0.00     0.000 A 
ATOM     14  C   UNL d   1      52.909  29.815  53.513  0.00  0.00     0.000 A 
ATOM     15  C   UNL d   1      52.401  30.264  53.039  0.00  0.00     0.000 A 
ATOM     16  C   UNL d   1      52.588  31.047  52.870  0.00  0.00     0.002 A 
ENDBRANCH  10  11
ENDBRANCH   1  10
BRANCH   2  17
ATOM     17  C   UNL d   1      51.760  33.242  53.574  0.00  0.00     0.058 C 
BRANCH  17  18
ATOM     18  C   UNL d   1      51.509  33.762  52.988  0.00  0.00     0.105 C 
BRANCH  18  19
ATOM     19  N   UNL d   1      50.717  33.983  52.947  0.00  0.00    -0.206 NA
ATOM     20  C   UNL d   1      50.405  34.273  52.247  0.00  0.00     0.280 C 
ATOM     21  O   UNL d   1      50.888  34.343  51.582  0.00  0.00    -0.265 OA
ATOM     22  C   UNL d   1      49.611  34.494  52.205  0.00  0.00     0.068 C 
ENDBRANCH  18  19
ENDBRANCH  17  18
ENDBRANCH   2  17
TORSDOF 5
ENDMDL
MODEL 2
REMARK VINA RESULT:      -9.2      1.498      3.774
REMARK  5 active torsions:
REMARK  status: ('A' for Active; 'I' for Inactive)
REMARK    1  A    between atoms: C_6  and  N_1 
REMARK    2  A    between atoms: C_7  and  C_2 
REMARK    3  A    between atoms: C_12  and  C_6 
REMARK    4  A    between atoms: C_11  and  C_7 
REMARK       I    between atoms: C_8  and  N_10 
REMARK    5  A    between atoms: N_10  and  C_11 
ROOT
ATOM      1  N   UNL d   1      52.980  32.849  53.838  0.00  0.00    -0.289 N 
ATOM      2  C   UNL d   1      53.047  32.210  53.308  0.00  0.00     0.149 A 
ATOM      3  N   UNL d   1      52.600  32.388  52.636  0.00  0.00    -0.227 NA
ATOM      4  C   UNL d   1      52.490  33.420  53.490  0.00  0.00     0.083 A 
ATOM      5  C   UNL d   1      52.254  33.134  52.744  0.00  0.00     0.099 A 
ATOM      6  C   UNL d   1      52.225  34.161  53.750  0.00  0.00     0.019 A 
ATOM      7  C   UNL d   1      51.756  33.592  52.265  0.00  0.00     0.021 A 
ATOM      8  C   UNL d   1      51.732  34.613  53.272  0.00  0.00     0.002 A 
ATOM      9  C   UNL d   1      51.499  34.329  52.533  0.00  0.00     0.002 A 
ENDROOT
BRANCH   1  10
ATOM     10  C   UNL d   1      53.337  32.907  54.581  0.00  0.00     0.082 C 
BRANCH  10  11
ATOM     11  C   UNL d   1      54.087  33.239  54.655  0.00  0.00     0.018 A 
ATOM     12  C   UNL d   1      54.242  33.756  55.277  0.00  0.00     0.002 A 
ATOM     13  C   UNL d   1      54.997  34.094  55.357  0.00  0.00     0.000 A 
ATOM     14  C   UNL d   1      55.575  33.904  54.810  0.00  0.00     0.000 A 
ATOM     15  C   UNL d   1      55.417  33.384  54.187  0.00  0.00     0.000 A 
ATOM     16  C   UNL d   1      54.668  33.052  54.112  0.00  0.00     0.002 A 
ENDBRANCH  10  11
ENDBRANCH   1  10
BRANCH   2  17
ATOM     17  C   UNL d   1      53.308  31.475  53.048  0.00  0.00     0.058 C 
BRANCH  17  18
ATOM     18  C   UNL d   1      52.926  30.791  53.300  0.00  0.00     0.105 C 
BRANCH  18  19
ATOM     19  N   UNL d   1      53.366  30.153  53.575  0.00  0.00    -0.206 NA
ATOM     20  C   UNL d   1      52.993  29.455  53.787  0.00  0.00     0.280 C 
ATOM     21  O   UNL d   1      52.172  29.394  53.723  0.00  0.00    -0.265 OA
ATOM     22  C   UNL d   1      53.433  28.814  54.063  0.00  0.00     0.068 C 
ENDBRANCH  18  19
ENDBRANCH  17  18
ENDBRANCH   2  17
TORSDOF 5
ENDMDL
MODEL 3
REMARK VINA RESULT:      -9.2      1.529      3.387
REMARK  5 active torsions:
REMARK  status: ('A' for Active; 'I' for Inactive)
REMARK    1  A    between atoms: C_6  and  N_1 
REMARK    2  A    between atoms: C_7  and  C_2 
REMARK    3  A    between atoms: C_12  and  C_6 
REMARK    4  A    between atoms: C_11  and  C_7 
REMARK       I    between atoms: C_8  and  N_10 
REMARK    5  A    between atoms: N_10  and  C_11 
ROOT
ATOM      1  N   UNL d   1      53.112  33.091  54.104  0.00  0.00    -0.289 N 
ATOM      2  C   UNL d   1      53.381  32.431  53.673  0.00  0.00     0.149 A 
ATOM      3  N   UNL d   1      54.199  32.375  53.777  0.00  0.00    -0.227 NA
ATOM      4  C   UNL d   1      53.766  33.441  54.473  0.00  0.00     0.083 A 
ATOM      5  C   UNL d   1      54.441  32.997  54.270  0.00  0.00     0.099 A 
ATOM      6  C   UNL d   1      53.842  34.103  54.966  0.00  0.00     0.019 A 
ATOM      7  C   UNL d   1      55.185  33.218  54.563  0.00  0.00     0.021 A 
ATOM      8  C   UNL d   1      54.580  34.320  55.254  0.00  0.00     0.002 A 
ATOM      9  C   UNL d   1      55.248  33.880  55.053  0.00  0.00     0.002 A 
ENDROOT
BRANCH   1  10
ATOM     10  C   UNL d   1      52.330  33.355  54.156  0.00  0.00     0.082 C 
BRANCH  10  11
ATOM     11  C   UNL d   1      51.963  33.694  53.502  0.00  0.00     0.018 A 
ATOM     12  C   UNL d   1      51.255  33.380  53.225  0.00  0.00     0.002 A 
ATOM     13  C   UNL d   1      50.879  33.718  52.565  0.00  0.00     0.000 A 
ATOM     14  C   UNL d   1      51.226  34.364  52.202  0.00  0.00     0.000 A 
ATOM     15  C   UNL d   1      51.938  34.679  52.482  0.00  0.00     0.000 A 
ATOM     16  C   UNL d   1      52.305  34.340  53.135  0.00  0.00     0.002 A 
ENDBRANCH  10  11
ENDBRANCH   1  10
BRANCH   2  17
ATOM     17  C   UNL d   1      53.309  31.773  53.184  0.00  0.00     0.058 C 
BRANCH  17  18
ATOM     18  C   UNL d   1      53.265  31.021  53.513  0.00  0.00     0.105 C 
BRANCH  18  19
ATOM     19  N   UNL d   1      52.951  30.400  53.075  0.00  0.00    -0.206 NA
ATOM     20  C   UNL d   1      52.858  29.660  53.416  0.00  0.00     0.280 C 
ATOM     21  O   UNL d   1      53.082  29.540  54.201  0.00  0.00    -0.265 OA
ATOM     22  C   UNL d   1      52.543  29.036  52.978  0.00  0.00     0.068 C 
ENDBRANCH  18  19
ENDBRANCH  17  18
ENDBRANCH   2  17
TORSDOF 5
ENDMDL
MODEL 4
REMARK VINA RESULT:      -9.0      0.541      2.685
REMARK  5 active torsions:
REMARK  status: ('A' for Active; 'I' for Inactive)
REMARK    1  A    between atoms: C_6  and  N_1 
REMARK    2  A    between atoms: C_7  and  C_2 
REMARK    3  A    between atoms: C_12  and  C_6 
REMARK    4  A    between atoms: C_11  and  C_7 
REMARK       I    between atoms: C_8  and  N_10 
REMARK    5  A    between atoms: N_10  and  C_11 
ROOT
ATOM      1  N   UNL d   1      53.066  32.501  53.294  0.00  0.00    -0.289 N 
ATOM      2  C   UNL d   1      52.251  32.656  53.372  0.00  0.00     0.149 A 
ATOM      3  N   UNL d   1      51.850  31.933  53.353  0.00  0.00    -0.227 NA
ATOM      4  C   UNL d   1      53.165  31.681  53.226  0.00  0.00     0.083 A 
ATOM      5  C   UNL d   1      52.411  31.329  53.263  0.00  0.00     0.099 A 
ATOM      6  C   UNL d   1      53.838  31.206  53.135  0.00  0.00     0.019 A 
ATOM      7  C   UNL d   1      52.338  30.505  53.209  0.00  0.00     0.021 A 
ATOM      8  C   UNL d   1      53.762  30.390  53.082  0.00  0.00     0.002 A 
ATOM      9  C   UNL d   1      53.015  30.041  53.119  0.00  0.00     0.002 A 
ENDROOT
BRANCH   1  10
ATOM     10  C   UNL d   1      53.671  33.063  53.284  0.00  0.00     0.082 C 
BRANCH  10  11
ATOM     11  C   UNL d   1      53.993  33.337  53.991  0.00  0.00     0.018 A 
ATOM     12  C   UNL d   1      54.740  33.082  54.223  0.00  0.00     0.002 A 
ATOM     13  C   UNL d   1      55.070  33.354  54.935  0.00  0.00     0.000 A 
ATOM     14  C   UNL d   1      54.639  33.877  55.395  0.00  0.00     0.000 A 
ATOM     15  C   UNL d   1      53.889  34.133  55.161  0.00  0.00     0.000 A 
ATOM     16  C   UNL d   1      53.567  33.860  54.455  0.00  0.00     0.002 A 
ENDBRANCH  10  11
ENDBRANCH   1  10
BRANCH   2  17
ATOM     17  C   UNL d   1      51.581  33.125  53.462  0.00  0.00     0.058 C 
BRANCH  17  18
ATOM     18  C   UNL d   1      51.230  33.469  52.802  0.00  0.00     0.105 C 
BRANCH  18  19
ATOM     19  N   UNL d   1      50.553  33.928  52.890  0.00  0.00    -0.206 NA
ATOM     20  C   UNL d   1      50.241  34.331  52.249  0.00  0.00     0.280 C 
ATOM     21  O   UNL d   1      50.608  34.274  51.512  0.00  0.00    -0.265 OA
ATOM     22  C   UNL d   1      49.562  34.791  52.336  0.00  0.00     0.068 C 
ENDBRANCH  18  19
ENDBRANCH  17  18
ENDBRANCH   2  17
TORSDOF 5
ENDMDL
MODEL 5
REMARK VINA RESULT:      -8.0      1.633      3.858
REMARK  5 active torsions:
REMARK  status: ('A' for Active; 'I' for Inactive)
REMARK    1  A    between atoms: C_6  and  N_1 
REMARK    2  A    between atoms: C_7  and  C_2 
REMARK    3  A    between atoms: C_12  and  C_6 
REMARK    4  A    between atoms: C_11  and  C_7 
REMARK       I    between atoms: C_8  and  N_10 
REMARK    5  A    between atoms: N_10  and  C_11 
ROOT
ATOM      1  N   UNL d   1      53.033  32.026  53.277  0.00  0.00    -0.289 N 
ATOM      2  C   UNL d   1      53.374  32.204  54.016  0.00  0.00     0.149 A 
ATOM      3  N   UNL d   1      53.537  31.489  54.400  0.00  0.00    -0.227 NA
ATOM      4  C   UNL d   1      52.985  31.202  53.208  0.00  0.00     0.083 A 
ATOM      5  C   UNL d   1      53.298  30.869  53.904  0.00  0.00     0.099 A 
ATOM      6  C   UNL d   1      52.701  30.707  52.607  0.00  0.00     0.019 A 
ATOM      7  C   UNL d   1      53.323  30.045  53.993  0.00  0.00     0.021 A 
ATOM      8  C   UNL d   1      52.727  29.891  52.697  0.00  0.00     0.002 A 
ATOM      9  C   UNL d   1      53.036  29.561  53.387  0.00  0.00     0.002 A 
ENDROOT
BRANCH   1  10
ATOM     10  C   UNL d   1      52.784  32.573  52.710  0.00  0.00     0.082 C 
BRANCH  10  11
ATOM     11  C   UNL d   1      52.137  33.060  52.861  0.00  0.00     0.018 A 
ATOM     12  C   UNL d   1      52.227  33.877  52.827  0.00  0.00     0.002 A 
ATOM     13  C   UNL d   1      51.578  34.374  52.978  0.00  0.00     0.000 A 
ATOM     14  C   UNL d   1      50.855  34.035  53.159  0.00  0.00     0.000 A 
ATOM     15  C   UNL d   1      50.766  33.213  53.192  0.00  0.00     0.000 A 
ATOM     16  C   UNL d   1      51.412  32.727  53.042  0.00  0.00     0.002 A 
ENDBRANCH  10  11
ENDBRANCH   1  10
BRANCH   2  17
ATOM     17  C   UNL d   1      53.658  32.691  54.614  0.00  0.00     0.058 C 
BRANCH  17  18
ATOM     18  C   UNL d   1      54.447  32.924  54.614  0.00  0.00     0.105 C 
BRANCH  18  19
ATOM     19  N   UNL d   1      54.716  33.462  55.176  0.00  0.00    -0.206 NA
ATOM     20  C   UNL d   1      55.410  33.878  55.050  0.00  0.00     0.280 C 
ATOM     21  O   UNL d   1      55.840  33.756  54.356  0.00  0.00    -0.265 OA
ATOM     22  C   UNL d   1      55.681  34.418  55.612  0.00  0.00     0.068 C 
ENDBRANCH  18  19
ENDBRANCH  17  18
ENDBRANCH   2  17
TORSDOF 5
ENDMDL
MODEL 6
REMARK VINA RESULT:      -7.3      1.399      3.228
REMARK  5 active torsions:
REMARK  status: ('A' for Active; 'I' for Inactive)
REMARK    1  A    between atoms: C_6  and  N_1 
REMARK    2  A    between atoms: C_7  and  C_2 
REMARK    3  A    between atoms: C_12  and  C_6 
REMARK    4  A    between atoms: C_11  and  C_7 
REMARK       I    between atoms: C_8  and  N_10 
REMARK    5  A    between atoms: N_10  and  C_11 
ROOT
ATOM      1  N   UNL d   1      52.621  32.926  53.147  0.00  0.00    -0.289 N 
ATOM      2  C   UNL d   1      52.851  33.220  53.892  0.00  0.00     0.149 A 
ATOM      3  N   UNL d   1      52.322  33.819  54.105  0.00  0.00    -0.227 NA
ATOM      4  C   UNL d   1      51.949  33.345  52.903  0.00  0.00     0.083 A 
ATOM      5  C   UNL d   1      51.764  33.899  53.497  0.00  0.00     0.099 A 
ATOM      6  C   UNL d   1      51.480  33.300  52.221  0.00  0.00     0.019 A 
ATOM      7  C   UNL d   1      51.111  34.402  53.403  0.00  0.00     0.021 A 
ATOM      8  C   UNL d   1      50.834  33.799  52.131  0.00  0.00     0.002 A 
ATOM      9  C   UNL d   1      50.650  34.348  52.720  0.00  0.00     0.002 A 
ENDROOT
BRANCH   1  10
ATOM     10  C   UNL d   1      52.994  32.323  52.724  0.00  0.00     0.082 C 
BRANCH  10  11
ATOM     11  C   UNL d   1      52.949  31.543  52.987  0.00  0.00     0.018 A 
ATOM     12  C   UNL d   1      53.625  31.173  53.275  0.00  0.00     0.002 A 
ATOM     13  C   UNL d   1      53.586  30.387  53.541  0.00  0.00     0.000 A 
ATOM     14  C   UNL d   1      52.868  29.994  53.511  0.00  0.00     0.000 A 
ATOM     15  C   UNL d   1      52.190  30.368  53.221  0.00  0.00     0.000 A 
ATOM     16  C   UNL d   1      52.234  31.147  52.958  0.00  0.00     0.002 A 
ENDBRANCH  10  11
ENDBRANCH   1  10
BRANCH   2  17
ATOM     17  C   UNL d   1      53.315  33.267  54.570  0.00  0.00     0.058 C 
BRANCH  17  18
ATOM     18  C   UNL d   1      53.995  33.730  54.570  0.00  0.00     0.105 C 
BRANCH  18  19
ATOM     19  N   UNL d   1      54.419  33.836  55.267  0.00  0.00    -0.206 NA
ATOM     20  C   UNL d   1      55.236  33.891  55.248  0.00  0.00     0.280 C 
ATOM     21  O   UNL d   1      55.633  33.841  54.526  0.00  0.00    -0.265 OA
ATOM     22  C   UNL d   1      55.663  33.997  55.946  0.00  0.00     0.068 C 
ENDBRANCH  18  19
ENDBRANCH  17  18
ENDBRANCH   2  17
TORSDOF 5
ENDMDL
