MODEL 1
REMARK VINA RESULT:      -7.6      0.000      0.000
REMARK  6 active torsions:
REMARK  status: ('A' for Active; 'I' for Inactive)
REMARK       I    between atoms: C_6  and  N_1 
REMARK    1  A    between atoms: C_7  and  C_3 
REMARK    2  A    between atoms: C_14  and  C_4 
REMARK    3  A    between atoms: C_20  and  C_6 
REMARK    4  A    between atoms: C_11  and  C_22 
REMARK    5  A    between atoms: C_21  and  C_20 
REMARK    6  A    between atoms: C_22  and  C_21 
ROOT
ATOM      1  N   UNL d   1     -46.594  12.644  23.219  0.00  0.00    -0.195 N 
ATOM      2  N   UNL d   1     -45.805  12.371  23.318  0.00  0.00    -0.163 NA
ATOM      3  C   UNL d   1     -47.075  11.993  23.145  0.00  0.00     0.088 A 
ATOM      4  C   UNL d   1     -45.826  11.544  23.300  0.00  0.00     0.103 A 
ATOM      5  C   UNL d   1     -46.628  11.322  23.191  0.00  0.00     0.040 A 
ATOM      6  C   UNL d   1     -46.817  13.478  23.205  0.00  0.00     0.280 C 
ATOM      7  O   UNL d   1     -46.229  14.065  23.293  0.00  0.00    -0.265 OA
ENDROOT
BRANCH   3   8
ATOM      8  C   UNL d   1     -47.895  12.016  23.038  0.00  0.00     0.019 A 
ATOM      9  C   UNL d   1     -48.217  12.030  22.303  0.00  0.00     0.022 A 
ATOM     10  C   UNL d   1     -49.037  12.053  22.197  0.00  0.00     0.099 A 
ATOM     11  N   UNL d   1     -49.329  12.066  21.461  0.00  0.00    -0.241 NA
ATOM     12  C   UNL d   1     -49.539  12.062  22.854  0.00  0.00     0.099 A 
ATOM     13  C   UNL d   1     -50.178  12.090  21.350  0.00  0.00     0.120 A 
ATOM     14  C   UNL d   1     -50.678  12.099  21.983  0.00  0.00     0.120 A 
ATOM     15  N   UNL d   1     -50.330  12.084  22.751  0.00  0.00    -0.241 NA
ATOM     16  C   UNL d   1     -49.189  12.047  23.595  0.00  0.00     0.021 A 
ATOM     17  C   UNL d   1     -48.398  12.024  23.698  0.00  0.00     0.003 A 
ENDBRANCH   3   8
BRANCH   6  18
ATOM     18  C   UNL d   1     -47.604  13.663  23.106  0.00  0.00     0.063 C 
BRANCH  18  19
ATOM     19  C   UNL d   1     -47.854  14.449  23.227  0.00  0.00     0.011 C 
BRANCH  19  20
ATOM     20  C   UNL d   1     -48.024  14.903  22.564  0.00  0.00     0.070 C 
BRANCH  20  21
ATOM     21  C   UNL d   1     -48.665  15.415  22.544  0.00  0.00     0.211 C 
ATOM     22  O   UNL d   1     -49.060  15.539  21.824  0.00  0.00    -0.644 OA
ATOM     23  O   UNL d   1     -48.924  15.806  23.219  0.00  0.00    -0.644 OA
ENDBRANCH  20  21
ENDBRANCH  19  20
ENDBRANCH  18  19
ENDBRANCH   6  18
BRANCH   4  24
ATOM     24  C   UNL d   1     -45.157  11.030  23.378  0.00  0.00     0.019 A 
ATOM     25  C   UNL d   1     -44.421  11.303  23.213  0.00  0.00     0.002 A 
ATOM     26  C   UNL d   1     -43.760  10.813  23.284  0.00  0.00     0.000 A 
ATOM     27  C   UNL d   1     -43.863  10.040  23.527  0.00  0.00     0.000 A 
ATOM     28  C   UNL d   1     -44.622   9.762  23.697  0.00  0.00     0.000 A 
ATOM     29  C   UNL d   1     -45.283  10.251  23.625  0.00  0.00     0.002 A 
ENDBRANCH   4  24
TORSDOF 6
ENDMDL
MODEL 2
REMARK VINA RESULT:      -6.6      2.037      2.933
REMARK  6 active torsions:
REMARK  status: ('A' for Active; 'I' for Inactive)
REMARK       I    between atoms: C_6  and  N_1 
REMARK    1  A    between atoms: C_7  and  C_3 
REMARK    2  A    between atoms: C_14  and  C_4 
REMARK    3  A    between atoms: C_20  and  C_6 
REMARK    4  A    between atoms: C_11  and  C_22 
REMARK    5  A    between atoms: C_21  and  C_20 
REMARK    6  A    between atoms: C_22  and  C_21 
ROOT
ATOM      1  N   UNL d   1     -47.126  12.542  22.820  0.00  0.00    -0.195 N 
ATOM      2  N   UNL d   1     -46.335  12.263  22.769  0.00  0.00    -0.163 NA
ATOM      3  C   UNL d   1     -47.162  13.259  22.438  0.00  0.00     0.088 A 
ATOM      4  C   UNL d   1     -45.899  12.828  22.350  0.00  0.00     0.103 A 
ATOM      5  C   UNL d   1     -46.431  13.446  22.149  0.00  0.00     0.040 A 
ATOM      6  C   UNL d   1     -47.763  12.116  23.216  0.00  0.00     0.280 C 
ATOM      7  O   UNL d   1     -47.606  11.378  23.578  0.00  0.00    -0.265 OA
ENDROOT
BRANCH   3   8
ATOM      8  C   UNL d   1     -47.841  13.724  22.360  0.00  0.00     0.019 A 
ATOM      9  C   UNL d   1     -48.036  14.271  22.913  0.00  0.00     0.022 A 
ATOM     10  C   UNL d   1     -48.716  14.736  22.834  0.00  0.00     0.099 A 
ATOM     11  N   UNL d   1     -48.885  15.268  23.395  0.00  0.00    -0.241 NA
ATOM     12  C   UNL d   1     -49.208  14.640  22.176  0.00  0.00     0.099 A 
ATOM     13  C   UNL d   1     -49.589  15.749  23.314  0.00  0.00     0.120 A 
ATOM     14  C   UNL d   1     -50.076  15.665  22.677  0.00  0.00     0.120 A 
ATOM     15  N   UNL d   1     -49.864  15.088  22.100  0.00  0.00    -0.241 NA
ATOM     16  C   UNL d   1     -48.990  14.075  21.624  0.00  0.00     0.021 A 
ATOM     17  C   UNL d   1     -48.335  13.627  21.700  0.00  0.00     0.003 A 
ENDBRANCH   3   8
BRANCH   6  18
ATOM     18  C   UNL d   1     -48.505  12.452  23.223  0.00  0.00     0.063 C 
BRANCH  18  19
ATOM     19  C   UNL d   1     -49.107  12.096  23.676  0.00  0.00     0.011 C 
BRANCH  19  20
ATOM     20  C   UNL d   1     -49.657  11.630  23.282  0.00  0.00     0.070 C 
BRANCH  20  21
ATOM     21  C   UNL d   1     -50.425  11.540  23.558  0.00  0.00     0.211 C 
ATOM     22  O   UNL d   1     -50.716  10.776  23.698  0.00  0.00    -0.644 OA
ATOM     23  O   UNL d   1     -50.909  12.189  23.698  0.00  0.00    -0.644 OA
ENDBRANCH  20  21
ENDBRANCH  19  20
ENDBRANCH  18  19
ENDBRANCH   6  18
BRANCH   4  24
ATOM     24  C   UNL d   1     -45.075  12.781  22.164  0.00  0.00     0.019 A 
ATOM     25  C   UNL d   1     -44.716  13.386  21.779  0.00  0.00     0.002 A 
ATOM     26  C   UNL d   1     -43.912  13.353  21.592  0.00  0.00     0.000 A 
ATOM     27  C   UNL d   1     -43.481  12.692  21.803  0.00  0.00     0.000 A 
ATOM     28  C   UNL d   1     -43.854  12.071  22.199  0.00  0.00     0.000 A 
ATOM     29  C   UNL d   1     -44.657  12.103  22.387  0.00  0.00     0.002 A 
ENDBRANCH   4  24
TORSDOF 6
ENDMDL
MODEL 3
REMARK VINA RESULT:      -5.5      7.596      9.850
REMARK  6 active torsions:
REMARK  status: ('A' for Active; 'I' for Inactive)
REMARK       I    between atoms: C_6  and  N_1 
REMARK    1  A    between atoms: C_7  and  C_3 
REMARK    2  A    between atoms: C_14  and  C_4 
REMARK    3  A    between atoms: C_20  and  C_6 
REMARK    4  A    between atoms: C_11  and  C_22 
REMARK    5  A    between atoms: C_21  and  C_20 
REMARK    6  A    between atoms: C_22  and  C_21 
ROOT
ATOM      1  N   UNL d   1     -39.786  14.327  18.433  0.00  0.00    -0.195 N 
ATOM      2  N   UNL d   1     -39.711  14.258  17.598  0.00  0.00    -0.163 NA
ATOM      3  C   UNL d   1     -39.051  14.501  18.734  0.00  0.00     0.088 A 
ATOM      4  C   UNL d   1     -38.916  14.394  17.409  0.00  0.00     0.103 A 
ATOM      5  C   UNL d   1     -38.516  14.544  18.131  0.00  0.00     0.040 A 
ATOM      6  C   UNL d   1     -40.529  14.226  18.860  0.00  0.00     0.280 C 
ATOM      7  O   UNL d   1     -41.228  14.048  18.438  0.00  0.00    -0.265 OA
ENDROOT
BRANCH   3   8
ATOM      8  C   UNL d   1     -38.880  14.614  19.535  0.00  0.00     0.019 A 
ATOM      9  C   UNL d   1     -38.583  14.019  19.984  0.00  0.00     0.022 A 
ATOM     10  C   UNL d   1     -38.412  14.133  20.786  0.00  0.00     0.099 A 
ATOM     11  N   UNL d   1     -38.121  13.528  21.206  0.00  0.00    -0.241 NA
ATOM     12  C   UNL d   1     -38.546  14.870  21.136  0.00  0.00     0.099 A 
ATOM     13  C   UNL d   1     -37.943  13.646  22.036  0.00  0.00     0.120 A 
ATOM     14  C   UNL d   1     -38.069  14.360  22.389  0.00  0.00     0.120 A 
ATOM     15  N   UNL d   1     -38.381  14.980  21.909  0.00  0.00    -0.241 NA
ATOM     16  C   UNL d   1     -38.849  15.463  20.660  0.00  0.00     0.021 A 
ATOM     17  C   UNL d   1     -39.014  15.354  19.887  0.00  0.00     0.003 A 
ENDBRANCH   3   8
BRANCH   6  18
ATOM     18  C   UNL d   1     -40.520  14.309  19.670  0.00  0.00     0.063 C 
BRANCH  18  19
ATOM     19  C   UNL d   1     -41.243  14.383  20.077  0.00  0.00     0.011 C 
BRANCH  19  20
ATOM     20  C   UNL d   1     -41.530  13.723  20.472  0.00  0.00     0.070 C 
BRANCH  20  21
ATOM     21  C   UNL d   1     -42.091  13.785  21.069  0.00  0.00     0.211 C 
ATOM     22  O   UNL d   1     -42.519  13.110  21.292  0.00  0.00    -0.644 OA
ATOM     23  O   UNL d   1     -42.237  14.500  21.447  0.00  0.00    -0.644 OA
ENDBRANCH  20  21
ENDBRANCH  19  20
ENDBRANCH  18  19
ENDBRANCH   6  18
BRANCH   4  24
ATOM     24  C   UNL d   1     -38.584  14.380  16.630  0.00  0.00     0.019 A 
ATOM     25  C   UNL d   1     -38.309  13.691  16.325  0.00  0.00     0.002 A 
ATOM     26  C   UNL d   1     -37.982  13.663  15.567  0.00  0.00     0.000 A 
ATOM     27  C   UNL d   1     -37.940  14.350  15.126  0.00  0.00     0.000 A 
ATOM     28  C   UNL d   1     -38.223  15.058  15.444  0.00  0.00     0.000 A 
ATOM     29  C   UNL d   1     -38.550  15.086  16.201  0.00  0.00     0.002 A 
ENDBRANCH   4  24
TORSDOF 6
ENDMDL
MODEL 4
REMARK VINA RESULT:      -5.2      1.630      2.524
REMARK  6 active torsions:
REMARK  status: ('A' for Active; 'I' for Inactive)
REMARK       I    between atoms: C_6  and  N_1 
REMARK    1  A    between atoms: C_7  and  C_3 
REMARK    2  A    between atoms: C_14  and  C_4 
REMARK    3  A    between atoms: C_20  and  C_6 
REMARK    4  A    between atoms: C_11  and  C_22 
REMARK    5  A    between atoms: C_21  and  C_20 
REMARK    6  A    between atoms: C_22  and  C_21 
ROOT
ATOM      1  N   UNL d   1     -47.082  11.495  23.397  0.00  0.00    -0.195 N 
ATOM      2  N   UNL d   1     -46.500  10.895  23.487  0.00  0.00    -0.163 NA
ATOM      3  C   UNL d   1     -46.698  12.186  23.207  0.00  0.00     0.088 A 
ATOM      4  C   UNL d   1     -45.762  11.243  23.348  0.00  0.00     0.103 A 
ATOM      5  C   UNL d   1     -45.903  12.052  23.174  0.00  0.00     0.040 A 
ATOM      6  C   UNL d   1     -47.929  11.363  23.496  0.00  0.00     0.280 C 
ATOM      7  O   UNL d   1     -48.209  10.601  23.694  0.00  0.00    -0.265 OA
ENDROOT
BRANCH   3   8
ATOM      8  C   UNL d   1     -47.068  12.914  23.071  0.00  0.00     0.019 A 
ATOM      9  C   UNL d   1     -47.348  13.106  22.344  0.00  0.00     0.022 A 
ATOM     10  C   UNL d   1     -47.717  13.834  22.207  0.00  0.00     0.099 A 
ATOM     11  N   UNL d   1     -47.985  13.998  21.481  0.00  0.00    -0.241 NA
ATOM     12  C   UNL d   1     -47.803  14.376  22.826  0.00  0.00     0.099 A 
ATOM     13  C   UNL d   1     -48.367  14.752  21.339  0.00  0.00     0.120 A 
ATOM     14  C   UNL d   1     -48.457  15.289  21.934  0.00  0.00     0.120 A 
ATOM     15  N   UNL d   1     -48.159  15.078  22.694  0.00  0.00    -0.241 NA
ATOM     16  C   UNL d   1     -47.509  14.159  23.559  0.00  0.00     0.021 A 
ATOM     17  C   UNL d   1     -47.153  13.458  23.691  0.00  0.00     0.003 A 
ENDBRANCH   3   8
BRANCH   6  18
ATOM     18  C   UNL d   1     -48.431  11.996  23.392  0.00  0.00     0.063 C 
BRANCH  18  19
ATOM     19  C   UNL d   1     -49.205  11.954  23.698  0.00  0.00     0.011 C 
BRANCH  19  20
ATOM     20  C   UNL d   1     -49.786  11.616  23.225  0.00  0.00     0.070 C 
BRANCH  20  21
ATOM     21  C   UNL d   1     -50.489  12.005  23.059  0.00  0.00     0.211 C 
ATOM     22  O   UNL d   1     -51.053  12.092  23.661  0.00  0.00    -0.644 OA
ATOM     23  O   UNL d   1     -50.644  12.309  22.312  0.00  0.00    -0.644 OA
ENDBRANCH  20  21
ENDBRANCH  19  20
ENDBRANCH  18  19
ENDBRANCH   6  18
BRANCH   4  24
ATOM     24  C   UNL d   1     -45.014  10.847  23.377  0.00  0.00     0.019 A 
ATOM     25  C   UNL d   1     -44.982  10.064  23.550  0.00  0.00     0.002 A 
ATOM     26  C   UNL d   1     -44.260   9.666  23.583  0.00  0.00     0.000 A 
ATOM     27  C   UNL d   1     -43.570  10.079  23.436  0.00  0.00     0.000 A 
ATOM     28  C   UNL d   1     -43.607  10.885  23.259  0.00  0.00     0.000 A 
ATOM     29  C   UNL d   1     -44.328  11.284  23.226  0.00  0.00     0.002 A 
ENDBRANCH   4  24
TORSDOF 6
ENDMDL
