MODEL 1
REMARK VINA RESULT:      -3.3      0.000      0.000
REMARK  2 active torsions:
REMARK  status: ('A' for Active; 'I' for Inactive)
REMARK       I    between atoms: N_2  and  C_1 
REMARK    1  A    between atoms: C_3  and  C_1 
REMARK    2  A    between atoms: C_4  and  N_2 
ROOT
ATOM      1  C   UNL d   1      32.881  19.411 -22.572  0.00  0.00     0.059 A 
ATOM      2  C   UNL d   1      32.508  19.274 -23.294  0.00  0.00     0.025 A 
ATOM      3  C   UNL d   1      32.495  18.506 -23.615  0.00  0.00     0.099 A 
ATOM      4  N   UNL d   1      32.121  18.367 -24.339  0.00  0.00    -0.241 NA
ATOM      5  N   UNL d   1      32.846  17.122 -23.516  0.00  0.00    -0.241 NA
ATOM      6  C   UNL d   1      32.853  17.883 -23.210  0.00  0.00     0.099 A 
ATOM      7  C   UNL d   1      33.241  18.785 -22.165  0.00  0.00     0.006 A 
ATOM      8  C   UNL d   1      33.227  18.025 -22.481  0.00  0.00     0.021 A 
ATOM      9  C   UNL d   1      32.112  17.600 -24.652  0.00  0.00     0.120 A 
ATOM     10  C   UNL d   1      32.471  16.980 -24.243  0.00  0.00     0.120 A 
ENDROOT
BRANCH   1  11
ATOM     11  C   UNL d   1      32.894  20.171 -22.256  0.00  0.00     0.281 C 
ATOM     12  N   UNL d   1      32.561  20.317 -21.516  0.00  0.00    -0.189 NA
ATOM     13  O   UNL d   1      33.241  20.786 -22.681  0.00  0.00    -0.265 OA
BRANCH  12  14
ATOM     14  C   UNL d   1      32.574  21.078 -21.201  0.00  0.00     0.166 A 
ATOM     15  N   UNL d   1      31.965  21.605 -21.380  0.00  0.00    -0.225 NA
ATOM     16  C   UNL d   1      31.978  22.370 -21.064  0.00  0.00     0.107 A 
ATOM     17  C   UNL d   1      32.598  22.601 -20.572  0.00  0.00     0.054 A 
ATOM     18  C   UNL d   1      33.206  22.069 -20.395  0.00  0.00     0.011 A 
ATOM     19 BR   UNL d   1      32.613  23.363 -20.257  0.00  0.00    -0.048 Br
ATOM     20  C   UNL d   1      33.192  21.309 -20.711  0.00  0.00     0.039 A 
ENDBRANCH  12  14
ENDBRANCH   1  11
TORSDOF 2
ENDMDL
MODEL 2
REMARK VINA RESULT:      -3.0      1.952      4.568
REMARK  2 active torsions:
REMARK  status: ('A' for Active; 'I' for Inactive)
REMARK       I    between atoms: N_2  and  C_1 
REMARK    1  A    between atoms: C_3  and  C_1 
REMARK    2  A    between atoms: C_4  and  N_2 
ROOT
ATOM      1  C   UNL d   1      32.902  20.334 -21.834  0.00  0.00     0.059 A 
ATOM      2  C   UNL d   1      32.557  21.073 -21.954  0.00  0.00     0.025 A 
ATOM      3  C   UNL d   1      32.550  21.633 -21.337  0.00  0.00     0.099 A 
ATOM      4  N   UNL d   1      32.205  22.374 -21.457  0.00  0.00    -0.241 NA
ATOM      5  N   UNL d   1      32.886  21.991 -19.993  0.00  0.00    -0.241 NA
ATOM      6  C   UNL d   1      32.887  21.448 -20.607  0.00  0.00     0.099 A 
ATOM      7  C   UNL d   1      33.241  20.148 -21.100  0.00  0.00     0.006 A 
ATOM      8  C   UNL d   1      33.234  20.702 -20.490  0.00  0.00     0.021 A 
ATOM      9  C   UNL d   1      32.201  22.926 -20.839  0.00  0.00     0.120 A 
ATOM     10  C   UNL d   1      32.539  22.736 -20.111  0.00  0.00     0.120 A 
ENDROOT
BRANCH   1  11
ATOM     11  C   UNL d   1      32.909  19.782 -22.444  0.00  0.00     0.281 C 
ATOM     12  N   UNL d   1      32.599  19.027 -22.322  0.00  0.00    -0.189 NA
ATOM     13  O   UNL d   1      33.226  19.985 -23.176  0.00  0.00    -0.265 OA
BRANCH  12  14
ATOM     14  C   UNL d   1      32.607  18.475 -22.933  0.00  0.00     0.166 A 
ATOM     15  N   UNL d   1      31.983  18.456 -23.473  0.00  0.00    -0.225 NA
ATOM     16  C   UNL d   1      31.989  17.901 -24.087  0.00  0.00     0.107 A 
ATOM     17  C   UNL d   1      32.618  17.372 -24.157  0.00  0.00     0.054 A 
ATOM     18  C   UNL d   1      33.241  17.396 -23.613  0.00  0.00     0.011 A 
ATOM     19 BR   UNL d   1      32.626  16.819 -24.768  0.00  0.00    -0.048 Br
ATOM     20  C   UNL d   1      33.232  17.948 -23.003  0.00  0.00     0.039 A 
ENDBRANCH  12  14
ENDBRANCH   1  11
TORSDOF 2
ENDMDL
MODEL 3
REMARK VINA RESULT:      -2.8      2.219      4.776
REMARK  2 active torsions:
REMARK  status: ('A' for Active; 'I' for Inactive)
REMARK       I    between atoms: N_2  and  C_1 
REMARK    1  A    between atoms: C_3  and  C_1 
REMARK    2  A    between atoms: C_4  and  N_2 
ROOT
ATOM      1  C   UNL d   1      32.963  19.671 -22.616  0.00  0.00     0.059 A 
ATOM      2  C   UNL d   1      32.758  19.909 -21.854  0.00  0.00     0.025 A 
ATOM      3  C   UNL d   1      32.794  20.715 -21.648  0.00  0.00     0.099 A 
ATOM      4  N   UNL d   1      32.589  20.955 -20.884  0.00  0.00    -0.241 NA
ATOM      5  N   UNL d   1      33.075  22.070 -22.012  0.00  0.00    -0.241 NA
ATOM      6  C   UNL d   1      33.035  21.274 -22.204  0.00  0.00     0.099 A 
ATOM      7  C   UNL d   1      33.205  20.233 -23.176  0.00  0.00     0.006 A 
ATOM      8  C   UNL d   1      33.241  21.030 -22.972  0.00  0.00     0.021 A 
ATOM      9  C   UNL d   1      32.628  21.758 -20.685  0.00  0.00     0.120 A 
ATOM     10  C   UNL d   1      32.869  22.313 -21.245  0.00  0.00     0.120 A 
ENDROOT
BRANCH   1  11
ATOM     11  C   UNL d   1      32.926  18.875 -22.820  0.00  0.00     0.281 C 
ATOM     12  N   UNL d   1      32.577  18.645 -23.531  0.00  0.00    -0.189 NA
ATOM     13  O   UNL d   1      33.240  18.307 -22.311  0.00  0.00    -0.265 OA
BRANCH  12  14
ATOM     14  C   UNL d   1      32.541  17.847 -23.733  0.00  0.00     0.166 A 
ATOM     15  N   UNL d   1      33.234  17.445 -23.931  0.00  0.00    -0.225 NA
ATOM     16  C   UNL d   1      33.199  16.644 -24.135  0.00  0.00     0.107 A 
ATOM     17  C   UNL d   1      32.473  16.251 -24.139  0.00  0.00     0.054 A 
ATOM     18  C   UNL d   1      31.782  16.659 -23.939  0.00  0.00     0.011 A 
ATOM     19 BR   UNL d   1      32.437  15.453 -24.341  0.00  0.00    -0.048 Br
ATOM     20  C   UNL d   1      31.819  17.456 -23.737  0.00  0.00     0.039 A 
ENDBRANCH  12  14
ENDBRANCH   1  11
TORSDOF 2
ENDMDL
MODEL 4
REMARK VINA RESULT:      -2.3      0.868      1.133
REMARK  2 active torsions:
REMARK  status: ('A' for Active; 'I' for Inactive)
REMARK       I    between atoms: N_2  and  C_1 
REMARK    1  A    between atoms: C_3  and  C_1 
REMARK    2  A    between atoms: C_4  and  N_2 
ROOT
ATOM      1  C   UNL d   1      32.691  18.594 -23.176  0.00  0.00     0.059 A 
ATOM      2  C   UNL d   1      32.000  18.462 -23.605  0.00  0.00     0.025 A 
ATOM      3  C   UNL d   1      31.850  17.709 -23.929  0.00  0.00     0.099 A 
ATOM      4  N   UNL d   1      31.157  17.576 -24.359  0.00  0.00    -0.241 NA
ATOM      5  N   UNL d   1      32.254  16.352 -24.135  0.00  0.00    -0.241 NA
ATOM      6  C   UNL d   1      32.392  17.097 -23.820  0.00  0.00     0.099 A 
ATOM      7  C   UNL d   1      33.236  17.978 -23.067  0.00  0.00     0.006 A 
ATOM      8  C   UNL d   1      33.088  17.234 -23.387  0.00  0.00     0.021 A 
ATOM      9  C   UNL d   1      31.014  16.825 -24.678  0.00  0.00     0.120 A 
ATOM     10  C   UNL d   1      31.559  16.216 -24.567  0.00  0.00     0.120 A 
ENDROOT
BRANCH   1  11
ATOM     11  C   UNL d   1      32.839  19.338 -22.857  0.00  0.00     0.281 C 
ATOM     12  N   UNL d   1      32.586  19.517 -22.092  0.00  0.00    -0.189 NA
ATOM     13  O   UNL d   1      33.240  19.903 -23.303  0.00  0.00    -0.265 OA
BRANCH  12  14
ATOM     14  C   UNL d   1      32.734  20.262 -21.774  0.00  0.00     0.166 A 
ATOM     15  N   UNL d   1      32.544  20.937 -22.209  0.00  0.00    -0.225 NA
ATOM     16  C   UNL d   1      32.693  21.686 -21.890  0.00  0.00     0.107 A 
ATOM     17  C   UNL d   1      33.029  21.754 -21.139  0.00  0.00     0.054 A 
ATOM     18  C   UNL d   1      33.217  21.074 -20.707  0.00  0.00     0.011 A 
ATOM     19 BR   UNL d   1      33.178  22.499 -20.820  0.00  0.00    -0.048 Br
ATOM     20  C   UNL d   1      33.068  20.330 -21.027  0.00  0.00     0.039 A 
ENDBRANCH  12  14
ENDBRANCH   1  11
TORSDOF 2
ENDMDL
MODEL 5
REMARK VINA RESULT:      -2.2      1.935      4.884
REMARK  2 active torsions:
REMARK  status: ('A' for Active; 'I' for Inactive)
REMARK       I    between atoms: N_2  and  C_1 
REMARK    1  A    between atoms: C_3  and  C_1 
REMARK    2  A    between atoms: C_4  and  N_2 
ROOT
ATOM      1  C   UNL d   1      32.651  21.377 -21.230  0.00  0.00     0.059 A 
ATOM      2  C   UNL d   1      32.821  21.450 -20.427  0.00  0.00     0.025 A 
ATOM      3  C   UNL d   1      32.843  22.205 -20.075  0.00  0.00     0.099 A 
ATOM      4  N   UNL d   1      33.013  22.280 -19.269  0.00  0.00    -0.241 NA
ATOM      5  N   UNL d   1      32.712  23.625 -20.192  0.00  0.00    -0.241 NA
ATOM      6  C   UNL d   1      32.694  22.877 -20.529  0.00  0.00     0.099 A 
ATOM      7  C   UNL d   1      32.501  22.053 -21.686  0.00  0.00     0.006 A 
ATOM      8  C   UNL d   1      32.523  22.799 -21.338  0.00  0.00     0.021 A 
ATOM      9  C   UNL d   1      33.033  23.033 -18.926  0.00  0.00     0.120 A 
ATOM     10  C   UNL d   1      32.884  23.702 -19.384  0.00  0.00     0.120 A 
ENDROOT
BRANCH   1  11
ATOM     11  C   UNL d   1      32.630  20.631 -21.577  0.00  0.00     0.281 C 
ATOM     12  N   UNL d   1      33.103  20.466 -22.233  0.00  0.00    -0.189 NA
ATOM     13  O   UNL d   1      32.135  20.049 -21.268  0.00  0.00    -0.265 OA
BRANCH  12  14
ATOM     14  C   UNL d   1      33.081  19.720 -22.580  0.00  0.00     0.166 A 
ATOM     15  N   UNL d   1      32.936  19.650 -23.389  0.00  0.00    -0.225 NA
ATOM     16  C   UNL d   1      32.914  18.900 -23.738  0.00  0.00     0.107 A 
ATOM     17  C   UNL d   1      33.036  18.227 -23.277  0.00  0.00     0.054 A 
ATOM     18  C   UNL d   1      33.180  18.303 -22.466  0.00  0.00     0.011 A 
ATOM     19 BR   UNL d   1      33.014  17.480 -23.623  0.00  0.00    -0.048 Br
ATOM     20  C   UNL d   1      33.202  19.050 -22.120  0.00  0.00     0.039 A 
ENDBRANCH  12  14
ENDBRANCH   1  11
TORSDOF 2
ENDMDL
MODEL 6
REMARK VINA RESULT:      -0.6      3.876      5.419
REMARK  2 active torsions:
REMARK  status: ('A' for Active; 'I' for Inactive)
REMARK       I    between atoms: N_2  and  C_1 
REMARK    1  A    between atoms: C_3  and  C_1 
REMARK    2  A    between atoms: C_4  and  N_2 
ROOT
ATOM      1  C   UNL d   1      31.106  17.220 -24.172  0.00  0.00     0.059 A 
ATOM      2  C   UNL d   1      31.159  18.042 -24.196  0.00  0.00     0.025 A 
ATOM      3  C   UNL d   1      31.857  18.404 -24.472  0.00  0.00     0.099 A 
ATOM      4  N   UNL d   1      31.912  19.228 -24.497  0.00  0.00    -0.241 NA
ATOM      5  N   UNL d   1      33.184  18.287 -24.995  0.00  0.00    -0.241 NA
ATOM      6  C   UNL d   1      32.492  17.941 -24.721  0.00  0.00     0.099 A 
ATOM      7  C   UNL d   1      31.744  16.754 -24.422  0.00  0.00     0.006 A 
ATOM      8  C   UNL d   1      32.434  17.112 -24.695  0.00  0.00     0.021 A 
ATOM      9  C   UNL d   1      32.608  19.582 -24.773  0.00  0.00     0.120 A 
ATOM     10  C   UNL d   1      33.241  19.114 -25.020  0.00  0.00     0.120 A 
ENDROOT
BRANCH   1  11
ATOM     11  C   UNL d   1      30.416  16.863 -23.899  0.00  0.00     0.281 C 
ATOM     12  N   UNL d   1      29.722  16.910 -24.342  0.00  0.00    -0.189 NA
ATOM     13  O   UNL d   1      30.421  16.457 -23.181  0.00  0.00    -0.265 OA
BRANCH  12  14
ATOM     14  C   UNL d   1      29.033  16.552 -24.068  0.00  0.00     0.166 A 
ATOM     15  N   UNL d   1      28.813  15.813 -24.361  0.00  0.00    -0.225 NA
ATOM     16  C   UNL d   1      28.120  15.453 -24.086  0.00  0.00     0.107 A 
ATOM     17  C   UNL d   1      27.654  15.833 -23.522  0.00  0.00     0.054 A 
ATOM     18  C   UNL d   1      27.880  16.574 -23.231  0.00  0.00     0.011 A 
ATOM     19 BR   UNL d   1      26.965  15.476 -23.247  0.00  0.00    -0.048 Br
ATOM     20  C   UNL d   1      28.569  16.931 -23.506  0.00  0.00     0.039 A 
ENDBRANCH  12  14
ENDBRANCH   1  11
TORSDOF 2
ENDMDL
