MODEL 1
REMARK VINA RESULT:       0.8      0.000      0.000
REMARK  5 active torsions:
REMARK  status: ('A' for Active; 'I' for Inactive)
REMARK    1  A    between atoms: C_8  and  C_1 
REMARK    2  A    between atoms: N_4  and  C_2 
REMARK       I    between atoms: C_6  and  N_4 
REMARK    3  A    between atoms: C_11  and  C_6 
REMARK    4  A    between atoms: O_12  and  C_8 
REMARK    5  A    between atoms: C_17  and  O_12 
ROOT
ATOM      1  C   UNL d   1      32.649  22.118 -21.909  0.00  0.00     0.181 A 
ATOM      2  C   UNL d   1      32.946  21.747 -22.591  0.00  0.00     0.115 A 
ATOM      3  O   UNL d   1      32.513  22.912 -22.105  0.00  0.00    -0.300 OA
ATOM      4  C   UNL d   1      32.990  22.306 -23.187  0.00  0.00     0.043 A 
ATOM      5  C   UNL d   1      32.722  23.029 -22.888  0.00  0.00     0.102 A 
ATOM      6  C   UNL d   1      33.241  22.253 -23.971  0.00  0.00     0.004 A 
ATOM      7  C   UNL d   1      32.706  23.691 -23.371  0.00  0.00     0.025 A 
ATOM      8  C   UNL d   1      33.224  22.924 -24.457  0.00  0.00     0.000 A 
ATOM      9  C   UNL d   1      32.954  23.643 -24.150  0.00  0.00     0.002 A 
ENDROOT
BRANCH   2  10
ATOM     10  N   UNL d   1      33.161  20.946 -22.652  0.00  0.00    -0.206 NA
ATOM     11  C   UNL d   1      32.599  20.387 -22.875  0.00  0.00     0.279 C 
ATOM     12  O   UNL d   1      31.825  20.618 -23.039  0.00  0.00    -0.265 OA
BRANCH  11  13
ATOM     13  C   UNL d   1      32.812  19.596 -22.935  0.00  0.00     0.058 A 
ATOM     14  C   UNL d   1      32.998  19.159 -22.247  0.00  0.00     0.005 A 
ATOM     15  C   UNL d   1      33.209  18.376 -22.309  0.00  0.00     0.000 A 
ATOM     16  C   UNL d   1      33.239  18.016 -23.050  0.00  0.00     0.000 A 
ATOM     17  C   UNL d   1      33.056  18.444 -23.723  0.00  0.00     0.000 A 
ATOM     18  C   UNL d   1      32.840  19.245 -23.661  0.00  0.00     0.005 A 
ENDBRANCH  11  13
ENDBRANCH   2  10
BRANCH   1  19
ATOM     19  C   UNL d   1      32.514  21.761 -21.177  0.00  0.00     0.325 C 
ATOM     20  O   UNL d   1      31.858  21.265 -21.074  0.00  0.00    -0.257 OA
BRANCH  19  21
ATOM     21  O   UNL d   1      33.029  21.900 -20.556  0.00  0.00    -0.269 OA
BRANCH  21  22
ATOM     22  C   UNL d   1      32.730  22.059 -19.797  0.00  0.00     0.126 C 
ATOM     23  C   UNL d   1      33.238  22.022 -19.141  0.00  0.00     0.029 C 
ENDBRANCH  21  22
ENDBRANCH  19  21
ENDBRANCH   1  19
TORSDOF 5
ENDMDL
MODEL 2
REMARK VINA RESULT:       1.0      2.681      5.303
REMARK  5 active torsions:
REMARK  status: ('A' for Active; 'I' for Inactive)
REMARK    1  A    between atoms: C_8  and  C_1 
REMARK    2  A    between atoms: N_4  and  C_2 
REMARK       I    between atoms: C_6  and  N_4 
REMARK    3  A    between atoms: C_11  and  C_6 
REMARK    4  A    between atoms: O_12  and  C_8 
REMARK    5  A    between atoms: C_17  and  O_12 
ROOT
ATOM      1  C   UNL d   1      30.924  17.459 -24.515  0.00  0.00     0.181 A 
ATOM      2  C   UNL d   1      31.733  17.622 -24.411  0.00  0.00     0.115 A 
ATOM      3  O   UNL d   1      30.867  16.671 -24.769  0.00  0.00    -0.300 OA
ATOM      4  C   UNL d   1      32.155  16.946 -24.598  0.00  0.00     0.043 A 
ATOM      5  C   UNL d   1      31.621  16.356 -24.820  0.00  0.00     0.102 A 
ATOM      6  C   UNL d   1      32.965  16.788 -24.595  0.00  0.00     0.004 A 
ATOM      7  C   UNL d   1      31.896  15.615 -25.037  0.00  0.00     0.025 A 
ATOM      8  C   UNL d   1      33.241  16.038 -24.815  0.00  0.00     0.000 A 
ATOM      9  C   UNL d   1      32.699  15.453 -25.036  0.00  0.00     0.002 A 
ENDROOT
BRANCH   2  10
ATOM     10  N   UNL d   1      32.052  18.348 -24.160  0.00  0.00    -0.206 NA
ATOM     11  C   UNL d   1      32.297  18.438 -23.379  0.00  0.00     0.279 C 
ATOM     12  O   UNL d   1      32.228  17.814 -22.846  0.00  0.00    -0.265 OA
BRANCH  11  13
ATOM     13  C   UNL d   1      32.612  19.156 -23.132  0.00  0.00     0.058 A 
ATOM     14  C   UNL d   1      32.904  19.701 -23.694  0.00  0.00     0.005 A 
ATOM     15  C   UNL d   1      33.215  20.410 -23.446  0.00  0.00     0.000 A 
ATOM     16  C   UNL d   1      33.241  20.590 -22.642  0.00  0.00     0.000 A 
ATOM     17  C   UNL d   1      32.954  20.056 -22.093  0.00  0.00     0.000 A 
ATOM     18  C   UNL d   1      32.636  19.329 -22.344  0.00  0.00     0.005 A 
ENDBRANCH  11  13
ENDBRANCH   2  10
BRANCH   1  19
ATOM     19  C   UNL d   1      30.298  17.982 -24.390  0.00  0.00     0.325 C 
ATOM     20  O   UNL d   1      30.317  18.736 -24.732  0.00  0.00    -0.257 OA
BRANCH  19  21
ATOM     21  O   UNL d   1      29.663  17.753 -23.928  0.00  0.00    -0.269 OA
BRANCH  21  22
ATOM     22  C   UNL d   1      28.900  18.031 -24.106  0.00  0.00     0.126 C 
ATOM     23  C   UNL d   1      28.247  17.726 -23.693  0.00  0.00     0.029 C 
ENDBRANCH  21  22
ENDBRANCH  19  21
ENDBRANCH   1  19
TORSDOF 5
ENDMDL
MODEL 3
REMARK VINA RESULT:       1.1      0.994      2.804
REMARK  5 active torsions:
REMARK  status: ('A' for Active; 'I' for Inactive)
REMARK    1  A    between atoms: C_8  and  C_1 
REMARK    2  A    between atoms: N_4  and  C_2 
REMARK       I    between atoms: C_6  and  N_4 
REMARK    3  A    between atoms: C_11  and  C_6 
REMARK    4  A    between atoms: O_12  and  C_8 
REMARK    5  A    between atoms: C_17  and  O_12 
ROOT
ATOM      1  C   UNL d   1      33.157  21.551 -22.849  0.00  0.00     0.181 A 
ATOM      2  C   UNL d   1      33.170  20.829 -22.436  0.00  0.00     0.115 A 
ATOM      3  O   UNL d   1      33.080  22.152 -22.282  0.00  0.00    -0.300 OA
ATOM      4  C   UNL d   1      33.102  20.991 -21.637  0.00  0.00     0.043 A 
ATOM      5  C   UNL d   1      33.046  21.809 -21.538  0.00  0.00     0.102 A 
ATOM      6  C   UNL d   1      33.084  20.495 -20.978  0.00  0.00     0.004 A 
ATOM      7  C   UNL d   1      32.972  22.127 -20.787  0.00  0.00     0.025 A 
ATOM      8  C   UNL d   1      33.009  20.819 -20.218  0.00  0.00     0.000 A 
ATOM      9  C   UNL d   1      32.953  21.640 -20.129  0.00  0.00     0.002 A 
ENDROOT
BRANCH   2  10
ATOM     10  N   UNL d   1      33.241  20.076 -22.782  0.00  0.00    -0.206 NA
ATOM     11  C   UNL d   1      32.586  19.578 -22.813  0.00  0.00     0.279 C 
ATOM     12  O   UNL d   1      31.862  19.821 -22.504  0.00  0.00    -0.265 OA
BRANCH  11  13
ATOM     13  C   UNL d   1      32.657  18.834 -23.155  0.00  0.00     0.058 A 
ATOM     14  C   UNL d   1      32.232  18.650 -23.851  0.00  0.00     0.005 A 
ATOM     15  C   UNL d   1      32.304  17.913 -24.186  0.00  0.00     0.000 A 
ATOM     16  C   UNL d   1      32.797  17.349 -23.840  0.00  0.00     0.000 A 
ATOM     17  C   UNL d   1      33.212  17.531 -23.159  0.00  0.00     0.000 A 
ATOM     18  C   UNL d   1      33.140  18.284 -22.814  0.00  0.00     0.005 A 
ENDBRANCH  11  13
ENDBRANCH   2  10
BRANCH   1  19
ATOM     19  C   UNL d   1      33.211  21.650 -23.666  0.00  0.00     0.325 C 
ATOM     20  O   UNL d   1      33.239  20.986 -24.161  0.00  0.00    -0.257 OA
BRANCH  19  21
ATOM     21  O   UNL d   1      33.237  22.404 -23.984  0.00  0.00    -0.269 OA
BRANCH  21  22
ATOM     22  C   UNL d   1      32.929  22.545 -24.743  0.00  0.00     0.126 C 
ATOM     23  C   UNL d   1      32.744  23.322 -24.971  0.00  0.00     0.029 C 
ENDBRANCH  21  22
ENDBRANCH  19  21
ENDBRANCH   1  19
TORSDOF 5
ENDMDL
MODEL 4
REMARK VINA RESULT:       1.3      0.840      3.540
REMARK  5 active torsions:
REMARK  status: ('A' for Active; 'I' for Inactive)
REMARK    1  A    between atoms: C_8  and  C_1 
REMARK    2  A    between atoms: N_4  and  C_2 
REMARK       I    between atoms: C_6  and  N_4 
REMARK    3  A    between atoms: C_11  and  C_6 
REMARK    4  A    between atoms: O_12  and  C_8 
REMARK    5  A    between atoms: C_17  and  O_12 
ROOT
ATOM      1  C   UNL d   1      32.712  20.837 -21.344  0.00  0.00     0.181 A 
ATOM      2  C   UNL d   1      32.969  21.609 -21.514  0.00  0.00     0.115 A 
ATOM      3  O   UNL d   1      32.595  20.796 -20.525  0.00  0.00    -0.300 OA
ATOM      4  C   UNL d   1      33.007  22.026 -20.812  0.00  0.00     0.043 A 
ATOM      5  C   UNL d   1      32.776  21.524 -20.196  0.00  0.00     0.102 A 
ATOM      6  C   UNL d   1      33.223  22.805 -20.647  0.00  0.00     0.004 A 
ATOM      7  C   UNL d   1      32.762  21.801 -19.425  0.00  0.00     0.025 A 
ATOM      8  C   UNL d   1      33.209  23.083 -19.866  0.00  0.00     0.000 A 
ATOM      9  C   UNL d   1      32.976  22.574 -19.257  0.00  0.00     0.002 A 
ENDROOT
BRANCH   2  10
ATOM     10  N   UNL d   1      33.154  21.902 -22.271  0.00  0.00    -0.206 NA
ATOM     11  C   UNL d   1      32.604  22.361 -22.677  0.00  0.00     0.279 C 
ATOM     12  O   UNL d   1      31.872  22.531 -22.339  0.00  0.00    -0.265 OA
BRANCH  11  13
ATOM     13  C   UNL d   1      32.788  22.650 -23.424  0.00  0.00     0.058 A 
ATOM     14  C   UNL d   1      32.699  22.161 -24.096  0.00  0.00     0.005 A 
ATOM     15  C   UNL d   1      32.882  22.449 -24.834  0.00  0.00     0.000 A 
ATOM     16  C   UNL d   1      33.154  23.223 -24.917  0.00  0.00     0.000 A 
ATOM     17  C   UNL d   1      33.241  23.701 -24.259  0.00  0.00     0.000 A 
ATOM     18  C   UNL d   1      33.054  23.408 -23.503  0.00  0.00     0.005 A 
ENDBRANCH  11  13
ENDBRANCH   2  10
BRANCH   1  19
ATOM     19  C   UNL d   1      32.595  20.228 -21.889  0.00  0.00     0.325 C 
ATOM     20  O   UNL d   1      31.826  19.994 -22.088  0.00  0.00    -0.257 OA
BRANCH  19  21
ATOM     21  O   UNL d   1      33.241  19.858 -22.230  0.00  0.00    -0.269 OA
BRANCH  21  22
ATOM     22  C   UNL d   1      33.178  19.072 -22.493  0.00  0.00     0.126 C 
ATOM     23  C   UNL d   1      33.038  18.920 -23.297  0.00  0.00     0.029 C 
ENDBRANCH  21  22
ENDBRANCH  19  21
ENDBRANCH   1  19
TORSDOF 5
ENDMDL
MODEL 5
REMARK VINA RESULT:       3.6      3.320      5.634
REMARK  5 active torsions:
REMARK  status: ('A' for Active; 'I' for Inactive)
REMARK    1  A    between atoms: C_8  and  C_1 
REMARK    2  A    between atoms: N_4  and  C_2 
REMARK       I    between atoms: C_6  and  N_4 
REMARK    3  A    between atoms: C_11  and  C_6 
REMARK    4  A    between atoms: O_12  and  C_8 
REMARK    5  A    between atoms: C_17  and  O_12 
ROOT
ATOM      1  C   UNL d   1      31.522  16.054 -23.865  0.00  0.00     0.181 A 
ATOM      2  C   UNL d   1      31.325  16.846 -24.025  0.00  0.00     0.115 A 
ATOM      3  O   UNL d   1      30.831  15.608 -23.966  0.00  0.00    -0.300 OA
ATOM      4  C   UNL d   1      30.530  16.877 -24.217  0.00  0.00     0.043 A 
ATOM      5  C   UNL d   1      30.221  16.111 -24.182  0.00  0.00     0.102 A 
ATOM      6  C   UNL d   1      30.040  17.508 -24.423  0.00  0.00     0.004 A 
ATOM      7  C   UNL d   1      29.431  15.980 -24.351  0.00  0.00     0.025 A 
ATOM      8  C   UNL d   1      29.241  17.373 -24.594  0.00  0.00     0.000 A 
ATOM      9  C   UNL d   1      28.940  16.603 -24.556  0.00  0.00     0.002 A 
ENDROOT
BRANCH   2  10
ATOM     10  N   UNL d   1      31.849  17.492 -23.992  0.00  0.00    -0.206 NA
ATOM     11  C   UNL d   1      31.675  18.181 -24.407  0.00  0.00     0.279 C 
ATOM     12  O   UNL d   1      30.985  18.235 -24.855  0.00  0.00    -0.265 OA
BRANCH  11  13
ATOM     13  C   UNL d   1      32.193  18.818 -24.374  0.00  0.00     0.058 A 
ATOM     14  C   UNL d   1      32.457  19.181 -25.079  0.00  0.00     0.005 A 
ATOM     15  C   UNL d   1      32.970  19.811 -25.042  0.00  0.00     0.000 A 
ATOM     16  C   UNL d   1      33.228  20.090 -24.311  0.00  0.00     0.000 A 
ATOM     17  C   UNL d   1      32.969  19.733 -23.621  0.00  0.00     0.000 A 
ATOM     18  C   UNL d   1      32.444  19.089 -23.656  0.00  0.00     0.005 A 
ENDBRANCH  11  13
ENDBRANCH   2  10
BRANCH   1  19
ATOM     19  C   UNL d   1      32.266  15.769 -23.649  0.00  0.00     0.325 C 
ATOM     20  O   UNL d   1      32.892  15.796 -24.190  0.00  0.00    -0.257 OA
BRANCH  19  21
ATOM     21  O   UNL d   1      32.379  15.460 -22.900  0.00  0.00    -0.269 OA
BRANCH  21  22
ATOM     22  C   UNL d   1      33.140  15.456 -22.564  0.00  0.00     0.126 C 
ATOM     23  C   UNL d   1      33.235  15.657 -21.764  0.00  0.00     0.029 C 
ENDBRANCH  21  22
ENDBRANCH  19  21
ENDBRANCH   1  19
TORSDOF 5
ENDMDL
