MODEL 1
REMARK VINA RESULT:      29.4      0.000      0.000
REMARK  3 active torsions:
REMARK  status: ('A' for Active; 'I' for Inactive)
REMARK    1  A    between atoms: C_7  and  N_1 
REMARK    2  A    between atoms: C_6  and  C_3 
REMARK    3  A    between atoms: O_16  and  C_13 
ROOT
ATOM      1  N   UNL d   1     -54.831-101.451 -38.558  0.00  0.00    -0.273 N 
ATOM      2  C   UNL d   1     -54.785-100.636 -38.437  0.00  0.00     0.265 A 
ATOM      3  C   UNL d   1     -54.930-101.654 -37.146  0.00  0.00     0.087 A 
ATOM      4  C   UNL d   1     -54.903-101.960 -37.912  0.00  0.00     0.089 A 
ATOM      5  C   UNL d   1     -54.812-100.330 -37.672  0.00  0.00     0.069 A 
ATOM      6  O   UNL d   1     -54.713-100.127 -39.084  0.00  0.00    -0.267 OA
ENDROOT
BRANCH   1   7
ATOM      7  C   UNL d   1     -54.804-101.758 -39.323  0.00  0.00     0.067 A 
ATOM      8  C   UNL d   1     -54.811-102.573 -39.437  0.00  0.00     0.020 A 
ATOM      9  C   UNL d   1     -54.785-102.875 -40.194  0.00  0.00     0.026 A 
ATOM     10  C   UNL d   1     -54.751-102.368 -40.850  0.00  0.00     0.094 A 
ATOM     11  C   UNL d   1     -54.745-101.551 -40.732  0.00  0.00     0.026 A 
ATOM     12  C   UNL d   1     -54.771-101.245 -39.967  0.00  0.00     0.020 A 
BRANCH  10  13
ATOM     13  O   UNL d   1     -54.725-102.679 -41.614  0.00  0.00    -0.328 OA
ATOM     14  C   UNL d   1     -54.786-102.181 -42.269  0.00  0.00     0.181 C 
ENDBRANCH  10  13
ENDBRANCH   1   7
BRANCH   3  15
ATOM     15  C   UNL d   1     -55.003-102.012 -36.319  0.00  0.00     0.212 C 
ATOM     16  O   UNL d   1     -55.265-102.878 -36.220  0.00  0.00    -0.644 OA
ATOM     17  O   UNL d   1     -54.815-101.509 -35.583  0.00  0.00    -0.644 OA
ENDBRANCH   3  15
TORSDOF 3
ENDMDL
MODEL 2
REMARK VINA RESULT:      31.6      2.685      5.662
REMARK  3 active torsions:
REMARK  status: ('A' for Active; 'I' for Inactive)
REMARK    1  A    between atoms: C_7  and  N_1 
REMARK    2  A    between atoms: C_6  and  C_3 
REMARK    3  A    between atoms: O_16  and  C_13 
ROOT
ATOM      1  N   UNL d   1     -54.773-101.441 -43.546  0.00  0.00    -0.273 N 
ATOM      2  C   UNL d   1     -54.750-101.946 -44.199  0.00  0.00     0.265 A 
ATOM      3  C   UNL d   1     -54.826-100.312 -44.422  0.00  0.00     0.087 A 
ATOM      4  C   UNL d   1     -54.811-100.624 -43.658  0.00  0.00     0.089 A 
ATOM      5  C   UNL d   1     -54.765-101.635 -44.963  0.00  0.00     0.069 A 
ATOM      6  O   UNL d   1     -54.712-102.763 -44.087  0.00  0.00    -0.267 OA
ENDROOT
BRANCH   1   7
ATOM      7  C   UNL d   1     -54.758-101.753 -42.783  0.00  0.00     0.067 A 
ATOM      8  C   UNL d   1     -54.741-101.245 -42.135  0.00  0.00     0.020 A 
ATOM      9  C   UNL d   1     -54.726-101.552 -41.381  0.00  0.00     0.026 A 
ATOM     10  C   UNL d   1     -54.728-102.374 -41.260  0.00  0.00     0.094 A 
ATOM     11  C   UNL d   1     -54.746-102.880 -41.912  0.00  0.00     0.026 A 
ATOM     12  C   UNL d   1     -54.761-102.569 -42.675  0.00  0.00     0.020 A 
BRANCH  10  13
ATOM     13  O   UNL d   1     -54.713-102.681 -40.494  0.00  0.00    -0.328 OA
ATOM     14  C   UNL d   1     -54.787-102.180 -39.842  0.00  0.00     0.181 C 
ENDBRANCH  10  13
ENDBRANCH   1   7
BRANCH   3  15
ATOM     15  C   UNL d   1     -54.865 -99.479 -44.770  0.00  0.00     0.212 C 
ATOM     16  O   UNL d   1     -55.057 -98.771 -44.231  0.00  0.00    -0.644 OA
ATOM     17  O   UNL d   1     -54.713 -99.344 -45.657  0.00  0.00    -0.644 OA
ENDBRANCH   3  15
TORSDOF 3
ENDMDL
MODEL 3
REMARK VINA RESULT:      31.9      2.932      4.911
REMARK  3 active torsions:
REMARK  status: ('A' for Active; 'I' for Inactive)
REMARK    1  A    between atoms: C_7  and  N_1 
REMARK    2  A    between atoms: C_6  and  C_3 
REMARK    3  A    between atoms: O_16  and  C_13 
ROOT
ATOM      1  N   UNL d   1     -54.751-101.373 -43.192  0.00  0.00    -0.273 N 
ATOM      2  C   UNL d   1     -54.739-102.136 -43.508  0.00  0.00     0.265 A 
ATOM      3  C   UNL d   1     -54.739-101.920 -41.871  0.00  0.00     0.087 A 
ATOM      4  C   UNL d   1     -54.751-101.266 -42.373  0.00  0.00     0.089 A 
ATOM      5  C   UNL d   1     -54.727-102.790 -43.006  0.00  0.00     0.069 A 
ATOM      6  O   UNL d   1     -54.739-102.243 -44.327  0.00  0.00    -0.267 OA
ENDROOT
BRANCH   1   7
ATOM      7  C   UNL d   1     -54.763-100.718 -43.694  0.00  0.00     0.067 A 
ATOM      8  C   UNL d   1     -54.771 -99.959 -43.375  0.00  0.00     0.020 A 
ATOM      9  C   UNL d   1     -54.783 -99.313 -43.870  0.00  0.00     0.026 A 
ATOM     10  C   UNL d   1     -54.787 -99.413 -44.695  0.00  0.00     0.094 A 
ATOM     11  C   UNL d   1     -54.780-100.176 -45.011  0.00  0.00     0.026 A 
ATOM     12  C   UNL d   1     -54.768-100.829 -44.509  0.00  0.00     0.020 A 
BRANCH  10  13
ATOM     13  O   UNL d   1     -54.799 -98.755 -45.192  0.00  0.00    -0.328 OA
ATOM     14  C   UNL d   1     -55.267 -98.756 -45.873  0.00  0.00     0.181 C 
ENDBRANCH  10  13
ENDBRANCH   1   7
BRANCH   3  15
ATOM     15  C   UNL d   1     -54.735-102.036 -40.975  0.00  0.00     0.212 C 
ATOM     16  O   UNL d   1     -54.751-102.876 -40.625  0.00  0.00    -0.644 OA
ATOM     17  O   UNL d   1     -54.715-101.315 -40.419  0.00  0.00    -0.644 OA
ENDBRANCH   3  15
TORSDOF 3
ENDMDL
