MODEL 1
REMARK VINA RESULT:      -3.7      0.000      0.000
REMARK  6 active torsions:
REMARK  status: ('A' for Active; 'I' for Inactive)
REMARK    1  A    between atoms: C_7  and  S_1 
REMARK    2  A    between atoms: N_11  and  S_1 
REMARK    3  A    between atoms: C_5  and  C_2 
REMARK    4  A    between atoms: C_6  and  C_15 
REMARK    5  A    between atoms: C_18  and  N_11 
REMARK    6  A    between atoms: C_15  and  C_18 
ROOT
ATOM      1  C   UNL d   1      32.935  18.470 -22.984  0.00  0.00     0.041 C 
ENDROOT
BRANCH   1   2
ATOM      2  C   UNL d   1      32.497  18.118 -23.595  0.00  0.00     0.090 A 
ATOM      3  N   UNL d   1      31.814  17.658 -23.493  0.00  0.00    -0.238 NA
ATOM      4  C   UNL d   1      31.560  17.420 -24.246  0.00  0.00     0.112 A 
ATOM      5  S   UNL d   1      32.081  17.729 -24.810  0.00  0.00    -0.066 SA
ATOM      6  C   UNL d   1      32.665  18.163 -24.403  0.00  0.00     0.056 A 
BRANCH   4   7
ATOM      7  C   UNL d   1      30.891  16.947 -24.415  0.00  0.00     0.043 A 
ATOM      8  C   UNL d   1      30.925  16.131 -24.308  0.00  0.00     0.101 A 
ATOM      9  N   UNL d   1      30.274  15.670 -24.473  0.00  0.00    -0.242 NA
ATOM     10  C   UNL d   1      29.583  16.023 -24.746  0.00  0.00     0.099 A 
ATOM     11  C   UNL d   1      29.551  16.856 -24.855  0.00  0.00     0.021 A 
ATOM     12  C   UNL d   1      30.207  17.316 -24.689  0.00  0.00     0.005 A 
ENDBRANCH   4   7
ENDBRANCH   1   2
BRANCH   1  13
ATOM     13  C   UNL d   1      32.824  19.263 -22.792  0.00  0.00     0.114 C 
BRANCH  13  14
ATOM     14  N   UNL d   1      33.240  19.597 -22.141  0.00  0.00    -0.157 NA
BRANCH  14  15
ATOM     15  S   UNL d   1      33.028  20.349 -21.868  0.00  0.00     0.285 S 
ATOM     16  O   UNL d   1      32.817  20.016 -21.132  0.00  0.00    -0.198 OA
ATOM     17  O   UNL d   1      33.237  20.684 -22.600  0.00  0.00    -0.198 OA
BRANCH  15  18
ATOM     18  C   UNL d   1      32.814  21.096 -21.588  0.00  0.00     0.105 A 
ATOM     19  C   UNL d   1      33.100  21.764 -21.972  0.00  0.00     0.015 A 
ATOM     20  C   UNL d   1      32.885  22.521 -21.691  0.00  0.00     0.030 A 
ATOM     21  C   UNL d   1      32.395  22.593 -21.040  0.00  0.00     0.140 A 
ATOM     22  C   UNL d   1      32.114  21.921 -20.662  0.00  0.00     0.030 A 
ATOM     23  F   UNL d   1      32.181  23.340 -20.759  0.00  0.00    -0.204 F 
ATOM     24  C   UNL d   1      32.315  21.169 -20.925  0.00  0.00     0.015 A 
ENDBRANCH  15  18
ENDBRANCH  14  15
ENDBRANCH  13  14
ENDBRANCH   1  13
TORSDOF 6
ENDMDL
MODEL 2
REMARK VINA RESULT:      -3.5      2.313      5.643
REMARK  6 active torsions:
REMARK  status: ('A' for Active; 'I' for Inactive)
REMARK    1  A    between atoms: C_7  and  S_1 
REMARK    2  A    between atoms: N_11  and  S_1 
REMARK    3  A    between atoms: C_5  and  C_2 
REMARK    4  A    between atoms: C_6  and  C_15 
REMARK    5  A    between atoms: C_18  and  N_11 
REMARK    6  A    between atoms: C_15  and  C_18 
ROOT
ATOM      1  C   UNL d   1      33.241  19.382 -22.765  0.00  0.00     0.041 C 
ENDROOT
BRANCH   1   2
ATOM      2  C   UNL d   1      33.116  19.942 -22.165  0.00  0.00     0.090 A 
ATOM      3  N   UNL d   1      32.865  20.724 -22.283  0.00  0.00    -0.238 NA
ATOM      4  C   UNL d   1      32.814  21.083 -21.536  0.00  0.00     0.112 A 
ATOM      5  S   UNL d   1      33.032  20.528 -20.961  0.00  0.00    -0.066 SA
ATOM      6  C   UNL d   1      33.220  19.818 -21.355  0.00  0.00     0.056 A 
BRANCH   4   7
ATOM      7  C   UNL d   1      32.583  21.872 -21.382  0.00  0.00     0.043 A 
ATOM      8  C   UNL d   1      32.276  22.075 -20.645  0.00  0.00     0.101 A 
ATOM      9  N   UNL d   1      32.051  22.843 -20.495  0.00  0.00    -0.242 NA
ATOM     10  C   UNL d   1      32.131  23.415 -21.081  0.00  0.00     0.099 A 
ATOM     11  C   UNL d   1      32.446  23.204 -21.832  0.00  0.00     0.021 A 
ATOM     12  C   UNL d   1      32.671  22.432 -21.980  0.00  0.00     0.005 A 
ENDBRANCH   4   7
ENDBRANCH   1   2
BRANCH   1  13
ATOM     13  C   UNL d   1      32.659  18.830 -22.951  0.00  0.00     0.114 C 
BRANCH  13  14
ATOM     14  N   UNL d   1      32.823  18.224 -23.512  0.00  0.00    -0.157 NA
BRANCH  14  15
ATOM     15  S   UNL d   1      32.205  17.741 -23.777  0.00  0.00     0.285 S 
ATOM     16  O   UNL d   1      32.099  18.247 -24.432  0.00  0.00    -0.198 OA
ATOM     17  O   UNL d   1      32.309  17.234 -23.126  0.00  0.00    -0.198 OA
BRANCH  15  18
ATOM     18  C   UNL d   1      31.587  17.264 -24.050  0.00  0.00     0.105 A 
ATOM     19  C   UNL d   1      31.520  16.495 -23.766  0.00  0.00     0.015 A 
ATOM     20  C   UNL d   1      30.897  16.012 -24.040  0.00  0.00     0.030 A 
ATOM     21  C   UNL d   1      30.361  16.303 -24.584  0.00  0.00     0.140 A 
ATOM     22  C   UNL d   1      30.435  17.071 -24.862  0.00  0.00     0.030 A 
ATOM     23  F   UNL d   1      29.743  15.827 -24.857  0.00  0.00    -0.204 F 
ATOM     24  C   UNL d   1      31.042  17.561 -24.604  0.00  0.00     0.015 A 
ENDBRANCH  15  18
ENDBRANCH  14  15
ENDBRANCH  13  14
ENDBRANCH   1  13
TORSDOF 6
ENDMDL
