MODEL 1
REMARK VINA RESULT:      -5.1      0.000      0.000
REMARK  5 active torsions:
REMARK  status: ('A' for Active; 'I' for Inactive)
REMARK    1  A    between atoms: N_5  and  S_1 
REMARK    2  A    between atoms: C_9  and  S_1 
REMARK    3  A    between atoms: C_6  and  C_2 
REMARK    4  A    between atoms: C_4  and  N_5 
REMARK    5  A    between atoms: O_20  and  C_17 
ROOT
ATOM      1  S   UNL d   1      58.021   0.295  30.395  0.00  0.00     0.287 S 
ATOM      2  O   UNL d   1      57.465   0.048  29.822  0.00  0.00    -0.198 OA
ATOM      3  O   UNL d   1      58.587   0.543  30.974  0.00  0.00    -0.198 OA
ENDROOT
BRANCH   1   4
ATOM      4  N   UNL d   1      57.412   0.682  30.831  0.00  0.00    -0.132 NA
BRANCH   4   5
ATOM      5  C   UNL d   1      57.039   0.303  31.470  0.00  0.00     0.206 A 
ATOM      6  N   UNL d   1      56.665  -0.462  31.552  0.00  0.00    -0.216 NA
ATOM      7  C   UNL d   1      56.399  -0.507  32.340  0.00  0.00     0.161 A 
ATOM      8  C   UNL d   1      56.585   0.171  32.731  0.00  0.00     0.061 A 
ATOM      9  S   UNL d   1      56.974   0.679  32.225  0.00  0.00    -0.046 SA
BRANCH   7  10
ATOM     10  C   UNL d   1      56.001  -1.139  32.690  0.00  0.00     0.436 C 
ATOM     11  F   UNL d   1      55.645  -1.807  33.024  0.00  0.00    -0.165 F 
ATOM     12  F   UNL d   1      55.225  -1.007  33.099  0.00  0.00    -0.165 F 
ATOM     13  F   UNL d   1      56.327  -1.851  32.650  0.00  0.00    -0.165 F 
ENDBRANCH   7  10
ENDBRANCH   4   5
ENDBRANCH   1   4
BRANCH   1  14
ATOM     14  C   UNL d   1      58.640  -0.090  29.965  0.00  0.00     0.105 A 
ATOM     15  C   UNL d   1      59.370   0.271  29.937  0.00  0.00     0.015 A 
ATOM     16  C   UNL d   1      59.980  -0.084  29.528  0.00  0.00     0.025 A 
ATOM     17  C   UNL d   1      59.867  -0.807  29.141  0.00  0.00     0.094 A 
ATOM     18  C   UNL d   1      59.139  -1.177  29.163  0.00  0.00     0.025 A 
ATOM     19  C   UNL d   1      58.526  -0.833  29.566  0.00  0.00     0.015 A 
BRANCH  17  20
ATOM     20  O   UNL d   1      60.482  -1.194  28.711  0.00  0.00    -0.328 OA
ATOM     21  C   UNL d   1      61.055  -1.652  29.124  0.00  0.00     0.181 C 
ENDBRANCH  17  20
ENDBRANCH   1  14
TORSDOF 5
ENDMDL
MODEL 2
REMARK VINA RESULT:      -4.9      2.172      4.289
REMARK  5 active torsions:
REMARK  status: ('A' for Active; 'I' for Inactive)
REMARK    1  A    between atoms: N_5  and  S_1 
REMARK    2  A    between atoms: C_9  and  S_1 
REMARK    3  A    between atoms: C_6  and  C_2 
REMARK    4  A    between atoms: C_4  and  N_5 
REMARK    5  A    between atoms: O_20  and  C_17 
ROOT
ATOM      1  S   UNL d   1      57.495   0.281  31.106  0.00  0.00     0.287 S 
ATOM      2  O   UNL d   1      58.133   0.366  31.639  0.00  0.00    -0.198 OA
ATOM      3  O   UNL d   1      56.846   0.194  30.568  0.00  0.00    -0.198 OA
ENDROOT
BRANCH   1   4
ATOM      4  N   UNL d   1      58.000   0.476  30.459  0.00  0.00    -0.132 NA
BRANCH   4   5
ATOM      5  C   UNL d   1      58.406  -0.117  30.043  0.00  0.00     0.206 A 
ATOM      6  N   UNL d   1      58.235  -0.941  29.892  0.00  0.00    -0.216 NA
ATOM      7  C   UNL d   1      58.868  -1.232  29.436  0.00  0.00     0.161 A 
ATOM      8  C   UNL d   1      59.402  -0.644  29.304  0.00  0.00     0.061 A 
ATOM      9  S   UNL d   1      59.145   0.042  29.662  0.00  0.00    -0.046 SA
BRANCH   7  10
ATOM     10  C   UNL d   1      58.958  -2.000  29.151  0.00  0.00     0.436 C 
ATOM     11  F   UNL d   1      59.098  -2.755  28.843  0.00  0.00    -0.165 F 
ATOM     12  F   UNL d   1      58.330  -2.609  29.300  0.00  0.00    -0.165 F 
ATOM     13  F   UNL d   1      59.608  -2.173  28.749  0.00  0.00    -0.165 F 
ENDBRANCH   7  10
ENDBRANCH   4   5
ENDBRANCH   1   4
BRANCH   1  14
ATOM     14  C   UNL d   1      56.979   0.084  31.748  0.00  0.00     0.105 A 
ATOM     15  C   UNL d   1      56.743   0.682  32.248  0.00  0.00     0.015 A 
ATOM     16  C   UNL d   1      56.246   0.512  32.872  0.00  0.00     0.025 A 
ATOM     17  C   UNL d   1      55.979  -0.260  33.004  0.00  0.00     0.094 A 
ATOM     18  C   UNL d   1      56.211  -0.867  32.509  0.00  0.00     0.025 A 
ATOM     19  C   UNL d   1      56.704  -0.710  31.886  0.00  0.00     0.015 A 
BRANCH  17  20
ATOM     20  O   UNL d   1      55.465  -0.461  33.643  0.00  0.00    -0.328 OA
ATOM     21  C   UNL d   1      55.100   0.149  34.093  0.00  0.00     0.181 C 
ENDBRANCH  17  20
ENDBRANCH   1  14
TORSDOF 5
ENDMDL
MODEL 3
REMARK VINA RESULT:      -3.9      1.601      2.225
REMARK  5 active torsions:
REMARK  status: ('A' for Active; 'I' for Inactive)
REMARK    1  A    between atoms: N_5  and  S_1 
REMARK    2  A    between atoms: C_9  and  S_1 
REMARK    3  A    between atoms: C_6  and  C_2 
REMARK    4  A    between atoms: C_4  and  N_5 
REMARK    5  A    between atoms: O_20  and  C_17 
ROOT
ATOM      1  S   UNL d   1      59.108  -1.003  29.070  0.00  0.00     0.287 S 
ATOM      2  O   UNL d   1      59.838  -0.724  29.366  0.00  0.00    -0.198 OA
ATOM      3  O   UNL d   1      58.370  -1.290  28.770  0.00  0.00    -0.198 OA
ENDROOT
BRANCH   1   4
ATOM      4  N   UNL d   1      58.756  -0.250  29.206  0.00  0.00    -0.132 NA
BRANCH   4   5
ATOM      5  C   UNL d   1      58.302  -0.109  29.888  0.00  0.00     0.206 A 
ATOM      6  N   UNL d   1      57.834  -0.620  30.389  0.00  0.00    -0.216 NA
ATOM      7  C   UNL d   1      57.516  -0.135  30.986  0.00  0.00     0.161 A 
ATOM      8  C   UNL d   1      57.759   0.624  30.879  0.00  0.00     0.061 A 
ATOM      9  S   UNL d   1      58.237   0.667  30.219  0.00  0.00    -0.046 SA
BRANCH   7  10
ATOM     10  C   UNL d   1      57.025  -0.372  31.604  0.00  0.00     0.436 C 
ATOM     11  F   UNL d   1      56.530  -0.661  32.201  0.00  0.00    -0.165 F 
ATOM     12  F   UNL d   1      56.792   0.206  32.237  0.00  0.00    -0.165 F 
ATOM     13  F   UNL d   1      56.772  -1.114  31.615  0.00  0.00    -0.165 F 
ENDBRANCH   7  10
ENDBRANCH   4   5
ENDBRANCH   1   4
BRANCH   1  14
ATOM     14  C   UNL d   1      59.452  -1.764  28.929  0.00  0.00     0.105 A 
ATOM     15  C   UNL d   1      60.260  -1.809  28.833  0.00  0.00     0.015 A 
ATOM     16  C   UNL d   1      60.610  -2.533  28.697  0.00  0.00     0.025 A 
ATOM     17  C   UNL d   1      60.155  -3.223  28.654  0.00  0.00     0.094 A 
ATOM     18  C   UNL d   1      59.344  -3.189  28.749  0.00  0.00     0.025 A 
ATOM     19  C   UNL d   1      58.986  -2.475  28.885  0.00  0.00     0.015 A 
BRANCH  17  20
ATOM     20  O   UNL d   1      60.494  -3.983  28.514  0.00  0.00    -0.328 OA
ATOM     21  C   UNL d   1      61.133  -4.250  28.991  0.00  0.00     0.181 C 
ENDBRANCH  17  20
ENDBRANCH   1  14
TORSDOF 5
ENDMDL
MODEL 4
REMARK VINA RESULT:      -3.8      8.972      9.505
REMARK  5 active torsions:
REMARK  status: ('A' for Active; 'I' for Inactive)
REMARK    1  A    between atoms: N_5  and  S_1 
REMARK    2  A    between atoms: C_9  and  S_1 
REMARK    3  A    between atoms: C_6  and  C_2 
REMARK    4  A    between atoms: C_4  and  N_5 
REMARK    5  A    between atoms: O_20  and  C_17 
ROOT
ATOM      1  S   UNL d   1      59.367  -9.770  33.904  0.00  0.00     0.287 S 
ATOM      2  O   UNL d   1      60.144  -9.723  33.600  0.00  0.00    -0.198 OA
ATOM      3  O   UNL d   1      58.578  -9.818  34.208  0.00  0.00    -0.198 OA
ENDROOT
BRANCH   1   4
ATOM      4  N   UNL d   1      59.668  -9.789  34.691  0.00  0.00    -0.132 NA
BRANCH   4   5
ATOM      5  C   UNL d   1      59.633  -9.114  35.176  0.00  0.00     0.206 A 
ATOM      6  N   UNL d   1      59.768  -8.284  35.023  0.00  0.00    -0.216 NA
ATOM      7  C   UNL d   1      59.644  -7.891  35.747  0.00  0.00     0.161 A 
ATOM      8  C   UNL d   1      59.446  -8.424  36.317  0.00  0.00     0.061 A 
ATOM      9  S   UNL d   1      59.433  -9.173  35.995  0.00  0.00    -0.046 SA
BRANCH   7  10
ATOM     10  C   UNL d   1      59.707  -7.081  35.885  0.00  0.00     0.436 C 
ATOM     11  F   UNL d   1      59.823  -6.277  36.044  0.00  0.00    -0.165 F 
ATOM     12  F   UNL d   1      59.034  -6.538  35.682  0.00  0.00    -0.165 F 
ATOM     13  F   UNL d   1      60.372  -6.808  36.197  0.00  0.00    -0.165 F 
ENDBRANCH   7  10
ENDBRANCH   4   5
ENDBRANCH   1   4
BRANCH   1  14
ATOM     14  C   UNL d   1      59.055  -9.752  33.117  0.00  0.00     0.105 A 
ATOM     15  C   UNL d   1      59.579  -9.692  32.496  0.00  0.00     0.015 A 
ATOM     16  C   UNL d   1      59.298  -9.674  31.731  0.00  0.00     0.025 A 
ATOM     17  C   UNL d   1      58.486  -9.714  31.577  0.00  0.00     0.094 A 
ATOM     18  C   UNL d   1      57.952  -9.774  32.192  0.00  0.00     0.025 A 
ATOM     19  C   UNL d   1      58.220  -9.794  32.956  0.00  0.00     0.015 A 
BRANCH  17  20
ATOM     20  O   UNL d   1      58.170  -9.697  30.794  0.00  0.00    -0.328 OA
ATOM     21  C   UNL d   1      58.680  -9.816  30.135  0.00  0.00     0.181 C 
ENDBRANCH  17  20
ENDBRANCH   1  14
TORSDOF 5
ENDMDL
