MODEL 1
REMARK VINA RESULT:      53.3      0.000      0.000
REMARK  5 active torsions:
REMARK  status: ('A' for Active; 'I' for Inactive)
REMARK    1  A    between atoms: N_6  and  C_1 
REMARK    2  A    between atoms: C_10  and  C_2 
REMARK       I    between atoms: C_9  and  N_6 
REMARK    3  A    between atoms: C_14  and  C_9 
REMARK    4  A    between atoms: C_13  and  C_15 
REMARK    5  A    between atoms: C_19  and  C_13 
ROOT
ATOM      1  N   UNL d   1      45.934 -17.831  40.686  0.00  0.00    -0.201 NA
ATOM      2  C   UNL d   1      45.178 -17.673  40.395  0.00  0.00     0.280 C 
ATOM      3  O   UNL d   1      44.514 -17.846  40.847  0.00  0.00    -0.265 OA
ENDROOT
BRANCH   1   4
ATOM      4  C   UNL d   1      46.027 -18.167  41.437  0.00  0.00     0.118 A 
ATOM      5  C   UNL d   1      46.253 -18.944  41.600  0.00  0.00     0.083 A 
ATOM      6  C   UNL d   1      46.273 -19.030  42.416  0.00  0.00     0.008 A 
ATOM      7  C   UNL d   1      46.461 -19.683  42.888  0.00  0.00    -0.004 A 
ATOM      8  C   UNL d   1      46.064 -18.321  42.759  0.00  0.00     0.028 A 
ATOM      9  C   UNL d   1      46.435 -19.610  43.712  0.00  0.00     0.099 A 
ATOM     10  C   UNL d   1      46.647 -20.330  43.363  0.00  0.00     0.029 C 
ATOM     11  C   UNL d   1      46.410 -19.544  44.533  0.00  0.00     0.029 C 
ATOM     12  N   UNL d   1      46.222 -18.890  44.060  0.00  0.00    -0.294 NA
ATOM     13  C   UNL d   1      46.037 -18.244  43.585  0.00  0.00     0.104 A 
ATOM     14  C   UNL d   1      45.954 -17.978  44.364  0.00  0.00     0.029 C 
ATOM     15  C   UNL d   1      45.822 -17.502  43.299  0.00  0.00     0.029 C 
ATOM     16  S   UNL d   1      45.909 -17.777  42.155  0.00  0.00    -0.070 SA
BRANCH   5  17
ATOM     17  C   UNL d   1      46.423 -19.515  41.038  0.00  0.00     0.299 C 
ATOM     18  O   UNL d   1      46.641 -19.276  40.276  0.00  0.00    -0.264 OA
ATOM     19  N   UNL d   1      46.379 -20.318  41.225  0.00  0.00    -0.102 N 
ENDBRANCH   5  17
ENDBRANCH   1   4
BRANCH   2  20
ATOM     20  C   UNL d   1      45.086 -17.342  39.656  0.00  0.00     0.058 A 
ATOM     21  C   UNL d   1      45.696 -17.390  39.102  0.00  0.00     0.005 A 
ATOM     22  C   UNL d   1      45.602 -17.054  38.351  0.00  0.00     0.003 A 
ATOM     23  C   UNL d   1      44.899 -16.671  38.155  0.00  0.00     0.039 A 
ATOM     24  C   UNL d   1      44.300 -16.626  38.705  0.00  0.00     0.003 A 
ATOM     25  C   UNL d   1      44.393 -16.962  39.456  0.00  0.00     0.005 A 
BRANCH  23  26
ATOM     26  C   UNL d   1      44.809 -16.338  37.407  0.00  0.00     0.196 C 
ATOM     27  O   UNL d   1      44.275 -16.658  36.877  0.00  0.00    -0.287 OA
BRANCH  26  28
ATOM     28  C   UNL d   1      45.259 -15.683  37.194  0.00  0.00     0.039 A 
ATOM     29  C   UNL d   1      45.936 -15.769  36.746  0.00  0.00     0.003 A 
ATOM     30  C   UNL d   1      46.386 -15.114  36.534  0.00  0.00     0.000 A 
ATOM     31  C   UNL d   1      46.148 -14.360  36.778  0.00  0.00     0.000 A 
ATOM     32  C   UNL d   1      45.464 -14.269  37.231  0.00  0.00     0.000 A 
ATOM     33  C   UNL d   1      45.021 -14.929  37.438  0.00  0.00     0.003 A 
ENDBRANCH  26  28
ENDBRANCH  23  26
ENDBRANCH   2  20
TORSDOF 5
ENDMDL
