MODEL 1
REMARK VINA RESULT:      55.2      0.000      0.000
REMARK  5 active torsions:
REMARK  status: ('A' for Active; 'I' for Inactive)
REMARK    1  A    between atoms: C_4  and  C_1 
REMARK    2  A    between atoms: C_3  and  N_8 
REMARK       I    between atoms: N_8  and  C_4 
REMARK    3  A    between atoms: C_13  and  C_6 
REMARK    4  A    between atoms: C_14  and  C_10 
REMARK    5  A    between atoms: C_20  and  C_14 
ROOT
ATOM      1  C   UNL d   1     -54.835-101.468 -40.940  0.00  0.00     0.083 A 
ATOM      2  C   UNL d   1     -54.769-100.759 -41.370  0.00  0.00     0.032 A 
ATOM      3  C   UNL d   1     -54.843-100.939 -42.166  0.00  0.00     0.100 A 
ATOM      4  C   UNL d   1     -54.951-102.080 -41.492  0.00  0.00     0.105 A 
ATOM      5  O   UNL d   1     -54.955-101.746 -42.247  0.00  0.00    -0.307 OA
ATOM      6  C   UNL d   1     -55.044-102.878 -41.302  0.00  0.00     0.027 C 
ENDROOT
BRANCH   1   7
ATOM      7  C   UNL d   1     -54.794-101.553 -40.119  0.00  0.00     0.283 C 
ATOM      8  N   UNL d   1     -54.829-100.894 -39.637  0.00  0.00    -0.181 NA
ATOM      9  O   UNL d   1     -54.717-102.307 -39.797  0.00  0.00    -0.265 OA
BRANCH   8  10
ATOM     10  C   UNL d   1     -54.787-100.982 -38.819  0.00  0.00     0.216 A 
ATOM     11  N   UNL d   1     -54.779-100.375 -38.275  0.00  0.00    -0.200 NA
ATOM     12  C   UNL d   1     -54.734-100.703 -37.527  0.00  0.00     0.175 A 
ATOM     13  N   UNL d   1     -54.714-101.523 -37.615  0.00  0.00    -0.187 NA
ATOM     14  S   UNL d   1     -54.747-101.689 -38.414  0.00  0.00     0.054 SA
BRANCH  12  15
ATOM     15  C   UNL d   1     -54.713-100.297 -36.820  0.00  0.00     0.082 C 
BRANCH  15  16
ATOM     16  C   UNL d   1     -54.788-100.708 -36.110  0.00  0.00     0.199 C 
ATOM     17  O   UNL d   1     -54.895-101.523 -36.111  0.00  0.00    -0.286 OA
ATOM     18  C   UNL d   1     -54.756-100.302 -35.397  0.00  0.00     0.045 C 
ENDBRANCH  15  16
ENDBRANCH  12  15
ENDBRANCH   8  10
ENDBRANCH   1   7
BRANCH   3  19
ATOM     19  C   UNL d   1     -54.811-100.400 -42.782  0.00  0.00     0.024 A 
ATOM     20  C   UNL d   1     -54.802-100.670 -43.565  0.00  0.00     0.014 A 
ATOM     21  C   UNL d   1     -54.769-100.121 -44.184  0.00  0.00     0.068 A 
ATOM     22 CL   UNL d   1     -54.760-100.392 -44.961  0.00  0.00    -0.082 Cl
ATOM     23  C   UNL d   1     -54.747 -99.310 -44.028  0.00  0.00     0.068 A 
ATOM     24  C   UNL d   1     -54.756 -99.039 -43.250  0.00  0.00     0.012 A 
ATOM     25 CL   UNL d   1     -54.714 -98.769 -44.657  0.00  0.00    -0.082 Cl
ATOM     26  C   UNL d   1     -54.788 -99.580 -42.624  0.00  0.00     0.003 A 
ENDBRANCH   3  19
TORSDOF 5
ENDMDL
