MODEL 1
REMARK VINA RESULT:      -4.5      0.000      0.000
REMARK  6 active torsions:
REMARK  status: ('A' for Active; 'I' for Inactive)
REMARK    1  A    between atoms: C_7  and  C_4 
REMARK    2  A    between atoms: O_17  and  C_6 
REMARK    3  A    between atoms: C_8  and  C_7 
REMARK    4  A    between atoms: C_12  and  C_8 
REMARK    5  A    between atoms: O_21  and  C_11 
REMARK    6  A    between atoms: O_22  and  C_18 
ROOT
ATOM      1  C   UNL d   1     -42.524-123.214 -49.518  0.00  0.00     0.090 A 
ATOM      2  C   UNL d   1     -43.148-123.017 -50.015  0.00  0.00     0.302 A 
ATOM      3  O   UNL d   1     -42.802-122.871 -50.713  0.00  0.00    -0.273 OA
ATOM      4  C   UNL d   1     -42.023-122.968 -50.665  0.00  0.00     0.107 A 
ATOM      5  C   UNL d   1     -41.829-123.185 -49.917  0.00  0.00     0.030 A 
ATOM      6  C   UNL d   1     -42.532-123.428 -48.700  0.00  0.00     0.121 A 
ATOM      7  C   UNL d   1     -41.123-123.359 -49.543  0.00  0.00     0.004 A 
ATOM      8  O   UNL d   1     -43.979-122.980 -49.817  0.00  0.00    -0.259 OA
ATOM      9  C   UNL d   1     -41.810-123.603 -48.330  0.00  0.00     0.117 A 
ATOM     10  C   UNL d   1     -41.130-123.567 -48.744  0.00  0.00     0.026 A 
ENDROOT
BRANCH   4  11
ATOM     11  C   UNL d   1     -41.477-122.861 -51.297  0.00  0.00     0.067 C 
BRANCH  11  12
ATOM     12  C   UNL d   1     -41.504-122.248 -51.855  0.00  0.00     0.198 C 
ATOM     13  O   UNL d   1     -41.531-121.450 -51.516  0.00  0.00    -0.286 OA
BRANCH  12  14
ATOM     14  C   UNL d   1     -41.507-122.338 -52.613  0.00  0.00     0.039 A 
ATOM     15  C   UNL d   1     -41.888-121.802 -53.057  0.00  0.00     0.005 A 
ATOM     16  C   UNL d   1     -41.892-121.899 -53.888  0.00  0.00     0.024 A 
ATOM     17  C   UNL d   1     -41.517-122.533 -54.311  0.00  0.00     0.094 A 
ATOM     18  C   UNL d   1     -41.124-123.081 -53.802  0.00  0.00     0.024 A 
ATOM     19  C   UNL d   1     -41.141-122.958 -53.026  0.00  0.00     0.005 A 
BRANCH  17  20
ATOM     20  O   UNL d   1     -41.533-122.611 -55.122  0.00  0.00    -0.328 OA
ATOM     21  C   UNL d   1     -42.241-122.269 -55.682  0.00  0.00     0.181 C 
ENDBRANCH  17  20
ENDBRANCH  12  14
ENDBRANCH  11  12
ENDBRANCH   4  11
BRANCH   6  22
ATOM     22  O   UNL d   1     -43.218-123.468 -48.268  0.00  0.00    -0.326 OA
ATOM     23  C   UNL d   1     -43.227-123.223 -47.516  0.00  0.00     0.181 C 
ENDBRANCH   6  22
BRANCH   9  24
ATOM     24  O   UNL d   1     -41.756-123.817 -47.533  0.00  0.00    -0.326 OA
ATOM     25  C   UNL d   1     -41.186-123.503 -47.056  0.00  0.00     0.181 C 
ENDBRANCH   9  24
TORSDOF 6
ENDMDL
MODEL 2
REMARK VINA RESULT:      -3.2      0.768      5.177
REMARK  6 active torsions:
REMARK  status: ('A' for Active; 'I' for Inactive)
REMARK    1  A    between atoms: C_7  and  C_4 
REMARK    2  A    between atoms: O_17  and  C_6 
REMARK    3  A    between atoms: C_8  and  C_7 
REMARK    4  A    between atoms: C_12  and  C_8 
REMARK    5  A    between atoms: O_21  and  C_11 
REMARK    6  A    between atoms: O_22  and  C_18 
ROOT
ATOM      1  C   UNL d   1     -41.411-122.250 -53.124  0.00  0.00     0.090 A 
ATOM      2  C   UNL d   1     -41.473-121.509 -52.775  0.00  0.00     0.302 A 
ATOM      3  O   UNL d   1     -41.480-121.660 -51.998  0.00  0.00    -0.273 OA
ATOM      4  C   UNL d   1     -41.426-122.432 -51.861  0.00  0.00     0.107 A 
ATOM      5  C   UNL d   1     -41.381-122.821 -52.562  0.00  0.00     0.030 A 
ATOM      6  C   UNL d   1     -41.376-122.461 -53.943  0.00  0.00     0.121 A 
ATOM      7  C   UNL d   1     -41.318-123.611 -52.769  0.00  0.00     0.004 A 
ATOM      8  O   UNL d   1     -41.520-120.751 -53.170  0.00  0.00    -0.259 OA
ATOM      9  C   UNL d   1     -41.312-123.264 -54.141  0.00  0.00     0.117 A 
ATOM     10  C   UNL d   1     -41.284-123.817 -53.567  0.00  0.00     0.026 A 
ENDROOT
BRANCH   4  11
ATOM     11  C   UNL d   1     -41.417-122.796 -51.102  0.00  0.00     0.067 C 
BRANCH  11  12
ATOM     12  C   UNL d   1     -41.960-122.648 -50.494  0.00  0.00     0.198 C 
ATOM     13  O   UNL d   1     -42.622-122.133 -50.716  0.00  0.00    -0.286 OA
BRANCH  12  14
ATOM     14  C   UNL d   1     -41.915-122.924 -49.783  0.00  0.00     0.039 A 
ATOM     15  C   UNL d   1     -42.424-122.650 -49.239  0.00  0.00     0.005 A 
ATOM     16  C   UNL d   1     -42.377-122.951 -48.459  0.00  0.00     0.024 A 
ATOM     17  C   UNL d   1     -41.823-123.536 -48.190  0.00  0.00     0.094 A 
ATOM     18  C   UNL d   1     -41.301-123.799 -48.800  0.00  0.00     0.024 A 
ATOM     19  C   UNL d   1     -41.374-123.494 -49.520  0.00  0.00     0.005 A 
BRANCH  17  20
ATOM     20  O   UNL d   1     -41.793-123.816 -47.425  0.00  0.00    -0.328 OA
ATOM     21  C   UNL d   1     -41.305-123.386 -46.712  0.00  0.00     0.181 C 
ENDBRANCH  17  20
ENDBRANCH  12  14
ENDBRANCH  11  12
ENDBRANCH   4  11
BRANCH   6  22
ATOM     22  O   UNL d   1     -41.404-121.907 -54.536  0.00  0.00    -0.326 OA
ATOM     23  C   UNL d   1     -42.033-121.870 -55.014  0.00  0.00     0.181 C 
ENDBRANCH   6  22
BRANCH   9  24
ATOM     24  O   UNL d   1     -41.275-123.531 -54.924  0.00  0.00    -0.326 OA
ATOM     25  C   UNL d   1     -41.940-123.768 -55.313  0.00  0.00     0.181 C 
ENDBRANCH   9  24
TORSDOF 6
ENDMDL
