MODEL 1
REMARK VINA RESULT:      37.0      0.000      0.000
REMARK  5 active torsions:
REMARK  status: ('A' for Active; 'I' for Inactive)
REMARK    1  A    between atoms: C_3  and  C_1 
REMARK       I    between atoms: N_4  and  C_1 
REMARK    2  A    between atoms: C_9  and  N_4 
REMARK    3  A    between atoms: C_5  and  O_6 
REMARK    4  A    between atoms: O_6  and  C_10 
REMARK    5  A    between atoms: C_10  and  C_9 
ROOT
ATOM      1  C   UNL d   1     -51.680  25.530  33.357  0.00  0.00     0.279 C 
ATOM      2  O   UNL d   1     -52.227  26.146  33.306  0.00  0.00    -0.265 OA
ATOM      3  N   UNL d   1     -50.874  25.699  33.418  0.00  0.00    -0.204 NA
ENDROOT
BRANCH   3   4
ATOM      4  C   UNL d   1     -50.615  26.482  33.429  0.00  0.00     0.129 C 
BRANCH   4   5
ATOM      5  C   UNL d   1     -50.079  26.733  34.004  0.00  0.00     0.143 C 
BRANCH   5   6
ATOM      6  O   UNL d   1     -49.557  27.351  33.842  0.00  0.00    -0.303 OA
BRANCH   6   7
ATOM      7  C   UNL d   1     -49.209  27.788  34.464  0.00  0.00     0.100 A 
ATOM      8  C   UNL d   1     -48.636  28.356  34.291  0.00  0.00     0.025 A 
ATOM      9  C   UNL d   1     -48.289  28.789  34.892  0.00  0.00     0.002 A 
ATOM     10  C   UNL d   1     -48.515  28.654  35.671  0.00  0.00     0.000 A 
ATOM     11  C   UNL d   1     -49.088  28.086  35.844  0.00  0.00     0.002 A 
ATOM     12  C   UNL d   1     -49.435  27.653  35.238  0.00  0.00     0.025 A 
ENDBRANCH   6   7
ENDBRANCH   5   6
ENDBRANCH   4   5
ENDBRANCH   3   4
BRANCH   1  13
ATOM     13  C   UNL d   1     -51.936  24.750  33.347  0.00  0.00     0.058 A 
ATOM     14  C   UNL d   1     -52.737  24.587  33.364  0.00  0.00     0.005 A 
ATOM     15  C   UNL d   1     -52.996  23.804  33.354  0.00  0.00     0.000 A 
ATOM     16  C   UNL d   1     -52.447  23.188  33.327  0.00  0.00     0.000 A 
ATOM     17  C   UNL d   1     -51.639  23.356  33.309  0.00  0.00     0.000 A 
ATOM     18  C   UNL d   1     -51.387  24.134  33.319  0.00  0.00     0.005 A 
ENDBRANCH   1  13
TORSDOF 5
ENDMDL
MODEL 2
REMARK VINA RESULT:      37.3      1.329      2.142
REMARK  5 active torsions:
REMARK  status: ('A' for Active; 'I' for Inactive)
REMARK    1  A    between atoms: C_3  and  C_1 
REMARK       I    between atoms: N_4  and  C_1 
REMARK    2  A    between atoms: C_9  and  N_4 
REMARK    3  A    between atoms: C_5  and  O_6 
REMARK    4  A    between atoms: O_6  and  C_10 
REMARK    5  A    between atoms: C_10  and  C_9 
ROOT
ATOM      1  C   UNL d   1     -49.864  26.394  33.574  0.00  0.00     0.279 C 
ATOM      2  O   UNL d   1     -49.197  25.985  33.314  0.00  0.00    -0.265 OA
ATOM      3  N   UNL d   1     -49.783  27.140  33.918  0.00  0.00    -0.204 NA
ENDROOT
BRANCH   3   4
ATOM      4  C   UNL d   1     -49.034  27.477  34.002  0.00  0.00     0.129 C 
BRANCH   4   5
ATOM      5  C   UNL d   1     -48.941  28.178  34.427  0.00  0.00     0.143 C 
BRANCH   5   6
ATOM      6  O   UNL d   1     -48.409  28.213  35.056  0.00  0.00    -0.303 OA
BRANCH   6   7
ATOM      7  C   UNL d   1     -48.038  28.935  35.259  0.00  0.00     0.100 A 
ATOM      8  C   UNL d   1     -48.088  29.577  34.744  0.00  0.00     0.025 A 
ATOM      9  C   UNL d   1     -47.729  30.288  34.933  0.00  0.00     0.002 A 
ATOM     10  C   UNL d   1     -47.317  30.358  35.641  0.00  0.00     0.000 A 
ATOM     11  C   UNL d   1     -47.266  29.715  36.156  0.00  0.00     0.002 A 
ATOM     12  C   UNL d   1     -47.628  29.003  35.963  0.00  0.00     0.025 A 
ENDBRANCH   6   7
ENDBRANCH   5   6
ENDBRANCH   4   5
ENDBRANCH   3   4
BRANCH   1  13
ATOM     13  C   UNL d   1     -50.611  26.060  33.492  0.00  0.00     0.058 A 
ATOM     14  C   UNL d   1     -50.683  25.252  33.390  0.00  0.00     0.005 A 
ATOM     15  C   UNL d   1     -51.432  24.915  33.307  0.00  0.00     0.000 A 
ATOM     16  C   UNL d   1     -52.103  25.394  33.327  0.00  0.00     0.000 A 
ATOM     17  C   UNL d   1     -52.027  26.209  33.430  0.00  0.00     0.000 A 
ATOM     18  C   UNL d   1     -51.283  26.539  33.512  0.00  0.00     0.005 A 
ENDBRANCH   1  13
TORSDOF 5
ENDMDL
