MODEL 1
REMARK VINA RESULT:      -3.2      0.000      0.000
REMARK  5 active torsions:
REMARK  status: ('A' for Active; 'I' for Inactive)
REMARK    1  A    between atoms: N_2  and  S_1 
REMARK    2  A    between atoms: C_6  and  S_1 
REMARK    3  A    between atoms: C_3  and  N_2 
REMARK    4  A    between atoms: N_7  and  C_3 
REMARK    5  A    between atoms: C_9  and  N_7 
ROOT
ATOM      1  N   UNL d   1      32.545  20.841 -21.497  0.00  0.00    -0.128 NA
ENDROOT
BRANCH   1   2
ATOM      2  S   UNL d   1      32.520  21.558 -21.079  0.00  0.00     0.287 S 
ATOM      3  O   UNL d   1      31.804  21.331 -20.713  0.00  0.00    -0.198 OA
ATOM      4  O   UNL d   1      33.230  21.800 -21.433  0.00  0.00    -0.198 OA
BRANCH   2   5
ATOM      5  C   UNL d   1      32.494  22.279 -20.659  0.00  0.00     0.105 A 
ATOM      6  C   UNL d   1      33.016  22.409 -20.021  0.00  0.00     0.013 A 
ATOM      7  C   UNL d   1      32.991  23.119 -19.607  0.00  0.00     0.001 A 
ATOM      8  C   UNL d   1      32.451  23.702 -19.822  0.00  0.00     0.000 A 
ATOM      9  C   UNL d   1      31.931  23.578 -20.456  0.00  0.00     0.001 A 
ATOM     10  C   UNL d   1      31.956  22.866 -20.871  0.00  0.00     0.013 A 
ENDBRANCH   2   5
ENDBRANCH   1   2
BRANCH   1  11
ATOM     11  C   UNL d   1      32.982  20.191 -21.791  0.00  0.00     0.232 C 
ATOM     12  S   UNL d   1      33.241  19.605 -21.271  0.00  0.00    -0.036 SA
BRANCH  11  13
ATOM     13  N   UNL d   1      33.152  20.142 -22.598  0.00  0.00    -0.217 NA
BRANCH  13  14
ATOM     14  C   UNL d   1      32.989  19.445 -23.012  0.00  0.00     0.084 A 
ATOM     15  C   UNL d   1      33.075  18.717 -22.640  0.00  0.00     0.019 A 
ATOM     16  C   UNL d   1      32.914  18.025 -23.049  0.00  0.00     0.002 A 
ATOM     17  C   UNL d   1      32.666  18.053 -23.832  0.00  0.00     0.000 A 
ATOM     18  C   UNL d   1      32.579  18.784 -24.208  0.00  0.00     0.002 A 
ATOM     19  C   UNL d   1      32.740  19.482 -23.799  0.00  0.00     0.019 A 
ENDBRANCH  13  14
ENDBRANCH  11  13
ENDBRANCH   1  11
TORSDOF 5
ENDMDL
MODEL 2
REMARK VINA RESULT:      -3.1      0.917      4.547
REMARK  5 active torsions:
REMARK  status: ('A' for Active; 'I' for Inactive)
REMARK    1  A    between atoms: N_2  and  S_1 
REMARK    2  A    between atoms: C_6  and  S_1 
REMARK    3  A    between atoms: C_3  and  N_2 
REMARK    4  A    between atoms: N_7  and  C_3 
REMARK    5  A    between atoms: C_9  and  N_7 
ROOT
ATOM      1  N   UNL d   1      33.077  20.831 -21.705  0.00  0.00    -0.128 NA
ENDROOT
BRANCH   1   2
ATOM      2  S   UNL d   1      33.081  20.153 -22.183  0.00  0.00     0.287 S 
ATOM      3  O   UNL d   1      32.923  19.671 -21.520  0.00  0.00    -0.198 OA
ATOM      4  O   UNL d   1      33.239  20.615 -22.854  0.00  0.00    -0.198 OA
BRANCH   2   5
ATOM      5  C   UNL d   1      33.085  19.471 -22.665  0.00  0.00     0.105 A 
ATOM      6  C   UNL d   1      32.940  19.537 -23.483  0.00  0.00     0.013 A 
ATOM      7  C   UNL d   1      32.944  18.865 -23.958  0.00  0.00     0.001 A 
ATOM      8  C   UNL d   1      33.091  18.127 -23.626  0.00  0.00     0.000 A 
ATOM      9  C   UNL d   1      33.237  18.055 -22.813  0.00  0.00     0.001 A 
ATOM     10  C   UNL d   1      33.233  18.729 -22.337  0.00  0.00     0.013 A 
ENDBRANCH   2   5
ENDBRANCH   1   2
BRANCH   1  11
ATOM     11  C   UNL d   1      32.847  21.625 -21.579  0.00  0.00     0.232 C 
ATOM     12  S   UNL d   1      33.156  22.220 -22.060  0.00  0.00    -0.036 SA
BRANCH  11  13
ATOM     13  N   UNL d   1      32.313  21.807 -20.976  0.00  0.00    -0.217 NA
BRANCH  13  14
ATOM     14  C   UNL d   1      32.506  22.380 -20.412  0.00  0.00     0.084 A 
ATOM     15  C   UNL d   1      33.046  22.204 -19.817  0.00  0.00     0.019 A 
ATOM     16  C   UNL d   1      33.238  22.771 -19.257  0.00  0.00     0.002 A 
ATOM     17  C   UNL d   1      32.895  23.518 -19.286  0.00  0.00     0.000 A 
ATOM     18  C   UNL d   1      32.353  23.696 -19.883  0.00  0.00     0.002 A 
ATOM     19  C   UNL d   1      32.156  23.128 -20.448  0.00  0.00     0.019 A 
ENDBRANCH  13  14
ENDBRANCH  11  13
ENDBRANCH   1  11
TORSDOF 5
ENDMDL
MODEL 3
REMARK VINA RESULT:      -3.1      1.284      1.838
REMARK  5 active torsions:
REMARK  status: ('A' for Active; 'I' for Inactive)
REMARK    1  A    between atoms: N_2  and  S_1 
REMARK    2  A    between atoms: C_6  and  S_1 
REMARK    3  A    between atoms: C_3  and  N_2 
REMARK    4  A    between atoms: N_7  and  C_3 
REMARK    5  A    between atoms: C_9  and  N_7 
ROOT
ATOM      1  N   UNL d   1      33.103  19.712 -22.417  0.00  0.00    -0.128 NA
ENDROOT
BRANCH   1   2
ATOM      2  S   UNL d   1      32.965  20.443 -22.050  0.00  0.00     0.287 S 
ATOM      3  O   UNL d   1      32.685  20.057 -21.364  0.00  0.00    -0.198 OA
ATOM      4  O   UNL d   1      33.240  20.845 -22.722  0.00  0.00    -0.198 OA
BRANCH   2   5
ATOM      5  C   UNL d   1      32.826  21.179 -21.680  0.00  0.00     0.105 A 
ATOM      6  C   UNL d   1      32.392  21.212 -20.968  0.00  0.00     0.013 A 
ATOM      7  C   UNL d   1      32.255  21.937 -20.604  0.00  0.00     0.001 A 
ATOM      8  C   UNL d   1      32.546  22.629 -20.941  0.00  0.00     0.000 A 
ATOM      9  C   UNL d   1      32.978  22.601 -21.648  0.00  0.00     0.001 A 
ATOM     10  C   UNL d   1      33.115  21.875 -22.013  0.00  0.00     0.013 A 
ENDBRANCH   2   5
ENDBRANCH   1   2
BRANCH   1  11
ATOM     11  C   UNL d   1      32.932  19.167 -23.028  0.00  0.00     0.232 C 
ATOM     12  S   UNL d   1      33.239  19.293 -23.784  0.00  0.00    -0.036 SA
BRANCH  11  13
ATOM     13  N   UNL d   1      32.458  18.510 -22.871  0.00  0.00    -0.217 NA
BRANCH  13  14
ATOM     14  C   UNL d   1      32.554  17.816 -23.311  0.00  0.00     0.084 A 
ATOM     15  C   UNL d   1      32.065  17.668 -23.955  0.00  0.00     0.019 A 
ATOM     16  C   UNL d   1      32.159  16.981 -24.393  0.00  0.00     0.002 A 
ATOM     17  C   UNL d   1      32.741  16.437 -24.192  0.00  0.00     0.000 A 
ATOM     18  C   UNL d   1      33.233  16.584 -23.545  0.00  0.00     0.002 A 
ATOM     19  C   UNL d   1      33.142  17.273 -23.102  0.00  0.00     0.019 A 
ENDBRANCH  13  14
ENDBRANCH  11  13
ENDBRANCH   1  11
TORSDOF 5
ENDMDL
MODEL 4
REMARK VINA RESULT:      -2.7      3.748      5.181
REMARK  5 active torsions:
REMARK  status: ('A' for Active; 'I' for Inactive)
REMARK    1  A    between atoms: N_2  and  S_1 
REMARK    2  A    between atoms: C_6  and  S_1 
REMARK    3  A    between atoms: C_3  and  N_2 
REMARK    4  A    between atoms: N_7  and  C_3 
REMARK    5  A    between atoms: C_9  and  N_7 
ROOT
ATOM      1  N   UNL d   1      31.136  17.025 -24.037  0.00  0.00    -0.128 NA
ENDROOT
BRANCH   1   2
ATOM      2  S   UNL d   1      31.663  17.656 -23.926  0.00  0.00     0.287 S 
ATOM      3  O   UNL d   1      32.152  17.177 -23.448  0.00  0.00    -0.198 OA
ATOM      4  O   UNL d   1      31.189  18.148 -24.397  0.00  0.00    -0.198 OA
BRANCH   2   5
ATOM      5  C   UNL d   1      32.193  18.292 -23.814  0.00  0.00     0.105 A 
ATOM      6  C   UNL d   1      32.383  18.545 -23.043  0.00  0.00     0.013 A 
ATOM      7  C   UNL d   1      32.905  19.172 -22.932  0.00  0.00     0.001 A 
ATOM      8  C   UNL d   1      33.241  19.548 -23.582  0.00  0.00     0.000 A 
ATOM      9  C   UNL d   1      33.055  19.299 -24.352  0.00  0.00     0.001 A 
ATOM     10  C   UNL d   1      32.531  18.672 -24.462  0.00  0.00     0.013 A 
ENDBRANCH   2   5
ENDBRANCH   1   2
BRANCH   1  11
ATOM     11  C   UNL d   1      31.001  16.205 -24.130  0.00  0.00     0.232 C 
ATOM     12  S   UNL d   1      31.297  15.815 -24.794  0.00  0.00    -0.036 SA
BRANCH  11  13
ATOM     13  N   UNL d   1      30.574  15.792 -23.556  0.00  0.00    -0.217 NA
BRANCH  13  14
ATOM     14  C   UNL d   1      29.758  15.691 -23.642  0.00  0.00     0.084 A 
ATOM     15  C   UNL d   1      29.267  15.730 -22.982  0.00  0.00     0.019 A 
ATOM     16  C   UNL d   1      28.458  15.631 -23.066  0.00  0.00     0.002 A 
ATOM     17  C   UNL d   1      28.130  15.492 -23.807  0.00  0.00     0.000 A 
ATOM     18  C   UNL d   1      28.621  15.453 -24.470  0.00  0.00     0.002 A 
ATOM     19  C   UNL d   1      29.436  15.552 -24.390  0.00  0.00     0.019 A 
ENDBRANCH  13  14
ENDBRANCH  11  13
ENDBRANCH   1  11
TORSDOF 5
ENDMDL
MODEL 5
REMARK VINA RESULT:      -1.9      3.552      5.836
REMARK  5 active torsions:
REMARK  status: ('A' for Active; 'I' for Inactive)
REMARK    1  A    between atoms: N_2  and  S_1 
REMARK    2  A    between atoms: C_6  and  S_1 
REMARK    3  A    between atoms: C_3  and  N_2 
REMARK    4  A    between atoms: N_7  and  C_3 
REMARK    5  A    between atoms: C_9  and  N_7 
ROOT
ATOM      1  N   UNL d   1      31.811  17.130 -24.551  0.00  0.00    -0.128 NA
ENDROOT
BRANCH   1   2
ATOM      2  S   UNL d   1      31.073  16.752 -24.517  0.00  0.00     0.287 S 
ATOM      3  O   UNL d   1      30.693  17.450 -24.775  0.00  0.00    -0.198 OA
ATOM      4  O   UNL d   1      31.433  16.050 -24.260  0.00  0.00    -0.198 OA
BRANCH   2   5
ATOM      5  C   UNL d   1      30.330  16.372 -24.483  0.00  0.00     0.105 A 
ATOM      6  C   UNL d   1      30.096  15.859 -25.097  0.00  0.00     0.013 A 
ATOM      7  C   UNL d   1      29.364  15.484 -25.063  0.00  0.00     0.001 A 
ATOM      8  C   UNL d   1      28.863  15.616 -24.425  0.00  0.00     0.000 A 
ATOM      9  C   UNL d   1      29.091  16.126 -23.812  0.00  0.00     0.001 A 
ATOM     10  C   UNL d   1      29.825  16.502 -23.845  0.00  0.00     0.013 A 
ENDBRANCH   2   5
ENDBRANCH   1   2
BRANCH   1  11
ATOM     11  C   UNL d   1      32.262  17.834 -24.566  0.00  0.00     0.232 C 
ATOM     12  S   UNL d   1      32.008  18.471 -25.026  0.00  0.00    -0.036 SA
BRANCH  11  13
ATOM     13  N   UNL d   1      32.957  17.887 -24.122  0.00  0.00    -0.217 NA
BRANCH  13  14
ATOM     14  C   UNL d   1      33.052  18.499 -23.575  0.00  0.00     0.084 A 
ATOM     15  C   UNL d   1      33.061  18.332 -22.770  0.00  0.00     0.019 A 
ATOM     16  C   UNL d   1      33.155  18.938 -22.226  0.00  0.00     0.002 A 
ATOM     17  C   UNL d   1      33.240  19.715 -22.480  0.00  0.00     0.000 A 
ATOM     18  C   UNL d   1      33.231  19.885 -23.288  0.00  0.00     0.002 A 
ATOM     19  C   UNL d   1      33.137  19.278 -23.838  0.00  0.00     0.019 A 
ENDBRANCH  13  14
ENDBRANCH  11  13
ENDBRANCH   1  11
TORSDOF 5
ENDMDL
