MODEL 1
REMARK VINA RESULT:      54.5      0.000      0.000
REMARK  3 active torsions:
REMARK  status: ('A' for Active; 'I' for Inactive)
REMARK    1  A    between atoms: C_9  and  C_2 
REMARK    2  A    between atoms: C_10  and  C_6 
REMARK    3  A    between atoms: O_18  and  C_9 
ROOT
ATOM      1  C   UNL d   1     -57.814 -98.809 -43.905  0.00  0.00     0.044 A 
ATOM      2  C   UNL d   1     -58.549 -98.826 -42.775  0.00  0.00     0.113 A 
ATOM      3  C   UNL d   1     -58.592 -98.818 -43.599  0.00  0.00     0.116 A 
ATOM      4  C   UNL d   1     -57.288 -98.810 -43.259  0.00  0.00     0.112 A 
ATOM      5  S   UNL d   1     -57.745 -98.821 -42.559  0.00  0.00    -0.061 SA
ATOM      6  C   UNL d   1     -57.518 -98.799 -44.668  0.00  0.00     0.011 A 
ATOM      7  N   UNL d   1     -56.487 -98.802 -43.390  0.00  0.00    -0.239 NA
ATOM      8  C   UNL d   1     -56.711 -98.791 -44.793  0.00  0.00     0.018 A 
ATOM      9  C   UNL d   1     -56.195 -98.792 -44.160  0.00  0.00     0.082 A 
ATOM     10  N   UNL d   1     -59.284 -98.820 -44.047  0.00  0.00    -0.147 N 
ATOM     11  C   UNL d   1     -56.425 -98.781 -45.569  0.00  0.00     0.002 A 
ATOM     12  C   UNL d   1     -55.383 -98.784 -44.290  0.00  0.00     0.019 A 
ATOM     13  C   UNL d   1     -55.610 -98.772 -45.690  0.00  0.00     0.000 A 
ATOM     14  C   UNL d   1     -55.089 -98.774 -45.050  0.00  0.00     0.002 A 
ENDROOT
BRANCH   6  15
ATOM     15  C   UNL d   1     -58.045 -98.797 -45.302  0.00  0.00     0.030 A 
ATOM     16  S   UNL d   1     -58.869 -98.756 -45.260  0.00  0.00    -0.086 SA
ATOM     17  C   UNL d   1     -59.160 -98.771 -46.033  0.00  0.00     0.035 A 
ATOM     18  C   UNL d   1     -58.522 -98.821 -46.553  0.00  0.00     0.007 A 
ATOM     19  C   UNL d   1     -57.831 -98.837 -46.101  0.00  0.00     0.007 A 
ENDBRANCH   6  15
BRANCH   2  20
ATOM     20  C   UNL d   1     -59.189 -98.837 -42.254  0.00  0.00     0.303 C 
ATOM     21  O   UNL d   1     -59.958 -98.825 -42.545  0.00  0.00    -0.259 OA
BRANCH  20  22
ATOM     22  O   UNL d   1     -59.052 -98.858 -41.446  0.00  0.00    -0.295 OA
ATOM     23  C   UNL d   1     -59.691 -98.846 -40.924  0.00  0.00     0.185 C 
ENDBRANCH  20  22
ENDBRANCH   2  20
TORSDOF 3
ENDMDL
