MODEL 1
REMARK VINA RESULT:      17.5      0.000      0.000
REMARK  4 active torsions:
REMARK  status: ('A' for Active; 'I' for Inactive)
REMARK    1  A    between atoms: C_3  and  C_1 
REMARK    2  A    between atoms: C_4  and  C_1 
REMARK    3  A    between atoms: C_2  and  C_3 
REMARK    4  A    between atoms: C_6  and  C_4 
ROOT
ATOM      1  C   UNL d   1     -51.360  24.034  33.471  0.00  0.00     0.196 C 
ATOM      2  O   UNL d   1     -50.915  23.370  33.680  0.00  0.00    -0.287 OA
ENDROOT
BRANCH   1   3
ATOM      3  C   UNL d   1     -50.979  24.748  33.306  0.00  0.00     0.044 C 
BRANCH   3   4
ATOM      4  C   UNL d   1     -50.467  25.238  33.722  0.00  0.00     0.028 C 
BRANCH   4   5
ATOM      5  C   UNL d   1     -50.173  26.001  33.606  0.00  0.00     0.100 A 
ATOM      6  O   UNL d   1     -49.429  26.257  33.349  0.00  0.00    -0.305 OA
ATOM      7  C   UNL d   1     -49.427  27.079  33.329  0.00  0.00     0.123 A 
ATOM      8  C   UNL d   1     -50.180  27.340  33.578  0.00  0.00     0.029 A 
ATOM      9  C   UNL d   1     -50.643  26.680  33.749  0.00  0.00     0.027 A 
ENDBRANCH   4   5
ENDBRANCH   3   4
ENDBRANCH   1   3
BRANCH   1  10
ATOM     10  C   UNL d   1     -52.183  23.973  33.430  0.00  0.00     0.039 A 
ATOM     11  C   UNL d   1     -52.552  23.236  33.396  0.00  0.00     0.006 A 
ATOM     12  C   UNL d   1     -53.375  23.190  33.355  0.00  0.00     0.042 A 
ATOM     13  C   UNL d   1     -53.829  23.881  33.348  0.00  0.00     0.196 A 
ATOM     14  C   UNL d   1     -53.452  24.623  33.382  0.00  0.00     0.042 A 
ATOM     15  O   UNL d   1     -54.651  23.835  33.307  0.00  0.00    -0.287 OA
ATOM     16  C   UNL d   1     -52.637  24.664  33.422  0.00  0.00     0.006 A 
ENDBRANCH   1  10
TORSDOF 4
ENDMDL
MODEL 2
REMARK VINA RESULT:      17.8      0.934      3.703
REMARK  4 active torsions:
REMARK  status: ('A' for Active; 'I' for Inactive)
REMARK    1  A    between atoms: C_3  and  C_1 
REMARK    2  A    between atoms: C_4  and  C_1 
REMARK    3  A    between atoms: C_2  and  C_3 
REMARK    4  A    between atoms: C_6  and  C_4 
ROOT
ATOM      1  C   UNL d   1     -50.803  24.250  33.346  0.00  0.00     0.196 C 
ATOM      2  O   UNL d   1     -50.064  23.881  33.310  0.00  0.00    -0.287 OA
ENDROOT
BRANCH   1   3
ATOM      3  C   UNL d   1     -51.488  23.792  33.388  0.00  0.00     0.044 C 
BRANCH   3   4
ATOM      4  C   UNL d   1     -52.292  23.947  33.307  0.00  0.00     0.028 C 
BRANCH   4   5
ATOM      5  C   UNL d   1     -52.976  23.664  33.671  0.00  0.00     0.100 A 
ATOM      6  O   UNL d   1     -53.735  23.536  33.366  0.00  0.00    -0.305 OA
ATOM      7  C   UNL d   1     -54.214  23.247  33.969  0.00  0.00     0.123 A 
ATOM      8  C   UNL d   1     -53.748  23.194  34.660  0.00  0.00     0.029 A 
ATOM      9  C   UNL d   1     -52.986  23.450  34.482  0.00  0.00     0.027 A 
ENDBRANCH   4   5
ENDBRANCH   3   4
ENDBRANCH   1   3
BRANCH   1  10
ATOM     10  C   UNL d   1     -50.844  25.075  33.339  0.00  0.00     0.039 A 
ATOM     11  C   UNL d   1     -51.572  25.464  33.349  0.00  0.00     0.006 A 
ATOM     12  C   UNL d   1     -51.598  26.288  33.342  0.00  0.00     0.042 A 
ATOM     13  C   UNL d   1     -50.896  26.725  33.325  0.00  0.00     0.196 A 
ATOM     14  C   UNL d   1     -50.163  26.329  33.316  0.00  0.00     0.042 A 
ATOM     15  O   UNL d   1     -50.922  27.549  33.319  0.00  0.00    -0.287 OA
ATOM     16  C   UNL d   1     -50.142  25.512  33.323  0.00  0.00     0.006 A 
ENDBRANCH   1  10
TORSDOF 4
ENDMDL
