MODEL 1
REMARK VINA RESULT:      45.0      0.000      0.000
REMARK  5 active torsions:
REMARK  status: ('A' for Active; 'I' for Inactive)
REMARK       I    between atoms: C_3  and  N_1 
REMARK    1  A    between atoms: C_5  and  N_1 
REMARK    2  A    between atoms: C_2  and  C_3 
REMARK    3  A    between atoms: N_10  and  C_5 
REMARK    4  A    between atoms: C_13  and  N_10 
REMARK    5  A    between atoms: C_14  and  C_13 
ROOT
ATOM      1  C   UNL d   1      59.706  49.123  49.960  0.00  0.00     0.224 C 
ATOM      2  S   UNL d   1      60.226  48.883  49.364  0.00  0.00    -0.037 SA
ENDROOT
BRANCH   1   3
ATOM      3  N   UNL d   1      59.932  49.058  50.749  0.00  0.00    -0.177 NA
ATOM      4  C   UNL d   1      60.712  49.230  50.968  0.00  0.00     0.304 C 
ATOM      5  O   UNL d   1      61.255  49.463  50.406  0.00  0.00    -0.263 OA
BRANCH   4   6
ATOM      6  C   UNL d   1      60.938  49.166  51.757  0.00  0.00     0.158 A 
ATOM      7  O   UNL d   1      60.665  49.629  52.380  0.00  0.00    -0.296 OA
ATOM      8  C   UNL d   1      61.027  49.384  53.065  0.00  0.00     0.134 A 
ATOM      9 BR   UNL d   1      60.914  49.695  53.814  0.00  0.00    -0.022 Br
ATOM     10  C   UNL d   1      61.529  48.764  52.875  0.00  0.00     0.034 A 
ATOM     11  C   UNL d   1      61.474  48.626  52.058  0.00  0.00     0.032 A 
ENDBRANCH   4   6
ENDBRANCH   1   3
BRANCH   1  12
ATOM     12  N   UNL d   1      58.970  49.423  49.759  0.00  0.00    -0.216 NA
BRANCH  12  13
ATOM     13  C   UNL d   1      58.327  49.261  50.232  0.00  0.00     0.101 C 
BRANCH  13  14
ATOM     14  C   UNL d   1      57.569  49.361  49.933  0.00  0.00     0.019 A 
ATOM     15  C   UNL d   1      57.427  49.287  49.124  0.00  0.00     0.002 A 
ATOM     16  C   UNL d   1      56.663  49.388  48.830  0.00  0.00     0.000 A 
ATOM     17  C   UNL d   1      56.040  49.563  49.346  0.00  0.00     0.000 A 
ATOM     18  C   UNL d   1      56.183  49.637  50.155  0.00  0.00     0.000 A 
ATOM     19  C   UNL d   1      56.947  49.536  50.449  0.00  0.00     0.002 A 
ENDBRANCH  13  14
ENDBRANCH  12  13
ENDBRANCH   1  12
TORSDOF 5
ENDMDL
