MODEL 1
REMARK VINA RESULT:      43.6      0.000      0.000
REMARK  2 active torsions:
REMARK  status: ('A' for Active; 'I' for Inactive)
REMARK    1  A    between atoms: C_10  and  C_1 
REMARK    2  A    between atoms: N_6  and  C_10 
ROOT
ATOM      1  C   UNL d   1     -57.438 -98.759 -44.771  0.00  0.00     0.025 A 
ATOM      2  C   UNL d   1     -58.063 -98.759 -44.231  0.00  0.00     0.025 A 
ATOM      3  C   UNL d   1     -57.922 -98.757 -43.429  0.00  0.00     0.013 A 
ATOM      4  C   UNL d   1     -58.833 -98.761 -44.516  0.00  0.00     0.103 A 
ATOM      5  O   UNL d   1     -58.991 -98.763 -45.327  0.00  0.00    -0.273 OA
ATOM      6  C   UNL d   1     -58.543 -98.757 -42.901  0.00  0.00     0.058 A 
ATOM      7  C   UNL d   1     -58.361 -98.763 -45.860  0.00  0.00     0.300 A 
ATOM      8  C   UNL d   1     -57.586 -98.761 -45.588  0.00  0.00     0.070 A 
ATOM      9  C   UNL d   1     -59.319 -98.759 -43.180  0.00  0.00     0.013 A 
ATOM     10  C   UNL d   1     -59.461 -98.761 -43.990  0.00  0.00     0.026 A 
ATOM     11  O   UNL d   1     -58.508 -98.765 -46.668  0.00  0.00    -0.259 OA
ATOM     12 CL   UNL d   1     -58.398 -98.755 -42.086  0.00  0.00    -0.082 Cl
ATOM     13  C   UNL d   1     -57.145 -98.755 -43.152  0.00  0.00     0.001 C 
ATOM     14  C   UNL d   1     -59.952 -98.759 -42.642  0.00  0.00     0.001 C 
ENDROOT
BRANCH   1  15
ATOM     15  C   UNL d   1     -56.661 -98.757 -44.492  0.00  0.00     0.080 C 
BRANCH  15  16
ATOM     16  N   UNL d   1     -56.188 -99.434 -44.581  0.00  0.00    -0.304 N 
ATOM     17  C   UNL d   1     -55.412 -99.432 -44.302  0.00  0.00     0.064 A 
ATOM     18  C   UNL d   1     -55.099 -98.764 -43.933  0.00  0.00     0.019 C 
ATOM     19  C   UNL d   1     -54.950-100.104 -44.393  0.00  0.00     0.018 A 
ATOM     20  C   UNL d   1     -55.254-100.774 -44.759  0.00  0.00     0.003 A 
ATOM     21  C   UNL d   1     -56.031-100.774 -45.038  0.00  0.00     0.019 A 
ATOM     22  C   UNL d   1     -56.503-100.106 -44.952  0.00  0.00     0.080 A 
ENDBRANCH  15  16
ENDBRANCH   1  15
TORSDOF 2
ENDMDL
MODEL 2
REMARK VINA RESULT:      43.8      1.450      2.149
REMARK  2 active torsions:
REMARK  status: ('A' for Active; 'I' for Inactive)
REMARK    1  A    between atoms: C_10  and  C_1 
REMARK    2  A    between atoms: N_6  and  C_10 
ROOT
ATOM      1  C   UNL d   1     -57.367 -98.755 -43.971  0.00  0.00     0.025 A 
ATOM      2  C   UNL d   1     -58.012 -98.756 -44.487  0.00  0.00     0.025 A 
ATOM      3  C   UNL d   1     -57.902 -98.756 -45.293  0.00  0.00     0.013 A 
ATOM      4  C   UNL d   1     -58.771 -98.756 -44.173  0.00  0.00     0.103 A 
ATOM      5  O   UNL d   1     -58.898 -98.756 -43.356  0.00  0.00    -0.273 OA
ATOM      6  C   UNL d   1     -58.542 -98.756 -45.797  0.00  0.00     0.058 A 
ATOM      7  C   UNL d   1     -58.247 -98.756 -42.847  0.00  0.00     0.300 A 
ATOM      8  C   UNL d   1     -57.483 -98.755 -43.150  0.00  0.00     0.070 A 
ATOM      9  C   UNL d   1     -59.308 -98.757 -45.489  0.00  0.00     0.013 A 
ATOM     10  C   UNL d   1     -59.419 -98.756 -44.673  0.00  0.00     0.026 A 
ATOM     11  O   UNL d   1     -58.363 -98.756 -42.035  0.00  0.00    -0.259 OA
ATOM     12 CL   UNL d   1     -58.429 -98.756 -46.617  0.00  0.00    -0.082 Cl
ATOM     13  C   UNL d   1     -57.136 -98.755 -45.601  0.00  0.00     0.001 C 
ATOM     14  C   UNL d   1     -59.960 -98.757 -46.001  0.00  0.00     0.001 C 
ENDROOT
BRANCH   1  15
ATOM     15  C   UNL d   1     -56.601 -98.755 -44.280  0.00  0.00     0.080 C 
BRANCH  15  16
ATOM     16  N   UNL d   1     -56.121 -99.427 -44.195  0.00  0.00    -0.304 N 
ATOM     17  C   UNL d   1     -55.358 -99.428 -44.508  0.00  0.00     0.064 A 
ATOM     18  C   UNL d   1     -55.065 -98.768 -44.906  0.00  0.00     0.019 C 
ATOM     19  C   UNL d   1     -54.889-100.096 -44.421  0.00  0.00     0.018 A 
ATOM     20  C   UNL d   1     -55.173-100.758 -44.027  0.00  0.00     0.003 A 
ATOM     21  C   UNL d   1     -55.937-100.755 -43.714  0.00  0.00     0.019 A 
ATOM     22  C   UNL d   1     -56.416-100.092 -43.795  0.00  0.00     0.080 A 
ENDBRANCH  15  16
ENDBRANCH   1  15
TORSDOF 2
ENDMDL
