MODEL 1
REMARK VINA RESULT:      -5.9      0.000      0.000
REMARK  0 active torsions:
REMARK  status: ('A' for Active; 'I' for Inactive)
ROOT
ATOM      1  N   UNL d   1     -41.744-121.850 -53.029  0.00  0.00    -0.242 NA
ATOM      2  N   UNL d   1     -41.403-123.429 -53.292  0.00  0.00    -0.242 NA
ATOM      3  C   UNL d   1     -41.418-123.132 -52.515  0.00  0.00     0.101 A 
ATOM      4  C   UNL d   1     -41.587-122.350 -52.385  0.00  0.00     0.101 A 
ATOM      5  C   UNL d   1     -41.261-123.631 -51.891  0.00  0.00     0.043 A 
ATOM      6  C   UNL d   1     -41.605-122.044 -51.627  0.00  0.00     0.043 A 
ATOM      7  C   UNL d   1     -41.449-122.535 -50.982  0.00  0.00     0.124 A 
ATOM      8  C   UNL d   1     -41.276-123.334 -51.115  0.00  0.00     0.124 A 
ATOM      9  C   UNL d   1     -41.560-122.928 -53.929  0.00  0.00     0.099 A 
ATOM     10  C   UNL d   1     -41.729-122.146 -53.799  0.00  0.00     0.099 A 
ATOM     11  N   UNL d   1     -41.463-122.246 -50.227  0.00  0.00    -0.146 N 
ATOM     12  N   UNL d   1     -41.124-123.817 -50.502  0.00  0.00    -0.146 N 
ATOM     13  C   UNL d   1     -41.886-121.647 -54.437  0.00  0.00     0.021 A 
ATOM     14  C   UNL d   1     -41.545-123.226 -54.699  0.00  0.00     0.021 A 
ATOM     15  C   UNL d   1     -41.703-122.724 -55.343  0.00  0.00     0.002 A 
ATOM     16  C   UNL d   1     -41.872-121.942 -55.213  0.00  0.00     0.002 A 
ENDROOT
TORSDOF 0
ENDMDL
MODEL 2
REMARK VINA RESULT:      -5.5      0.965      3.293
REMARK  0 active torsions:
REMARK  status: ('A' for Active; 'I' for Inactive)
ROOT
ATOM      1  N   UNL d   1     -41.604-122.216 -52.143  0.00  0.00    -0.242 NA
ATOM      2  N   UNL d   1     -41.128-123.781 -52.117  0.00  0.00    -0.242 NA
ATOM      3  C   UNL d   1     -41.250-123.398 -52.844  0.00  0.00     0.101 A 
ATOM      4  C   UNL d   1     -41.486-122.623 -52.857  0.00  0.00     0.101 A 
ATOM      5  C   UNL d   1     -41.132-123.806 -53.538  0.00  0.00     0.043 A 
ATOM      6  C   UNL d   1     -41.611-122.232 -53.565  0.00  0.00     0.043 A 
ATOM      7  C   UNL d   1     -41.495-122.631 -54.279  0.00  0.00     0.124 A 
ATOM      8  C   UNL d   1     -41.254-123.423 -54.266  0.00  0.00     0.124 A 
ATOM      9  C   UNL d   1     -41.247-123.372 -51.408  0.00  0.00     0.099 A 
ATOM     10  C   UNL d   1     -41.482-122.597 -51.421  0.00  0.00     0.099 A 
ATOM     11  N   UNL d   1     -41.615-122.258 -54.987  0.00  0.00    -0.146 N 
ATOM     12  N   UNL d   1     -41.140-123.817 -54.946  0.00  0.00    -0.146 N 
ATOM     13  C   UNL d   1     -41.600-122.191 -50.714  0.00  0.00     0.021 A 
ATOM     14  C   UNL d   1     -41.124-123.756 -50.688  0.00  0.00     0.021 A 
ATOM     15  C   UNL d   1     -41.243-123.347 -49.974  0.00  0.00     0.002 A 
ATOM     16  C   UNL d   1     -41.478-122.572 -49.987  0.00  0.00     0.002 A 
ENDROOT
TORSDOF 0
ENDMDL
MODEL 3
REMARK VINA RESULT:      -3.8      1.123      1.590
REMARK  0 active torsions:
REMARK  status: ('A' for Active; 'I' for Inactive)
ROOT
ATOM      1  N   UNL d   1     -42.221-121.984 -51.600  0.00  0.00    -0.242 NA
ATOM      2  N   UNL d   1     -41.306-123.335 -51.716  0.00  0.00    -0.242 NA
ATOM      3  C   UNL d   1     -41.630-123.116 -50.982  0.00  0.00     0.101 A 
ATOM      4  C   UNL d   1     -42.083-122.447 -50.925  0.00  0.00     0.101 A 
ATOM      5  C   UNL d   1     -41.489-123.577 -50.326  0.00  0.00     0.043 A 
ATOM      6  C   UNL d   1     -42.409-122.219 -50.210  0.00  0.00     0.043 A 
ATOM      7  C   UNL d   1     -42.276-122.674 -49.534  0.00  0.00     0.124 A 
ATOM      8  C   UNL d   1     -41.813-123.358 -49.593  0.00  0.00     0.124 A 
ATOM      9  C   UNL d   1     -41.446-122.871 -52.385  0.00  0.00     0.099 A 
ATOM     10  C   UNL d   1     -41.899-122.202 -52.328  0.00  0.00     0.099 A 
ATOM     11  N   UNL d   1     -42.591-122.461 -48.821  0.00  0.00    -0.146 N 
ATOM     12  N   UNL d   1     -41.677-123.805 -48.950  0.00  0.00    -0.146 N 
ATOM     13  C   UNL d   1     -42.038-121.740 -52.996  0.00  0.00     0.021 A 
ATOM     14  C   UNL d   1     -41.123-123.091 -53.112  0.00  0.00     0.021 A 
ATOM     15  C   UNL d   1     -41.262-122.626 -53.787  0.00  0.00     0.002 A 
ATOM     16  C   UNL d   1     -41.715-121.957 -53.730  0.00  0.00     0.002 A 
ENDROOT
TORSDOF 0
ENDMDL
MODEL 4
REMARK VINA RESULT:      -3.5      1.489      3.899
REMARK  0 active torsions:
REMARK  status: ('A' for Active; 'I' for Inactive)
ROOT
ATOM      1  N   UNL d   1     -42.338-122.244 -50.350  0.00  0.00    -0.242 NA
ATOM      2  N   UNL d   1     -41.586-123.697 -50.344  0.00  0.00    -0.242 NA
ATOM      3  C   UNL d   1     -41.656-123.270 -51.054  0.00  0.00     0.101 A 
ATOM      4  C   UNL d   1     -42.029-122.550 -51.057  0.00  0.00     0.101 A 
ATOM      5  C   UNL d   1     -41.350-123.580 -51.742  0.00  0.00     0.043 A 
ATOM      6  C   UNL d   1     -42.106-122.119 -51.747  0.00  0.00     0.043 A 
ATOM      7  C   UNL d   1     -41.801-122.418 -52.455  0.00  0.00     0.124 A 
ATOM      8  C   UNL d   1     -41.420-123.153 -52.452  0.00  0.00     0.124 A 
ATOM      9  C   UNL d   1     -41.895-123.388 -49.643  0.00  0.00     0.099 A 
ATOM     10  C   UNL d   1     -42.267-122.668 -49.646  0.00  0.00     0.099 A 
ATOM     11  N   UNL d   1     -41.870-122.002 -53.145  0.00  0.00    -0.146 N 
ATOM     12  N   UNL d   1     -41.123-123.452 -53.126  0.00  0.00    -0.146 N 
ATOM     13  C   UNL d   1     -42.575-122.361 -48.946  0.00  0.00     0.021 A 
ATOM     14  C   UNL d   1     -41.823-123.814 -48.940  0.00  0.00     0.021 A 
ATOM     15  C   UNL d   1     -42.133-123.506 -48.233  0.00  0.00     0.002 A 
ATOM     16  C   UNL d   1     -42.505-122.786 -48.236  0.00  0.00     0.002 A 
ENDROOT
TORSDOF 0
ENDMDL
