MODEL 1
REMARK VINA RESULT:      -2.7      0.000      0.000
REMARK  1 active torsions:
REMARK  status: ('A' for Active; 'I' for Inactive)
REMARK    1  A    between atoms: C_6  and  CA_1 
ROOT
ATOM      1  CA  UNL d   1      32.263  22.540 -21.134  0.00  0.00     0.147 A 
ATOM      2  N   UNL d   1      32.713  22.334 -21.787  0.00  0.00    -0.237 NA
ATOM      3  C   UNL d   1      32.133  21.862 -20.680  0.00  0.00     0.052 A 
ATOM      4  C   UNL d   1      32.866  21.524 -21.741  0.00  0.00     0.106 A 
ATOM      5  C   UNL d   1      32.508  21.233 -21.059  0.00  0.00     0.119 A 
ATOM      6  C   UNL d   1      33.241  20.895 -22.120  0.00  0.00     0.048 A 
ATOM      7  O   UNL d   1      32.661  20.423 -21.014  0.00  0.00    -0.303 OA
ATOM      8  C   UNL d   1      33.115  20.211 -21.670  0.00  0.00     0.124 A 
ENDROOT
BRANCH   1   9
ATOM      9  C   UNL d   1      31.985  23.300 -20.959  0.00  0.00     0.230 C 
ATOM     10  O   UNL d   1      32.267  23.701 -20.299  0.00  0.00    -0.643 OA
ATOM     11  OXT UNL d   1      31.425  23.655 -21.445  0.00  0.00    -0.643 OA
ENDBRANCH   1   9
TORSDOF 1
ENDMDL
MODEL 2
REMARK VINA RESULT:      -2.7      0.683      2.619
REMARK  1 active torsions:
REMARK  status: ('A' for Active; 'I' for Inactive)
REMARK    1  A    between atoms: C_6  and  CA_1 
ROOT
ATOM      1  CA  UNL d   1      32.684  21.257 -21.344  0.00  0.00     0.147 A 
ATOM      2  N   UNL d   1      32.898  21.827 -21.893  0.00  0.00    -0.237 NA
ATOM      3  C   UNL d   1      32.158  21.597 -20.806  0.00  0.00     0.052 A 
ATOM      4  C   UNL d   1      32.504  22.525 -21.697  0.00  0.00     0.106 A 
ATOM      5  C   UNL d   1      32.048  22.383 -21.026  0.00  0.00     0.119 A 
ATOM      6  C   UNL d   1      32.395  23.312 -21.917  0.00  0.00     0.048 A 
ATOM      7  O   UNL d   1      31.654  23.082 -20.830  0.00  0.00    -0.303 OA
ATOM      8  C   UNL d   1      31.868  23.659 -21.381  0.00  0.00     0.124 A 
ENDROOT
BRANCH   1   9
ATOM      9  C   UNL d   1      32.950  20.473 -21.332  0.00  0.00     0.230 C 
ATOM     10  O   UNL d   1      32.924  20.017 -22.016  0.00  0.00    -0.643 OA
ATOM     11  OXT UNL d   1      33.240  20.149 -20.635  0.00  0.00    -0.643 OA
ENDBRANCH   1   9
TORSDOF 1
ENDMDL
MODEL 3
REMARK VINA RESULT:      -2.3      6.538      7.039
REMARK  1 active torsions:
REMARK  status: ('A' for Active; 'I' for Inactive)
REMARK    1  A    between atoms: C_6  and  CA_1 
ROOT
ATOM      1  CA  UNL d   1      29.227  16.074 -23.615  0.00  0.00     0.147 A 
ATOM      2  N   UNL d   1      29.693  16.582 -24.058  0.00  0.00    -0.237 NA
ATOM      3  C   UNL d   1      29.722  15.571 -23.186  0.00  0.00     0.052 A 
ATOM      4  C   UNL d   1      30.482  16.395 -23.906  0.00  0.00     0.106 A 
ATOM      5  C   UNL d   1      30.500  15.772 -23.368  0.00  0.00     0.119 A 
ATOM      6  C   UNL d   1      31.261  16.595 -24.088  0.00  0.00     0.048 A 
ATOM      7  O   UNL d   1      31.290  15.585 -23.216  0.00  0.00    -0.303 OA
ATOM      8  C   UNL d   1      31.764  16.094 -23.661  0.00  0.00     0.124 A 
ENDROOT
BRANCH   1   9
ATOM      9  C   UNL d   1      28.399  16.068 -23.599  0.00  0.00     0.230 C 
ATOM     10  O   UNL d   1      27.988  16.675 -23.228  0.00  0.00    -0.643 OA
ATOM     11  OXT UNL d   1      27.986  15.453 -23.956  0.00  0.00    -0.643 OA
ENDBRANCH   1   9
TORSDOF 1
ENDMDL
MODEL 4
REMARK VINA RESULT:      -2.2      6.214      7.043
REMARK  1 active torsions:
REMARK  status: ('A' for Active; 'I' for Inactive)
REMARK    1  A    between atoms: C_6  and  CA_1 
ROOT
ATOM      1  CA  UNL d   1      30.871  16.208 -23.659  0.00  0.00     0.147 A 
ATOM      2  N   UNL d   1      30.465  15.721 -23.140  0.00  0.00    -0.237 NA
ATOM      3  C   UNL d   1      30.323  16.580 -24.152  0.00  0.00     0.052 A 
ATOM      4  C   UNL d   1      29.661  15.788 -23.310  0.00  0.00     0.106 A 
ATOM      5  C   UNL d   1      29.573  16.318 -23.933  0.00  0.00     0.119 A 
ATOM      6  C   UNL d   1      28.910  15.526 -23.091  0.00  0.00     0.048 A 
ATOM      7  O   UNL d   1      28.768  16.385 -24.103  0.00  0.00    -0.303 OA
ATOM      8  C   UNL d   1      28.354  15.895 -23.582  0.00  0.00     0.124 A 
ENDROOT
BRANCH   1   9
ATOM      9  C   UNL d   1      31.693  16.311 -23.684  0.00  0.00     0.230 C 
ATOM     10  O   UNL d   1      32.167  15.756 -24.063  0.00  0.00    -0.643 OA
ATOM     11  OXT UNL d   1      32.036  16.969 -23.330  0.00  0.00    -0.643 OA
ENDBRANCH   1   9
TORSDOF 1
ENDMDL
MODEL 5
REMARK VINA RESULT:      -2.2      5.688      6.295
REMARK  1 active torsions:
REMARK  status: ('A' for Active; 'I' for Inactive)
REMARK    1  A    between atoms: C_6  and  CA_1 
ROOT
ATOM      1  CA  UNL d   1      29.999  17.003 -24.371  0.00  0.00     0.147 A 
ATOM      2  N   UNL d   1      30.578  17.565 -24.509  0.00  0.00    -0.237 NA
ATOM      3  C   UNL d   1      30.327  16.395 -23.919  0.00  0.00     0.052 A 
ATOM      4  C   UNL d   1      31.271  17.307 -24.143  0.00  0.00     0.106 A 
ATOM      5  C   UNL d   1      31.116  16.586 -23.779  0.00  0.00     0.119 A 
ATOM      6  C   UNL d   1      32.061  17.499 -24.003  0.00  0.00     0.048 A 
ATOM      7  O   UNL d   1      31.810  16.328 -23.412  0.00  0.00    -0.303 OA
ATOM      8  C   UNL d   1      32.397  16.892 -23.550  0.00  0.00     0.124 A 
ENDROOT
BRANCH   1   9
ATOM      9  C   UNL d   1      29.216  17.039 -24.639  0.00  0.00     0.230 C 
ATOM     10  O   UNL d   1      28.908  16.430 -25.097  0.00  0.00    -0.643 OA
ATOM     11  OXT UNL d   1      28.745  17.685 -24.447  0.00  0.00    -0.643 OA
ENDBRANCH   1   9
TORSDOF 1
ENDMDL
MODEL 6
REMARK VINA RESULT:      -2.1      2.384      3.237
REMARK  1 active torsions:
REMARK  status: ('A' for Active; 'I' for Inactive)
REMARK    1  A    between atoms: C_6  and  CA_1 
ROOT
ATOM      1  CA  UNL d   1      32.566  23.181 -19.775  0.00  0.00     0.147 A 
ATOM      2  N   UNL d   1      32.118  23.647 -19.271  0.00  0.00    -0.237 NA
ATOM      3  C   UNL d   1      33.102  22.746 -19.323  0.00  0.00     0.052 A 
ATOM      4  C   UNL d   1      32.376  23.502 -18.501  0.00  0.00     0.106 A 
ATOM      5  C   UNL d   1      32.983  22.946 -18.533  0.00  0.00     0.119 A 
ATOM      6  C   UNL d   1      32.257  23.702 -17.709  0.00  0.00     0.048 A 
ATOM      7  O   UNL d   1      33.241  22.801 -17.762  0.00  0.00    -0.303 OA
ATOM      8  C   UNL d   1      32.793  23.269 -17.250  0.00  0.00     0.124 A 
ENDROOT
BRANCH   1   9
ATOM      9  C   UNL d   1      32.492  23.153 -20.600  0.00  0.00     0.230 C 
ATOM     10  O   UNL d   1      33.088  23.454 -21.079  0.00  0.00    -0.643 OA
ATOM     11  OXT UNL d   1      31.820  22.822 -20.941  0.00  0.00    -0.643 OA
ENDBRANCH   1   9
TORSDOF 1
ENDMDL
MODEL 7
REMARK VINA RESULT:      -2.1      4.764      6.120
REMARK  1 active torsions:
REMARK  status: ('A' for Active; 'I' for Inactive)
REMARK    1  A    between atoms: C_6  and  CA_1 
ROOT
ATOM      1  CA  UNL d   1      31.130  16.570 -23.848  0.00  0.00     0.147 A 
ATOM      2  N   UNL d   1      31.793  16.589 -23.367  0.00  0.00    -0.237 NA
ATOM      3  C   UNL d   1      31.102  17.271 -24.284  0.00  0.00     0.052 A 
ATOM      4  C   UNL d   1      32.181  17.304 -23.503  0.00  0.00     0.106 A 
ATOM      5  C   UNL d   1      31.756  17.725 -24.067  0.00  0.00     0.119 A 
ATOM      6  C   UNL d   1      32.835  17.758 -23.286  0.00  0.00     0.048 A 
ATOM      7  O   UNL d   1      32.145  18.441 -24.202  0.00  0.00    -0.303 OA
ATOM      8  C   UNL d   1      32.814  18.463 -23.719  0.00  0.00     0.124 A 
ENDROOT
BRANCH   1   9
ATOM      9  C   UNL d   1      30.580  15.952 -23.890  0.00  0.00     0.230 C 
ATOM     10  O   UNL d   1      30.569  15.453 -24.543  0.00  0.00    -0.643 OA
ATOM     11  OXT UNL d   1      30.043  15.838 -23.278  0.00  0.00    -0.643 OA
ENDBRANCH   1   9
TORSDOF 1
ENDMDL
MODEL 8
REMARK VINA RESULT:      -2.1      3.922      5.107
REMARK  1 active torsions:
REMARK  status: ('A' for Active; 'I' for Inactive)
REMARK    1  A    between atoms: C_6  and  CA_1 
ROOT
ATOM      1  CA  UNL d   1      32.506  18.145 -23.466  0.00  0.00     0.147 A 
ATOM      2  N   UNL d   1      31.834  18.049 -23.925  0.00  0.00    -0.237 NA
ATOM      3  C   UNL d   1      32.740  17.404 -23.187  0.00  0.00     0.052 A 
ATOM      4  C   UNL d   1      31.647  17.246 -23.931  0.00  0.00     0.106 A 
ATOM      5  C   UNL d   1      32.206  16.848 -23.476  0.00  0.00     0.119 A 
ATOM      6  C   UNL d   1      31.111  16.689 -24.221  0.00  0.00     0.048 A 
ATOM      7  O   UNL d   1      32.018  16.044 -23.483  0.00  0.00    -0.303 OA
ATOM      8  C   UNL d   1      31.340  15.943 -23.944  0.00  0.00     0.124 A 
ENDROOT
BRANCH   1   9
ATOM      9  C   UNL d   1      32.887  18.864 -23.310  0.00  0.00     0.230 C 
ATOM     10  O   UNL d   1      33.240  19.285 -23.921  0.00  0.00    -0.643 OA
ATOM     11  OXT UNL d   1      32.913  19.156 -22.542  0.00  0.00    -0.643 OA
ENDBRANCH   1   9
TORSDOF 1
ENDMDL
MODEL 9
REMARK VINA RESULT:      -1.9      1.895      2.578
REMARK  1 active torsions:
REMARK  status: ('A' for Active; 'I' for Inactive)
REMARK    1  A    between atoms: C_6  and  CA_1 
ROOT
ATOM      1  CA  UNL d   1      32.763  23.038 -19.143  0.00  0.00     0.147 A 
ATOM      2  N   UNL d   1      32.199  23.433 -19.588  0.00  0.00    -0.237 NA
ATOM      3  C   UNL d   1      33.240  22.599 -19.654  0.00  0.00     0.052 A 
ATOM      4  C   UNL d   1      32.326  23.240 -20.381  0.00  0.00     0.106 A 
ATOM      5  C   UNL d   1      32.968  22.727 -20.421  0.00  0.00     0.119 A 
ATOM      6  C   UNL d   1      32.053  23.368 -21.149  0.00  0.00     0.048 A 
ATOM      7  O   UNL d   1      33.094  22.534 -21.215  0.00  0.00    -0.303 OA
ATOM      8  C   UNL d   1      32.528  22.931 -21.667  0.00  0.00     0.124 A 
ENDROOT
BRANCH   1   9
ATOM      9  C   UNL d   1      32.840  23.072 -18.319  0.00  0.00     0.230 C 
ATOM     10  O   UNL d   1      32.515  23.701 -17.900  0.00  0.00    -0.643 OA
ATOM     11  OXT UNL d   1      33.241  22.477 -17.919  0.00  0.00    -0.643 OA
ENDBRANCH   1   9
TORSDOF 1
ENDMDL
