MODEL 1
REMARK VINA RESULT:      -2.7      0.000      0.000
REMARK  1 active torsions:
REMARK  status: ('A' for Active; 'I' for Inactive)
REMARK    1  A    between atoms: C_4  and  C_1 
ROOT
ATOM      1  C   UNL d   1      32.865  20.890 -21.556  0.00  0.00     0.164 A 
ATOM      2  O   UNL d   1      33.056  21.517 -22.057  0.00  0.00    -0.301 OA
ATOM      3  C   UNL d   1      32.484  21.197 -20.894  0.00  0.00     0.033 A 
ATOM      4  C   UNL d   1      32.792  22.214 -21.702  0.00  0.00     0.100 A 
ATOM      5  C   UNL d   1      32.437  22.015 -20.980  0.00  0.00     0.025 A 
ATOM      6  C   UNL d   1      32.826  23.002 -21.938  0.00  0.00     0.025 A 
ATOM      7  C   UNL d   1      32.118  22.605 -20.498  0.00  0.00     0.002 A 
ATOM      8  C   UNL d   1      32.153  23.403 -20.737  0.00  0.00     0.000 A 
ATOM      9  C   UNL d   1      32.506  23.601 -21.456  0.00  0.00     0.002 A 
ENDROOT
BRANCH   1  10
ATOM     10  C   UNL d   1      33.031  20.100 -21.702  0.00  0.00     0.235 C 
ATOM     11  O   UNL d   1      32.985  19.813 -22.483  0.00  0.00    -0.642 OA
ATOM     12  O   UNL d   1      33.241  19.592 -21.087  0.00  0.00    -0.642 OA
ENDBRANCH   1  10
TORSDOF 1
ENDMDL
MODEL 2
REMARK VINA RESULT:      -2.6      5.710      6.624
REMARK  1 active torsions:
REMARK  status: ('A' for Active; 'I' for Inactive)
REMARK    1  A    between atoms: C_4  and  C_1 
ROOT
ATOM      1  C   UNL d   1      31.304  16.408 -23.735  0.00  0.00     0.164 A 
ATOM      2  O   UNL d   1      30.965  15.858 -23.222  0.00  0.00    -0.301 OA
ATOM      3  C   UNL d   1      30.700  16.763 -24.166  0.00  0.00     0.033 A 
ATOM      4  C   UNL d   1      30.148  15.873 -23.338  0.00  0.00     0.100 A 
ATOM      5  C   UNL d   1      29.983  16.435 -23.924  0.00  0.00     0.025 A 
ATOM      6  C   UNL d   1      29.533  15.453 -22.990  0.00  0.00     0.025 A 
ATOM      7  C   UNL d   1      29.204  16.574 -24.159  0.00  0.00     0.002 A 
ATOM      8  C   UNL d   1      28.581  16.147 -23.806  0.00  0.00     0.000 A 
ATOM      9  C   UNL d   1      28.745  15.588 -23.222  0.00  0.00     0.002 A 
ENDROOT
BRANCH   1  10
ATOM     10  C   UNL d   1      32.107  16.567 -23.796  0.00  0.00     0.235 C 
ATOM     11  O   UNL d   1      32.453  17.119 -23.276  0.00  0.00    -0.642 OA
ATOM     12  O   UNL d   1      32.570  16.186 -24.363  0.00  0.00    -0.642 OA
ENDBRANCH   1  10
TORSDOF 1
ENDMDL
MODEL 3
REMARK VINA RESULT:      -2.6      5.922      6.681
REMARK  1 active torsions:
REMARK  status: ('A' for Active; 'I' for Inactive)
REMARK    1  A    between atoms: C_4  and  C_1 
ROOT
ATOM      1  C   UNL d   1      29.243  16.338 -23.862  0.00  0.00     0.164 A 
ATOM      2  O   UNL d   1      29.898  16.006 -23.487  0.00  0.00    -0.301 OA
ATOM      3  C   UNL d   1      29.510  16.920 -24.379  0.00  0.00     0.033 A 
ATOM      4  C   UNL d   1      30.573  16.385 -23.774  0.00  0.00     0.100 A 
ATOM      5  C   UNL d   1      30.332  16.952 -24.328  0.00  0.00     0.025 A 
ATOM      6  C   UNL d   1      31.373  16.290 -23.607  0.00  0.00     0.025 A 
ATOM      7  C   UNL d   1      30.892  17.421 -24.712  0.00  0.00     0.002 A 
ATOM      8  C   UNL d   1      31.703  17.325 -24.543  0.00  0.00     0.000 A 
ATOM      9  C   UNL d   1      31.943  16.761 -23.991  0.00  0.00     0.002 A 
ENDROOT
BRANCH   1  10
ATOM     10  C   UNL d   1      28.462  16.119 -23.734  0.00  0.00     0.235 C 
ATOM     11  O   UNL d   1      27.990  16.577 -23.223  0.00  0.00    -0.642 OA
ATOM     12  O   UNL d   1      28.145  15.453 -24.104  0.00  0.00    -0.642 OA
ENDBRANCH   1  10
TORSDOF 1
ENDMDL
MODEL 4
REMARK VINA RESULT:      -2.2      3.023      4.873
REMARK  1 active torsions:
REMARK  status: ('A' for Active; 'I' for Inactive)
REMARK    1  A    between atoms: C_4  and  C_1 
ROOT
ATOM      1  C   UNL d   1      32.756  18.742 -23.065  0.00  0.00     0.164 A 
ATOM      2  O   UNL d   1      32.248  18.748 -23.715  0.00  0.00    -0.301 OA
ATOM      3  C   UNL d   1      32.918  17.959 -22.873  0.00  0.00     0.033 A 
ATOM      4  C   UNL d   1      32.097  17.965 -23.925  0.00  0.00     0.100 A 
ATOM      5  C   UNL d   1      32.513  17.474 -23.402  0.00  0.00     0.025 A 
ATOM      6  C   UNL d   1      31.637  17.631 -24.521  0.00  0.00     0.025 A 
ATOM      7  C   UNL d   1      32.468  16.653 -23.478  0.00  0.00     0.002 A 
ATOM      8  C   UNL d   1      32.002  16.316 -24.081  0.00  0.00     0.000 A 
ATOM      9  C   UNL d   1      31.588  16.804 -24.602  0.00  0.00     0.002 A 
ENDROOT
BRANCH   1  10
ATOM     10  C   UNL d   1      33.043  19.409 -22.683  0.00  0.00     0.235 C 
ATOM     11  O   UNL d   1      33.134  20.117 -23.113  0.00  0.00    -0.642 OA
ATOM     12  O   UNL d   1      33.241  19.384 -21.882  0.00  0.00    -0.642 OA
ENDBRANCH   1  10
TORSDOF 1
ENDMDL
MODEL 5
REMARK VINA RESULT:      -2.2      2.382      3.106
REMARK  1 active torsions:
REMARK  status: ('A' for Active; 'I' for Inactive)
REMARK    1  A    between atoms: C_4  and  C_1 
ROOT
ATOM      1  C   UNL d   1      32.781  23.039 -18.967  0.00  0.00     0.164 A 
ATOM      2  O   UNL d   1      32.414  23.607 -19.439  0.00  0.00    -0.301 OA
ATOM      3  C   UNL d   1      33.074  22.447 -19.458  0.00  0.00     0.033 A 
ATOM      4  C   UNL d   1      32.481  23.365 -20.225  0.00  0.00     0.100 A 
ATOM      5  C   UNL d   1      32.891  22.645 -20.237  0.00  0.00     0.025 A 
ATOM      6  C   UNL d   1      32.225  23.701 -20.931  0.00  0.00     0.025 A 
ATOM      7  C   UNL d   1      33.043  22.265 -20.954  0.00  0.00     0.002 A 
ATOM      8  C   UNL d   1      32.783  22.606 -21.669  0.00  0.00     0.000 A 
ATOM      9  C   UNL d   1      32.375  23.323 -21.657  0.00  0.00     0.002 A 
ENDROOT
BRANCH   1  10
ATOM     10  C   UNL d   1      32.839  23.069 -18.148  0.00  0.00     0.235 C 
ATOM     11  O   UNL d   1      32.485  23.702 -17.739  0.00  0.00    -0.642 OA
ATOM     12  O   UNL d   1      33.241  22.481 -17.732  0.00  0.00    -0.642 OA
ENDBRANCH   1  10
TORSDOF 1
ENDMDL
MODEL 6
REMARK VINA RESULT:      -2.0      1.348      2.281
REMARK  1 active torsions:
REMARK  status: ('A' for Active; 'I' for Inactive)
REMARK    1  A    between atoms: C_4  and  C_1 
ROOT
ATOM      1  C   UNL d   1      33.129  19.494 -22.722  0.00  0.00     0.164 A 
ATOM      2  O   UNL d   1      33.138  19.375 -21.906  0.00  0.00    -0.301 OA
ATOM      3  C   UNL d   1      33.156  20.304 -22.865  0.00  0.00     0.033 A 
ATOM      4  C   UNL d   1      33.172  20.116 -21.543  0.00  0.00     0.100 A 
ATOM      5  C   UNL d   1      33.183  20.693 -22.139  0.00  0.00     0.025 A 
ATOM      6  C   UNL d   1      33.194  20.344 -20.753  0.00  0.00     0.025 A 
ATOM      7  C   UNL d   1      33.216  21.494 -21.940  0.00  0.00     0.002 A 
ATOM      8  C   UNL d   1      33.238  21.724 -21.139  0.00  0.00     0.000 A 
ATOM      9  C   UNL d   1      33.227  21.150 -20.546  0.00  0.00     0.002 A 
ENDROOT
BRANCH   1  10
ATOM     10  C   UNL d   1      33.097  18.899 -23.287  0.00  0.00     0.235 C 
ATOM     11  O   UNL d   1      32.987  18.111 -23.040  0.00  0.00    -0.642 OA
ATOM     12  O   UNL d   1      33.173  19.075 -24.090  0.00  0.00    -0.642 OA
ENDBRANCH   1  10
TORSDOF 1
ENDMDL
MODEL 7
REMARK VINA RESULT:      -1.9      1.547      2.283
REMARK  1 active torsions:
REMARK  status: ('A' for Active; 'I' for Inactive)
REMARK    1  A    between atoms: C_4  and  C_1 
ROOT
ATOM      1  C   UNL d   1      32.552  22.348 -21.385  0.00  0.00     0.164 A 
ATOM      2  O   UNL d   1      32.130  23.003 -21.659  0.00  0.00    -0.301 OA
ATOM      3  C   UNL d   1      33.032  22.078 -21.996  0.00  0.00     0.033 A 
ATOM      4  C   UNL d   1      32.351  23.136 -22.443  0.00  0.00     0.100 A 
ATOM      5  C   UNL d   1      32.911  22.562 -22.652  0.00  0.00     0.025 A 
ATOM      6  C   UNL d   1      32.119  23.701 -22.994  0.00  0.00     0.025 A 
ATOM      7  C   UNL d   1      33.236  22.556 -23.411  0.00  0.00     0.002 A 
ATOM      8  C   UNL d   1      33.000  23.129 -23.969  0.00  0.00     0.000 A 
ATOM      9  C   UNL d   1      32.443  23.701 -23.761  0.00  0.00     0.002 A 
ENDROOT
BRANCH   1  10
ATOM     10  C   UNL d   1      32.495  22.030 -20.630  0.00  0.00     0.235 C 
ATOM     11  O   UNL d   1      31.832  21.565 -20.435  0.00  0.00    -0.642 OA
ATOM     12  O   UNL d   1      33.084  22.167 -20.069  0.00  0.00    -0.642 OA
ENDBRANCH   1  10
TORSDOF 1
ENDMDL
MODEL 8
REMARK VINA RESULT:      -1.9      1.742      3.472
REMARK  1 active torsions:
REMARK  status: ('A' for Active; 'I' for Inactive)
REMARK    1  A    between atoms: C_4  and  C_1 
ROOT
ATOM      1  C   UNL d   1      32.930  20.260 -22.059  0.00  0.00     0.164 A 
ATOM      2  O   UNL d   1      32.973  20.520 -22.841  0.00  0.00    -0.301 OA
ATOM      3  C   UNL d   1      32.996  19.440 -22.058  0.00  0.00     0.033 A 
ATOM      4  C   UNL d   1      33.066  19.857 -23.324  0.00  0.00     0.100 A 
ATOM      5  C   UNL d   1      33.080  19.186 -22.838  0.00  0.00     0.025 A 
ATOM      6  C   UNL d   1      33.139  19.773 -24.139  0.00  0.00     0.025 A 
ATOM      7  C   UNL d   1      33.167  18.435 -23.169  0.00  0.00     0.002 A 
ATOM      8  C   UNL d   1      33.241  18.350 -23.995  0.00  0.00     0.000 A 
ATOM      9  C   UNL d   1      33.227  19.018 -24.479  0.00  0.00     0.002 A 
ENDROOT
BRANCH   1  10
ATOM     10  C   UNL d   1      32.838  20.745 -21.403  0.00  0.00     0.235 C 
ATOM     11  O   UNL d   1      33.217  20.539 -20.690  0.00  0.00    -0.642 OA
ATOM     12  O   UNL d   1      32.377  21.428 -21.445  0.00  0.00    -0.642 OA
ENDBRANCH   1  10
TORSDOF 1
ENDMDL
