MODEL 1
REMARK VINA RESULT:      32.2      0.000      0.000
REMARK  4 active torsions:
REMARK  status: ('A' for Active; 'I' for Inactive)
REMARK       I    between atoms: C_2  and  N_1 
REMARK       I    between atoms: N_8  and  C_2 
REMARK    1  A    between atoms: C_12  and  N_8 
REMARK    2  A    between atoms: C_9  and  C_12 
REMARK    3  A    between atoms: O_13  and  C_9 
REMARK    4  A    between atoms: C_18  and  O_13 
ROOT
ATOM      1  N   UNL d   1     -58.158 -98.756 -45.029  0.00  0.00    -0.258 N 
ATOM      2  C   UNL d   1     -57.338 -98.756 -45.115  0.00  0.00     0.354 C 
ATOM      3  S   UNL d   1     -59.811 -98.757 -44.854  0.00  0.00    -0.084 SA
ATOM      4  C   UNL d   1     -58.646 -98.756 -45.694  0.00  0.00     0.074 A 
ATOM      5  C   UNL d   1     -58.490 -98.756 -44.273  0.00  0.00     0.074 A 
ATOM      6  C   UNL d   1     -59.471 -98.756 -45.611  0.00  0.00     0.046 A 
ATOM      7  C   UNL d   1     -59.321 -98.757 -44.186  0.00  0.00     0.046 A 
ATOM      8  N   UNL d   1     -56.850 -98.756 -44.441  0.00  0.00    -0.185 NA
ATOM      9  O   UNL d   1     -57.007 -98.755 -45.867  0.00  0.00    -0.244 OA
ATOM     10  C   UNL d   1     -58.307 -98.756 -46.441  0.00  0.00     0.018 A 
ATOM     11  C   UNL d   1     -58.002 -98.756 -43.617  0.00  0.00     0.018 A 
ATOM     12  C   UNL d   1     -59.654 -98.757 -43.442  0.00  0.00     0.008 A 
ATOM     13  C   UNL d   1     -59.954 -98.757 -46.279  0.00  0.00     0.008 A 
ATOM     14  C   UNL d   1     -58.784 -98.756 -47.117  0.00  0.00     0.002 A 
ATOM     15  C   UNL d   1     -58.345 -98.756 -42.849  0.00  0.00     0.002 A 
ATOM     16  C   UNL d   1     -59.171 -98.757 -42.766  0.00  0.00     0.001 A 
ATOM     17  C   UNL d   1     -59.605 -98.756 -47.035  0.00  0.00     0.001 A 
ENDROOT
BRANCH   8  18
ATOM     18  C   UNL d   1     -56.006 -98.755 -44.530  0.00  0.00     0.172 C 
BRANCH  18  19
ATOM     19  C   UNL d   1     -55.560 -99.277 -44.092  0.00  0.00     0.320 C 
ATOM     20  O   UNL d   1     -55.143 -99.004 -43.436  0.00  0.00    -0.257 OA
BRANCH  19  21
ATOM     21  O   UNL d   1     -55.525-100.063 -44.298  0.00  0.00    -0.270 OA
BRANCH  21  22
ATOM     22  C   UNL d   1     -54.811-100.488 -44.206  0.00  0.00     0.126 C 
ATOM     23  C   UNL d   1     -54.826-101.304 -44.140  0.00  0.00     0.029 C 
ENDBRANCH  21  22
ENDBRANCH  19  21
ENDBRANCH  18  19
ENDBRANCH   8  18
TORSDOF 4
ENDMDL
