MODEL 1
REMARK VINA RESULT:      61.1      0.000      0.000
REMARK  2 active torsions:
REMARK  status: ('A' for Active; 'I' for Inactive)
REMARK       I    between atoms: N_2  and  C_1 
REMARK    1  A    between atoms: C_3  and  C_1 
REMARK    2  A    between atoms: C_4  and  N_2 
ROOT
ATOM      1  C   UNL d   1     -50.164  27.255  33.950  0.00  0.00     0.059 A 
ATOM      2  C   UNL d   1     -49.515  27.149  34.446  0.00  0.00     0.025 A 
ATOM      3  C   UNL d   1     -48.997  27.784  34.593  0.00  0.00     0.099 A 
ATOM      4  N   UNL d   1     -48.345  27.680  35.090  0.00  0.00    -0.241 NA
ATOM      5  N   UNL d   1     -48.631  29.151  34.380  0.00  0.00    -0.241 NA
ATOM      6  C   UNL d   1     -49.134  28.518  34.242  0.00  0.00     0.099 A 
ATOM      7  C   UNL d   1     -50.302  27.992  33.598  0.00  0.00     0.006 A 
ATOM      8  C   UNL d   1     -49.790  28.621  33.743  0.00  0.00     0.021 A 
ATOM      9  C   UNL d   1     -47.834  28.316  35.231  0.00  0.00     0.120 A 
ATOM     10  C   UNL d   1     -47.976  29.048  34.879  0.00  0.00     0.120 A 
ENDROOT
BRANCH   1  11
ATOM     11  C   UNL d   1     -50.675  26.626  33.806  0.00  0.00     0.281 C 
ATOM     12  N   UNL d   1     -50.409  25.849  33.885  0.00  0.00    -0.189 NA
ATOM     13  O   UNL d   1     -51.455  26.774  33.583  0.00  0.00    -0.265 OA
BRANCH  12  14
ATOM     14  C   UNL d   1     -50.921  25.221  33.740  0.00  0.00     0.166 A 
ATOM     15  N   UNL d   1     -51.736  25.348  33.755  0.00  0.00    -0.225 NA
ATOM     16  C   UNL d   1     -52.252  24.717  33.610  0.00  0.00     0.107 A 
ATOM     17  C   UNL d   1     -51.950  23.966  33.451  0.00  0.00     0.054 A 
ATOM     18  C   UNL d   1     -51.132  23.845  33.437  0.00  0.00     0.011 A 
ATOM     19 BR   UNL d   1     -52.462  23.337  33.306  0.00  0.00    -0.048 Br
ATOM     20  C   UNL d   1     -50.620  24.474  33.581  0.00  0.00     0.039 A 
ENDBRANCH  12  14
ENDBRANCH   1  11
TORSDOF 2
ENDMDL
MODEL 2
REMARK VINA RESULT:      61.3      1.322      1.977
REMARK  2 active torsions:
REMARK  status: ('A' for Active; 'I' for Inactive)
REMARK       I    between atoms: N_2  and  C_1 
REMARK    1  A    between atoms: C_3  and  C_1 
REMARK    2  A    between atoms: C_4  and  N_2 
ROOT
ATOM      1  C   UNL d   1     -48.939  28.395  34.665  0.00  0.00     0.059 A 
ATOM      2  C   UNL d   1     -48.486  28.466  35.349  0.00  0.00     0.025 A 
ATOM      3  C   UNL d   1     -48.022  29.146  35.471  0.00  0.00     0.099 A 
ATOM      4  N   UNL d   1     -47.566  29.219  36.157  0.00  0.00    -0.241 NA
ATOM      5  N   UNL d   1     -47.562  30.423  35.015  0.00  0.00    -0.241 NA
ATOM      6  C   UNL d   1     -48.016  29.748  34.906  0.00  0.00     0.099 A 
ATOM      7  C   UNL d   1     -48.933  28.999  34.098  0.00  0.00     0.006 A 
ATOM      8  C   UNL d   1     -48.474  29.673  34.217  0.00  0.00     0.021 A 
ATOM      9  C   UNL d   1     -47.107  29.899  36.271  0.00  0.00     0.120 A 
ATOM     10  C   UNL d   1     -47.105  30.498  35.704  0.00  0.00     0.120 A 
ENDROOT
BRANCH   1  11
ATOM     11  C   UNL d   1     -49.397  27.721  34.546  0.00  0.00     0.281 C 
ATOM     12  N   UNL d   1     -49.541  27.448  33.781  0.00  0.00    -0.189 NA
ATOM     13  O   UNL d   1     -49.712  27.321  35.193  0.00  0.00    -0.265 OA
BRANCH  12  14
ATOM     14  C   UNL d   1     -50.000  26.775  33.663  0.00  0.00     0.166 A 
ATOM     15  N   UNL d   1     -49.632  26.043  33.563  0.00  0.00    -0.225 NA
ATOM     16  C   UNL d   1     -50.092  25.366  33.444  0.00  0.00     0.107 A 
ATOM     17  C   UNL d   1     -50.915  25.424  33.427  0.00  0.00     0.054 A 
ATOM     18  C   UNL d   1     -51.278  26.161  33.528  0.00  0.00     0.011 A 
ATOM     19 BR   UNL d   1     -51.374  24.751  33.309  0.00  0.00    -0.048 Br
ATOM     20  C   UNL d   1     -50.819  26.833  33.645  0.00  0.00     0.039 A 
ENDBRANCH  12  14
ENDBRANCH   1  11
TORSDOF 2
ENDMDL
