MODEL 1
REMARK VINA RESULT:      88.3      0.000      0.000
REMARK  9 active torsions:
REMARK  status: ('A' for Active; 'I' for Inactive)
REMARK    1  A    between atoms: C_21  and  N_1 
REMARK    2  A    between atoms: S_17  and  C_3 
REMARK    3  A    between atoms: C_16  and  C_32 
REMARK       I    between atoms: N_19  and  C_16 
REMARK    4  A    between atoms: C_29  and  S_17 
REMARK    5  A    between atoms: C_22  and  N_19 
REMARK    6  A    between atoms: C_31  and  C_21 
REMARK    7  A    between atoms: C_23  and  C_22 
REMARK    8  A    between atoms: O_30  and  C_24 
REMARK    9  A    between atoms: C_32  and  C_31 
ROOT
ATOM      1  N   UNL d   1     -57.860-102.710 -44.041  0.00  0.00    -0.195 NA
ATOM      2  C   UNL d   1     -57.059-102.566 -43.920  0.00  0.00     0.086 C 
ATOM      3  C   UNL d   1     -56.254-102.409 -43.810  0.00  0.00     0.170 C 
ENDROOT
BRANCH   3   4
ATOM      4  S   UNL d   1     -55.828-102.834 -43.247  0.00  0.00    -0.060 SA
BRANCH   4   5
ATOM      5  C   UNL d   1     -55.594-102.459 -42.524  0.00  0.00     0.178 A 
ATOM      6  N   UNL d   1     -55.272-101.714 -42.553  0.00  0.00    -0.253 N 
ATOM      7  C   UNL d   1     -55.040-101.339 -41.852  0.00  0.00     0.268 A 
ATOM      8  C   UNL d   1     -55.134-101.719 -41.117  0.00  0.00     0.076 A 
ATOM      9  O   UNL d   1     -54.713-100.584 -41.881  0.00  0.00    -0.267 OA
ATOM     10  C   UNL d   1     -54.901-101.343 -40.419  0.00  0.00     0.033 A 
ATOM     11  C   UNL d   1     -55.456-102.464 -41.088  0.00  0.00     0.090 A 
ATOM     12  C   UNL d   1     -54.994-101.723 -39.671  0.00  0.00     0.119 A 
ATOM     13  O   UNL d   1     -54.818-101.497 -38.876  0.00  0.00    -0.300 OA
ATOM     14  C   UNL d   1     -55.316-102.468 -39.647  0.00  0.00     0.121 A 
ATOM     15  C   UNL d   1     -55.032-102.105 -38.356  0.00  0.00     0.304 A 
ATOM     16  O   UNL d   1     -55.338-102.698 -38.838  0.00  0.00    -0.299 OA
ATOM     17  C   UNL d   1     -55.549-102.843 -40.353  0.00  0.00     0.046 A 
ATOM     18  N   UNL d   1     -55.688-102.838 -41.794  0.00  0.00    -0.222 NA
BRANCH   6  19
ATOM     19  C   UNL d   1     -55.180-101.334 -43.305  0.00  0.00     0.085 C 
BRANCH  19  20
ATOM     20  C   UNL d   1     -54.732-100.646 -43.353  0.00  0.00     0.024 C 
BRANCH  20  21
ATOM     21  C   UNL d   1     -55.103 -99.942 -43.579  0.00  0.00     0.064 C 
BRANCH  21  22
ATOM     22  C   UNL d   1     -55.255 -99.797 -44.376  0.00  0.00     0.279 C 
ATOM     23  N   UNL d   1     -55.804 -99.223 -44.590  0.00  0.00    -0.206 NA
ATOM     24  O   UNL d   1     -54.856-100.230 -44.958  0.00  0.00    -0.265 OA
BRANCH  23  25
ATOM     25  C   UNL d   1     -56.198 -98.796 -44.010  0.00  0.00     0.102 C 
BRANCH  25  26
ATOM     26  C   UNL d   1     -57.013 -98.923 -43.893  0.00  0.00     0.019 A 
ATOM     27  C   UNL d   1     -57.496 -99.075 -44.526  0.00  0.00     0.004 A 
ATOM     28  C   UNL d   1     -58.297 -99.199 -44.404  0.00  0.00     0.024 A 
ATOM     29  C   UNL d   1     -58.618 -99.171 -43.647  0.00  0.00     0.094 A 
ATOM     30  C   UNL d   1     -58.123 -99.016 -43.008  0.00  0.00     0.024 A 
ATOM     31  C   UNL d   1     -57.308 -98.889 -43.124  0.00  0.00     0.004 A 
BRANCH  29  32
ATOM     32  O   UNL d   1     -59.422 -99.295 -43.524  0.00  0.00    -0.328 OA
ATOM     33  C   UNL d   1     -59.960 -98.814 -43.921  0.00  0.00     0.181 C 
ENDBRANCH  29  32
ENDBRANCH  25  26
ENDBRANCH  23  25
ENDBRANCH  21  22
ENDBRANCH  20  21
ENDBRANCH  19  20
ENDBRANCH   6  19
ENDBRANCH   4   5
ENDBRANCH   3   4
TORSDOF 9
ENDMDL
