MODEL 1
REMARK VINA RESULT:      -3.1      0.000      0.000
REMARK  5 active torsions:
REMARK  status: ('A' for Active; 'I' for Inactive)
REMARK    1  A    between atoms: C_7  and  C_1 
REMARK    2  A    between atoms: C_6  and  C_3 
REMARK       I    between atoms: N_8  and  C_6 
REMARK    3  A    between atoms: O_14  and  C_7 
REMARK    4  A    between atoms: C_13  and  N_8 
REMARK    5  A    between atoms: C_15  and  O_14 
ROOT
ATOM      1  C   UNL d   1     -41.759-122.436 -53.399  0.00  0.00     0.090 A 
ATOM      2  C   UNL d   1     -41.366-123.022 -52.962  0.00  0.00     0.138 A 
ATOM      3  C   UNL d   1     -41.397-121.935 -52.242  0.00  0.00     0.089 A 
ATOM      4  C   UNL d   1     -41.772-121.755 -52.934  0.00  0.00     0.018 A 
ATOM      5  S   UNL d   1     -41.164-122.665 -52.259  0.00  0.00    -0.061 SA
ATOM      6  N   UNL d   1     -41.227-123.811 -53.228  0.00  0.00    -0.141 N 
ATOM      7  C   UNL d   1     -42.130-121.017 -53.185  0.00  0.00     0.001 C 
ENDROOT
BRANCH   3   8
ATOM      8  C   UNL d   1     -41.328-121.358 -51.673  0.00  0.00     0.285 C 
ATOM      9  N   UNL d   1     -41.460-121.554 -50.900  0.00  0.00    -0.208 NA
ATOM     10  O   UNL d   1     -41.123-120.582 -51.902  0.00  0.00    -0.265 OA
BRANCH   9  11
ATOM     11  C   UNL d   1     -41.662-122.324 -50.694  0.00  0.00     0.085 A 
ATOM     12  C   UNL d   1     -41.140-122.896 -50.658  0.00  0.00     0.019 A 
ATOM     13  C   UNL d   1     -41.393-123.625 -50.452  0.00  0.00     0.002 A 
ATOM     14  C   UNL d   1     -42.135-123.817 -50.280  0.00  0.00     0.000 A 
ATOM     15  C   UNL d   1     -42.737-123.244 -50.303  0.00  0.00     0.002 A 
ATOM     16  C   UNL d   1     -42.463-122.475 -50.522  0.00  0.00     0.019 A 
ENDBRANCH   9  11
ENDBRANCH   3   8
BRANCH   1  17
ATOM     17  C   UNL d   1     -42.068-122.529 -54.143  0.00  0.00     0.302 C 
ATOM     18  O   UNL d   1     -42.686-123.076 -54.282  0.00  0.00    -0.259 OA
BRANCH  17  19
ATOM     19  O   UNL d   1     -41.785-122.092 -54.782  0.00  0.00    -0.271 OA
BRANCH  19  20
ATOM     20  C   UNL d   1     -42.119-122.218 -55.521  0.00  0.00     0.126 C 
ATOM     21  C   UNL d   1     -41.957-121.683 -56.127  0.00  0.00     0.029 C 
ENDBRANCH  19  20
ENDBRANCH  17  19
ENDBRANCH   1  17
TORSDOF 5
ENDMDL
MODEL 2
REMARK VINA RESULT:      -1.6      1.584      3.607
REMARK  5 active torsions:
REMARK  status: ('A' for Active; 'I' for Inactive)
REMARK    1  A    between atoms: C_7  and  C_1 
REMARK    2  A    between atoms: C_6  and  C_3 
REMARK       I    between atoms: N_8  and  C_6 
REMARK    3  A    between atoms: O_14  and  C_7 
REMARK    4  A    between atoms: C_13  and  N_8 
REMARK    5  A    between atoms: C_15  and  O_14 
ROOT
ATOM      1  C   UNL d   1     -42.101-122.526 -50.655  0.00  0.00     0.090 A 
ATOM      2  C   UNL d   1     -41.522-123.025 -50.976  0.00  0.00     0.138 A 
ATOM      3  C   UNL d   1     -41.488-121.895 -51.628  0.00  0.00     0.089 A 
ATOM      4  C   UNL d   1     -42.070-121.816 -51.074  0.00  0.00     0.018 A 
ATOM      5  S   UNL d   1     -41.172-122.592 -51.571  0.00  0.00    -0.061 SA
ATOM      6  N   UNL d   1     -41.361-123.811 -50.713  0.00  0.00    -0.141 N 
ATOM      7  C   UNL d   1     -42.583-121.148 -50.913  0.00  0.00     0.001 C 
ENDROOT
BRANCH   3   8
ATOM      8  C   UNL d   1     -41.334-121.271 -52.126  0.00  0.00     0.285 C 
ATOM      9  N   UNL d   1     -41.369-121.391 -52.924  0.00  0.00    -0.208 NA
ATOM     10  O   UNL d   1     -41.144-120.526 -51.800  0.00  0.00    -0.265 OA
BRANCH   9  11
ATOM     11  C   UNL d   1     -41.558-122.132 -53.227  0.00  0.00     0.085 A 
ATOM     12  C   UNL d   1     -41.123-122.759 -53.094  0.00  0.00     0.019 A 
ATOM     13  C   UNL d   1     -41.355-123.453 -53.413  0.00  0.00     0.002 A 
ATOM     14  C   UNL d   1     -41.995-123.559 -53.858  0.00  0.00     0.000 A 
ATOM     15  C   UNL d   1     -42.498-122.921 -54.033  0.00  0.00     0.002 A 
ATOM     16  C   UNL d   1     -42.247-122.189 -53.692  0.00  0.00     0.019 A 
ENDBRANCH   9  11
ENDBRANCH   3   8
BRANCH   1  17
ATOM     17  C   UNL d   1     -42.599-122.713 -50.042  0.00  0.00     0.302 C 
ATOM     18  O   UNL d   1     -43.328-123.096 -50.189  0.00  0.00    -0.259 OA
BRANCH  17  19
ATOM     19  O   UNL d   1     -42.404-122.533 -49.262  0.00  0.00    -0.271 OA
BRANCH  19  20
ATOM     20  C   UNL d   1     -42.643-123.050 -48.670  0.00  0.00     0.126 C 
ATOM     21  C   UNL d   1     -42.396-122.909 -47.896  0.00  0.00     0.029 C 
ENDBRANCH  19  20
ENDBRANCH  17  19
ENDBRANCH   1  17
TORSDOF 5
ENDMDL
