MODEL 1
REMARK VINA RESULT:      15.0      0.000      0.000
REMARK  0 active torsions:
REMARK  status: ('A' for Active; 'I' for Inactive)
ROOT
ATOM      1  C   UNL d   1      60.553  49.707  50.456  0.00  0.00     0.282 A 
ATOM      2  N   UNL d   1      61.069  49.707  51.103  0.00  0.00    -0.189 NA
ATOM      3  N   UNL d   1      59.947  49.706  51.991  0.00  0.00    -0.227 NA
ATOM      4  C   UNL d   1      59.740  49.707  50.578  0.00  0.00     0.076 A 
ATOM      5  C   UNL d   1      60.765  49.707  51.870  0.00  0.00     0.166 A 
ATOM      6  C   UNL d   1      59.437  49.707  51.345  0.00  0.00     0.088 A 
ATOM      7  O   UNL d   1      60.857  49.708  49.689  0.00  0.00    -0.265 OA
ATOM      8  C   UNL d   1      59.228  49.707  49.932  0.00  0.00     0.006 A 
ATOM      9  C   UNL d   1      61.284  49.707  52.519  0.00  0.00     0.042 C 
ATOM     10  C   UNL d   1      58.622  49.706  51.467  0.00  0.00     0.019 A 
ATOM     11  C   UNL d   1      58.407  49.707  50.051  0.00  0.00     0.000 A 
ATOM     12  C   UNL d   1      58.104  49.707  50.818  0.00  0.00     0.002 A 
ENDROOT
TORSDOF 0
ENDMDL
MODEL 2
REMARK VINA RESULT:      16.2      1.416      1.965
REMARK  0 active torsions:
REMARK  status: ('A' for Active; 'I' for Inactive)
ROOT
ATOM      1  C   UNL d   1      58.585  49.703  49.653  0.00  0.00     0.282 A 
ATOM      2  N   UNL d   1      59.235  49.703  50.164  0.00  0.00    -0.189 NA
ATOM      3  N   UNL d   1      58.348  49.706  51.286  0.00  0.00    -0.227 NA
ATOM      4  C   UNL d   1      57.821  49.704  49.958  0.00  0.00     0.076 A 
ATOM      5  C   UNL d   1      59.117  49.705  50.980  0.00  0.00     0.166 A 
ATOM      6  C   UNL d   1      57.702  49.706  50.775  0.00  0.00     0.088 A 
ATOM      7  O   UNL d   1      58.704  49.701  48.837  0.00  0.00    -0.265 OA
ATOM      8  C   UNL d   1      57.175  49.703  49.448  0.00  0.00     0.006 A 
ATOM      9  C   UNL d   1      59.771  49.706  51.493  0.00  0.00     0.042 C 
ATOM     10  C   UNL d   1      56.937  49.707  51.081  0.00  0.00     0.019 A 
ATOM     11  C   UNL d   1      56.403  49.705  49.752  0.00  0.00     0.000 A 
ATOM     12  C   UNL d   1      56.284  49.706  50.568  0.00  0.00     0.002 A 
ENDROOT
TORSDOF 0
ENDMDL
MODEL 3
REMARK VINA RESULT:      16.7      0.881      2.217
REMARK  0 active torsions:
REMARK  status: ('A' for Active; 'I' for Inactive)
ROOT
ATOM      1  C   UNL d   1      60.385  49.645  50.116  0.00  0.00     0.282 A 
ATOM      2  N   UNL d   1      59.619  49.655  49.805  0.00  0.00    -0.189 NA
ATOM      3  N   UNL d   1      59.085  49.691  51.132  0.00  0.00    -0.227 NA
ATOM      4  C   UNL d   1      60.498  49.658  50.931  0.00  0.00     0.076 A 
ATOM      5  C   UNL d   1      58.969  49.678  50.312  0.00  0.00     0.166 A 
ATOM      6  C   UNL d   1      59.848  49.681  51.439  0.00  0.00     0.088 A 
ATOM      7  O   UNL d   1      61.034  49.622  49.609  0.00  0.00    -0.265 OA
ATOM      8  C   UNL d   1      61.262  49.648  51.239  0.00  0.00     0.006 A 
ATOM      9  C   UNL d   1      58.199  49.688  49.998  0.00  0.00     0.042 C 
ATOM     10  C   UNL d   1      59.962  49.694  52.255  0.00  0.00     0.019 A 
ATOM     11  C   UNL d   1      61.381  49.661  52.060  0.00  0.00     0.000 A 
ATOM     12  C   UNL d   1      60.731  49.684  52.568  0.00  0.00     0.002 A 
ENDROOT
TORSDOF 0
ENDMDL
