MODEL 1
REMARK VINA RESULT:     109.3      0.000      0.000
REMARK  5 active torsions:
REMARK  status: ('A' for Active; 'I' for Inactive)
REMARK    1  A    between atoms: C_2  and  S_1 
REMARK    2  A    between atoms: N_3  and  S_1 
REMARK    3  A    between atoms: C_5  and  C_6 
REMARK       I    between atoms: N_10  and  C_5 
REMARK    4  A    between atoms: C_25  and  N_10 
REMARK    5  A    between atoms: C_24  and  C_25 
ROOT
ATOM      1  C   UNL d   1     -55.425-100.376 -43.921  0.00  0.00     0.104 A 
ATOM      2  C   UNL d   1     -55.828 -99.857 -44.413  0.00  0.00     0.018 A 
ATOM      3  C   UNL d   1     -55.985-100.067 -45.196  0.00  0.00     0.059 A 
ATOM      4  C   UNL d   1     -55.173-101.112 -44.206  0.00  0.00     0.012 A 
ATOM      5  C   UNL d   1     -55.738-100.800 -45.487  0.00  0.00     0.005 A 
ATOM      6  C   UNL d   1     -55.330-101.322 -44.988  0.00  0.00     0.001 A 
ATOM      7  C   UNL d   1     -54.761-101.640 -43.702  0.00  0.00     0.001 C 
ENDROOT
BRANCH   3   8
ATOM      8  C   UNL d   1     -56.388 -99.551 -45.689  0.00  0.00     0.279 C 
ATOM      9  N   UNL d   1     -57.215 -99.530 -45.676  0.00  0.00    -0.206 NA
ATOM     10  O   UNL d   1     -55.971 -99.059 -46.195  0.00  0.00    -0.265 OA
BRANCH   9  11
ATOM     11  C   UNL d   1     -57.633-100.022 -45.171  0.00  0.00     0.102 C 
BRANCH  11  12
ATOM     12  C   UNL d   1     -58.240 -99.706 -44.688  0.00  0.00     0.021 A 
ATOM     13  C   UNL d   1     -58.120 -99.585 -43.879  0.00  0.00     0.028 A 
ATOM     14  C   UNL d   1     -58.725 -99.276 -43.420  0.00  0.00     0.119 A 
ATOM     15  O   UNL d   1     -58.772 -99.094 -42.611  0.00  0.00    -0.300 OA
ATOM     16  C   UNL d   1     -59.457 -99.083 -43.761  0.00  0.00     0.119 A 
ATOM     17  C   UNL d   1     -59.518 -98.797 -42.460  0.00  0.00     0.304 A 
ATOM     18  O   UNL d   1     -59.942 -98.790 -43.173  0.00  0.00    -0.300 OA
ATOM     19  C   UNL d   1     -59.567 -99.207 -44.567  0.00  0.00     0.026 A 
ATOM     20  C   UNL d   1     -58.963 -99.516 -45.026  0.00  0.00     0.004 A 
ENDBRANCH  11  12
ENDBRANCH   9  11
ENDBRANCH   3   8
BRANCH   1  21
ATOM     21  S   UNL d   1     -55.271-100.157 -43.138  0.00  0.00     0.272 S 
ATOM     22  O   UNL d   1     -54.711-100.761 -43.083  0.00  0.00    -0.200 OA
ATOM     23  O   UNL d   1     -55.831 -99.556 -43.198  0.00  0.00    -0.200 OA
BRANCH  21  24
ATOM     24  N   UNL d   1     -55.118 -99.941 -42.360  0.00  0.00    -0.225 N 
ATOM     25  C   UNL d   1     -55.205-100.490 -41.759  0.00  0.00     0.118 A 
ATOM     26  C   UNL d   1     -55.054-100.282 -40.975  0.00  0.00     0.142 A 
ATOM     27  O   UNL d   1     -54.811 -99.509 -40.799  0.00  0.00    -0.300 OA
ATOM     28  C   UNL d   1     -54.723 -98.960 -41.400  0.00  0.00     0.142 A 
ATOM     29  C   UNL d   1     -54.875 -99.168 -42.184  0.00  0.00     0.118 A 
ENDBRANCH  21  24
ENDBRANCH   1  21
TORSDOF 5
ENDMDL
