MODEL 1
REMARK VINA RESULT:      28.7      0.000      0.000
REMARK  4 active torsions:
REMARK  status: ('A' for Active; 'I' for Inactive)
REMARK    1  A    between atoms: C_10  and  C_3 
REMARK    2  A    between atoms: S_8  and  C_4 
REMARK       I    between atoms: N_6  and  C_7 
REMARK    3  A    between atoms: C_7  and  C_9 
REMARK    4  A    between atoms: C_9  and  S_8 
ROOT
ATOM      1  O   UNL d   1      13.307  13.057  -3.617  0.00  0.00    -0.263 OA
ATOM      2  N   UNL d   1      12.990  12.642  -4.845  0.00  0.00    -0.120 NA
ATOM      3  C   UNL d   1      13.222  13.292  -4.404  0.00  0.00     0.205 A 
ATOM      4  C   UNL d   1      13.125  12.255  -3.574  0.00  0.00     0.236 A 
ATOM      5  N   UNL d   1      12.930  11.996  -4.329  0.00  0.00    -0.114 NA
ENDROOT
BRANCH   4   6
ATOM      6  S   UNL d   1      13.138  11.787  -2.885  0.00  0.00    -0.036 SA
BRANCH   6   7
ATOM      7  C   UNL d   1      13.804  11.792  -2.396  0.00  0.00     0.100 C 
BRANCH   7   8
ATOM      8  C   UNL d   1      13.741  11.981  -1.596  0.00  0.00     0.272 C 
ATOM      9  N   UNL d   1      14.357  12.364  -1.209  0.00  0.00    -0.272 N 
ATOM     10  C   UNL d   1      15.048  12.564  -1.618  0.00  0.00     0.083 A 
ATOM     11  C   UNL d   1      14.279  12.549  -0.401  0.00  0.00     0.083 A 
ATOM     12  C   UNL d   1      15.661  12.949  -1.218  0.00  0.00     0.019 A 
ATOM     13  C   UNL d   1      15.586  13.132  -0.424  0.00  0.00     0.003 A 
ATOM     14  C   UNL d   1      14.904  12.936  -0.014  0.00  0.00     0.019 A 
ATOM     15  O   UNL d   1      13.050  11.781  -1.187  0.00  0.00    -0.266 OA
ENDBRANCH   7   8
ENDBRANCH   6   7
ENDBRANCH   4   6
BRANCH   3  16
ATOM     16  C   UNL d   1      13.356  14.058  -4.663  0.00  0.00     0.043 A 
ATOM     17  C   UNL d   1      13.846  14.187  -5.314  0.00  0.00     0.004 A 
ATOM     18  C   UNL d   1      13.986  14.955  -5.580  0.00  0.00     0.000 A 
ATOM     19  C   UNL d   1      13.628  15.590  -5.184  0.00  0.00     0.000 A 
ATOM     20  C   UNL d   1      13.138  15.462  -4.532  0.00  0.00     0.000 A 
ATOM     21  C   UNL d   1      13.009  14.690  -4.280  0.00  0.00     0.004 A 
ENDBRANCH   3  16
TORSDOF 4
ENDMDL
