MODEL 1
REMARK VINA RESULT:      -6.3      0.000      0.000
REMARK  5 active torsions:
REMARK  status: ('A' for Active; 'I' for Inactive)
REMARK    1  A    between atoms: C_3  and  N_1 
REMARK    2  A    between atoms: C_4  and  N_1 
REMARK    3  A    between atoms: N_7  and  C_3 
REMARK    4  A    between atoms: C_10  and  N_7 
REMARK    5  A    between atoms: C_8  and  C_10 
ROOT
ATOM      1  N   UNL d   1     -48.373  11.598  22.613  0.00  0.00    -0.198 NA
ENDROOT
BRANCH   1   2
ATOM      2  C   UNL d   1     -47.744  11.876  23.081  0.00  0.00     0.222 C 
ATOM      3  S   UNL d   1     -47.493  11.456  23.698  0.00  0.00    -0.037 SA
BRANCH   2   4
ATOM      4  N   UNL d   1     -47.396  12.571  22.900  0.00  0.00    -0.216 NA
BRANCH   4   5
ATOM      5  C   UNL d   1     -46.581  12.653  22.968  0.00  0.00     0.101 C 
BRANCH   5   6
ATOM      6  C   UNL d   1     -46.208  13.354  22.706  0.00  0.00     0.019 C 
ATOM      7  C   UNL d   1     -45.554  13.311  22.204  0.00  0.00     0.002 C 
ATOM      8  C   UNL d   1     -46.495  14.088  22.951  0.00  0.00     0.002 C 
ENDBRANCH   5   6
ENDBRANCH   4   5
ENDBRANCH   2   4
ENDBRANCH   1   2
BRANCH   1   9
ATOM      9  C   UNL d   1     -49.145  11.825  22.791  0.00  0.00     0.167 A 
ATOM     10  N   UNL d   1     -49.577  12.282  22.255  0.00  0.00    -0.206 NA
ATOM     11  C   UNL d   1     -50.349  12.509  22.433  0.00  0.00     0.185 A 
ATOM     12  N   UNL d   1     -50.768  12.963  21.892  0.00  0.00    -0.127 N 
ATOM     13  C   UNL d   1     -50.690  12.279  23.145  0.00  0.00     0.041 A 
ATOM     14  C   UNL d   1     -50.261  11.819  23.688  0.00  0.00     0.006 A 
ATOM     15  C   UNL d   1     -49.483  11.593  23.505  0.00  0.00     0.039 A 
ENDBRANCH   1   9
TORSDOF 5
ENDMDL
MODEL 2
REMARK VINA RESULT:      -5.8      1.637      3.890
REMARK  5 active torsions:
REMARK  status: ('A' for Active; 'I' for Inactive)
REMARK    1  A    between atoms: C_3  and  N_1 
REMARK    2  A    between atoms: C_4  and  N_1 
REMARK    3  A    between atoms: N_7  and  C_3 
REMARK    4  A    between atoms: C_10  and  N_7 
REMARK    5  A    between atoms: C_8  and  C_10 
ROOT
ATOM      1  N   UNL d   1     -48.148  14.036  23.328  0.00  0.00    -0.198 NA
ENDROOT
BRANCH   1   2
ATOM      2  C   UNL d   1     -48.696  14.188  22.723  0.00  0.00     0.222 C 
ATOM      3  S   UNL d   1     -48.680  14.874  22.336  0.00  0.00    -0.037 SA
BRANCH   2   4
ATOM      4  N   UNL d   1     -49.240  13.634  22.535  0.00  0.00    -0.216 NA
BRANCH   4   5
ATOM      5  C   UNL d   1     -50.022  13.851  22.412  0.00  0.00     0.101 C 
BRANCH   5   6
ATOM      6  C   UNL d   1     -50.598  13.267  22.252  0.00  0.00     0.019 C 
ATOM      7  C   UNL d   1     -51.064  12.968  22.864  0.00  0.00     0.002 C 
ATOM      8  C   UNL d   1     -50.699  12.990  21.481  0.00  0.00     0.002 C 
ENDBRANCH   5   6
ENDBRANCH   4   5
ENDBRANCH   2   4
ENDBRANCH   1   2
BRANCH   1   9
ATOM      9  C   UNL d   1     -47.429  13.674  23.148  0.00  0.00     0.167 A 
ATOM     10  N   UNL d   1     -47.283  12.898  23.389  0.00  0.00    -0.206 NA
ATOM     11  C   UNL d   1     -46.564  12.537  23.208  0.00  0.00     0.185 A 
ATOM     12  N   UNL d   1     -46.431  11.765  23.454  0.00  0.00    -0.127 N 
ATOM     13  C   UNL d   1     -45.992  12.951  22.786  0.00  0.00     0.041 A 
ATOM     14  C   UNL d   1     -46.133  13.733  22.541  0.00  0.00     0.006 A 
ATOM     15  C   UNL d   1     -46.859  14.092  22.725  0.00  0.00     0.039 A 
ENDBRANCH   1   9
TORSDOF 5
ENDMDL
MODEL 3
REMARK VINA RESULT:      -5.8      2.051      2.402
REMARK  5 active torsions:
REMARK  status: ('A' for Active; 'I' for Inactive)
REMARK    1  A    between atoms: C_3  and  N_1 
REMARK    2  A    between atoms: C_4  and  N_1 
REMARK    3  A    between atoms: N_7  and  C_3 
REMARK    4  A    between atoms: C_10  and  N_7 
REMARK    5  A    between atoms: C_8  and  C_10 
ROOT
ATOM      1  N   UNL d   1     -48.889  14.142  21.764  0.00  0.00    -0.198 NA
ENDROOT
BRANCH   1   2
ATOM      2  C   UNL d   1     -48.542  13.422  21.994  0.00  0.00     0.222 C 
ATOM      3  S   UNL d   1     -48.824  12.740  21.720  0.00  0.00    -0.037 SA
BRANCH   2   4
ATOM      4  N   UNL d   1     -47.920  13.428  22.495  0.00  0.00    -0.216 NA
BRANCH   4   5
ATOM      5  C   UNL d   1     -47.263  12.960  22.340  0.00  0.00     0.101 C 
BRANCH   5   6
ATOM      6  C   UNL d   1     -46.592  13.003  22.837  0.00  0.00     0.019 C 
ATOM      7  C   UNL d   1     -46.524  12.492  23.482  0.00  0.00     0.002 C 
ATOM      8  C   UNL d   1     -46.001  13.556  22.682  0.00  0.00     0.002 C 
ENDBRANCH   5   6
ENDBRANCH   4   5
ENDBRANCH   2   4
ENDBRANCH   1   2
BRANCH   1   9
ATOM      9  C   UNL d   1     -49.547  14.427  22.172  0.00  0.00     0.167 A 
ATOM     10  N   UNL d   1     -49.461  15.033  22.725  0.00  0.00    -0.206 NA
ATOM     11  C   UNL d   1     -50.118  15.318  23.133  0.00  0.00     0.185 A 
ATOM     12  N   UNL d   1     -50.020  15.922  23.680  0.00  0.00    -0.127 N 
ATOM     13  C   UNL d   1     -50.862  14.997  22.987  0.00  0.00     0.041 A 
ATOM     14  C   UNL d   1     -50.954  14.386  22.432  0.00  0.00     0.006 A 
ATOM     15  C   UNL d   1     -50.289  14.102  22.024  0.00  0.00     0.039 A 
ENDBRANCH   1   9
TORSDOF 5
ENDMDL
MODEL 4
REMARK VINA RESULT:      -5.0      8.177      9.672
REMARK  5 active torsions:
REMARK  status: ('A' for Active; 'I' for Inactive)
REMARK    1  A    between atoms: C_3  and  N_1 
REMARK    2  A    between atoms: C_4  and  N_1 
REMARK    3  A    between atoms: N_7  and  C_3 
REMARK    4  A    between atoms: C_10  and  N_7 
REMARK    5  A    between atoms: C_8  and  C_10 
ROOT
ATOM      1  N   UNL d   1     -40.531  14.127  18.021  0.00  0.00    -0.198 NA
ENDROOT
BRANCH   1   2
ATOM      2  C   UNL d   1     -40.170  14.276  18.755  0.00  0.00     0.222 C 
ATOM      3  S   UNL d   1     -39.407  14.111  18.861  0.00  0.00    -0.037 SA
BRANCH   2   4
ATOM      4  N   UNL d   1     -40.601  14.587  19.351  0.00  0.00    -0.216 NA
BRANCH   4   5
ATOM      5  C   UNL d   1     -40.443  14.372  20.128  0.00  0.00     0.101 C 
BRANCH   5   6
ATOM      6  C   UNL d   1     -40.938  14.643  20.745  0.00  0.00     0.019 C 
ATOM      7  C   UNL d   1     -40.846  15.408  21.041  0.00  0.00     0.002 C 
ATOM      8  C   UNL d   1     -41.516  14.145  21.056  0.00  0.00     0.002 C 
ENDBRANCH   5   6
ENDBRANCH   4   5
ENDBRANCH   2   4
ENDBRANCH   1   2
BRANCH   1   9
ATOM      9  C   UNL d   1     -40.548  14.718  17.447  0.00  0.00     0.167 A 
ATOM     10  N   UNL d   1     -41.269  15.030  17.193  0.00  0.00    -0.206 NA
ATOM     11  C   UNL d   1     -41.286  15.620  16.618  0.00  0.00     0.185 A 
ATOM     12  N   UNL d   1     -42.010  15.922  16.374  0.00  0.00    -0.127 N 
ATOM     13  C   UNL d   1     -40.582  15.900  16.297  0.00  0.00     0.041 A 
ATOM     14  C   UNL d   1     -39.853  15.590  16.548  0.00  0.00     0.006 A 
ATOM     15  C   UNL d   1     -39.842  14.995  17.127  0.00  0.00     0.039 A 
ENDBRANCH   1   9
TORSDOF 5
ENDMDL
MODEL 5
REMARK VINA RESULT:      -4.9      8.395     10.320
REMARK  5 active torsions:
REMARK  status: ('A' for Active; 'I' for Inactive)
REMARK    1  A    between atoms: C_3  and  N_1 
REMARK    2  A    between atoms: C_4  and  N_1 
REMARK    3  A    between atoms: N_7  and  C_3 
REMARK    4  A    between atoms: C_10  and  N_7 
REMARK    5  A    between atoms: C_8  and  C_10 
ROOT
ATOM      1  N   UNL d   1     -40.441  14.021  17.961  0.00  0.00    -0.198 NA
ENDROOT
BRANCH   1   2
ATOM      2  C   UNL d   1     -40.446  14.653  18.501  0.00  0.00     0.222 C 
ATOM      3  S   UNL d   1     -40.547  15.391  18.246  0.00  0.00    -0.037 SA
BRANCH   2   4
ATOM      4  N   UNL d   1     -40.348  14.507  19.280  0.00  0.00    -0.216 NA
BRANCH   4   5
ATOM      5  C   UNL d   1     -40.779  14.931  19.835  0.00  0.00     0.101 C 
BRANCH   5   6
ATOM      6  C   UNL d   1     -40.725  14.734  20.646  0.00  0.00     0.019 C 
ATOM      7  C   UNL d   1     -40.126  15.060  21.111  0.00  0.00     0.002 C 
ATOM      8  C   UNL d   1     -41.272  14.214  20.979  0.00  0.00     0.002 C 
ENDBRANCH   5   6
ENDBRANCH   4   5
ENDBRANCH   2   4
ENDBRANCH   1   2
BRANCH   1   9
ATOM      9  C   UNL d   1     -39.739  13.811  17.584  0.00  0.00     0.167 A 
ATOM     10  N   UNL d   1     -39.336  13.125  17.808  0.00  0.00    -0.206 NA
ATOM     11  C   UNL d   1     -38.634  12.915  17.431  0.00  0.00     0.185 A 
ATOM     12  N   UNL d   1     -38.243  12.231  17.663  0.00  0.00    -0.127 N 
ATOM     13  C   UNL d   1     -38.334  13.390  16.830  0.00  0.00     0.041 A 
ATOM     14  C   UNL d   1     -38.734  14.081  16.600  0.00  0.00     0.006 A 
ATOM     15  C   UNL d   1     -39.441  14.289  16.983  0.00  0.00     0.039 A 
ENDBRANCH   1   9
TORSDOF 5
ENDMDL
MODEL 6
REMARK VINA RESULT:      -4.5      9.009      9.902
REMARK  5 active torsions:
REMARK  status: ('A' for Active; 'I' for Inactive)
REMARK    1  A    between atoms: C_3  and  N_1 
REMARK    2  A    between atoms: C_4  and  N_1 
REMARK    3  A    between atoms: N_7  and  C_3 
REMARK    4  A    between atoms: C_10  and  N_7 
REMARK    5  A    between atoms: C_8  and  C_10 
ROOT
ATOM      1  N   UNL d   1     -40.602  14.083  19.014  0.00  0.00    -0.198 NA
ENDROOT
BRANCH   1   2
ATOM      2  C   UNL d   1     -40.175  14.256  18.323  0.00  0.00     0.222 C 
ATOM      3  S   UNL d   1     -40.473  14.751  17.787  0.00  0.00    -0.037 SA
BRANCH   2   4
ATOM      4  N   UNL d   1     -39.461  13.918  18.205  0.00  0.00    -0.216 NA
BRANCH   4   5
ATOM      5  C   UNL d   1     -39.285  13.571  17.482  0.00  0.00     0.101 C 
BRANCH   5   6
ATOM      6  C   UNL d   1     -38.539  13.214  17.361  0.00  0.00     0.019 C 
ATOM      7  C   UNL d   1     -38.405  12.441  17.619  0.00  0.00     0.002 C 
ATOM      8  C   UNL d   1     -37.940  13.635  16.983  0.00  0.00     0.002 C 
ENDBRANCH   5   6
ENDBRANCH   4   5
ENDBRANCH   2   4
ENDBRANCH   1   2
BRANCH   1   9
ATOM      9  C   UNL d   1     -40.526  14.571  19.675  0.00  0.00     0.167 A 
ATOM     10  N   UNL d   1     -40.126  14.302  20.345  0.00  0.00    -0.206 NA
ATOM     11  C   UNL d   1     -40.050  14.790  21.006  0.00  0.00     0.185 A 
ATOM     12  N   UNL d   1     -39.651  14.511  21.666  0.00  0.00    -0.127 N 
ATOM     13  C   UNL d   1     -40.374  15.546  20.996  0.00  0.00     0.041 A 
ATOM     14  C   UNL d   1     -40.778  15.822  20.323  0.00  0.00     0.006 A 
ATOM     15  C   UNL d   1     -40.852  15.327  19.661  0.00  0.00     0.039 A 
ENDBRANCH   1   9
TORSDOF 5
ENDMDL
