MODEL 1
REMARK VINA RESULT:      -4.0      0.000      0.000
REMARK  6 active torsions:
REMARK  status: ('A' for Active; 'I' for Inactive)
REMARK    1  A    between atoms: S_9  and  C_4 
REMARK    2  A    between atoms: C_15  and  S_9 
REMARK    3  A    between atoms: C_11  and  C_15 
REMARK    4  A    between atoms: O_14  and  C_11 
REMARK    5  A    between atoms: C_17  and  O_14 
REMARK    6  A    between atoms: C_18  and  C_17 
ROOT
ATOM      1  C   UNL d   1     -42.372-123.185 -48.627  0.00  0.00     0.104 A 
ATOM      2  N   UNL d   1     -42.810-122.653 -49.876  0.00  0.00    -0.251 N 
ATOM      3  C   UNL d   1     -42.966-123.071 -49.172  0.00  0.00     0.274 A 
ATOM      4  C   UNL d   1     -42.053-122.357 -50.015  0.00  0.00     0.182 A 
ATOM      5  C   UNL d   1     -41.615-122.888 -48.767  0.00  0.00     0.095 A 
ATOM      6  N   UNL d   1     -41.451-122.479 -49.451  0.00  0.00    -0.222 NA
ATOM      7  S   UNL d   1     -42.362-123.567 -47.899  0.00  0.00    -0.081 SA
ATOM      8  C   UNL d   1     -41.138-123.088 -48.125  0.00  0.00     0.026 A 
ATOM      9  O   UNL d   1     -43.723-123.367 -49.032  0.00  0.00    -0.266 OA
ATOM     10  C   UNL d   1     -41.596-123.504 -47.591  0.00  0.00     0.031 A 
ATOM     11  C   UNL d   1     -43.414-122.535 -50.434  0.00  0.00     0.104 C 
ATOM     12  C   UNL d   1     -41.329-123.807 -46.871  0.00  0.00     0.007 C 
ENDROOT
BRANCH   4  13
ATOM     13  S   UNL d   1     -41.887-121.938 -50.716  0.00  0.00    -0.044 SA
BRANCH  13  14
ATOM     14  C   UNL d   1     -41.607-122.345 -51.378  0.00  0.00     0.107 C 
BRANCH  14  15
ATOM     15  C   UNL d   1     -41.380-121.927 -52.054  0.00  0.00     0.307 C 
ATOM     16  O   UNL d   1     -41.123-121.146 -51.988  0.00  0.00    -0.258 OA
BRANCH  15  17
ATOM     17  O   UNL d   1     -41.411-122.292 -52.793  0.00  0.00    -0.271 OA
BRANCH  17  18
ATOM     18  C   UNL d   1     -41.355-121.836 -53.479  0.00  0.00     0.126 C 
BRANCH  18  19
ATOM     19  C   UNL d   1     -41.623-122.138 -54.194  0.00  0.00     0.025 A 
ATOM     20  C   UNL d   1     -41.460-122.921 -54.398  0.00  0.00     0.002 A 
ATOM     21  C   UNL d   1     -41.728-123.224 -55.117  0.00  0.00     0.000 A 
ATOM     22  C   UNL d   1     -42.161-122.745 -55.632  0.00  0.00     0.000 A 
ATOM     23  C   UNL d   1     -42.320-121.969 -55.425  0.00  0.00     0.000 A 
ATOM     24  C   UNL d   1     -42.051-121.666 -54.706  0.00  0.00     0.002 A 
ENDBRANCH  18  19
ENDBRANCH  17  18
ENDBRANCH  15  17
ENDBRANCH  14  15
ENDBRANCH  13  14
ENDBRANCH   4  13
TORSDOF 6
ENDMDL
