MODEL 1
REMARK VINA RESULT:      -1.4      0.000      0.000
REMARK  4 active torsions:
REMARK  status: ('A' for Active; 'I' for Inactive)
REMARK       I    between atoms: C_3  and  N_1 
REMARK    1  A    between atoms: C_7  and  C_3 
REMARK    2  A    between atoms: C_8  and  C_4 
REMARK    3  A    between atoms: C_9  and  C_5 
REMARK    4  A    between atoms: O_25  and  C_18 
ROOT
ATOM      1  N   UNL d   1      32.749  19.205 -23.749  0.00  0.00    -0.195 N 
ATOM      2  N   UNL d   1      32.960  19.965 -23.480  0.00  0.00    -0.163 NA
ATOM      3  C   UNL d   1      32.880  18.925 -24.522  0.00  0.00     0.282 C 
ATOM      4  C   UNL d   1      32.398  18.782 -23.141  0.00  0.00     0.088 A 
ATOM      5  C   UNL d   1      32.735  20.014 -22.693  0.00  0.00     0.103 A 
ATOM      6  C   UNL d   1      32.389  19.284 -22.485  0.00  0.00     0.040 A 
ATOM      7  O   UNL d   1      33.238  19.404 -25.084  0.00  0.00    -0.265 OA
ENDROOT
BRANCH   3   8
ATOM      8  C   UNL d   1      32.638  18.143 -24.718  0.00  0.00     0.077 A 
ATOM      9  C   UNL d   1      31.858  17.983 -24.903  0.00  0.00     0.104 A 
ATOM     10  N   UNL d   1      31.625  17.224 -25.093  0.00  0.00    -0.242 NA
ATOM     11  C   UNL d   1      32.195  16.617 -25.095  0.00  0.00     0.099 A 
ATOM     12  C   UNL d   1      32.977  16.776 -24.910  0.00  0.00     0.021 A 
ATOM     13  C   UNL d   1      33.209  17.536 -24.720  0.00  0.00     0.008 A 
ENDBRANCH   3   8
BRANCH   4  14
ATOM     14  C   UNL d   1      32.110  18.010 -23.175  0.00  0.00     0.018 A 
ATOM     15  C   UNL d   1      32.577  17.384 -22.911  0.00  0.00     0.004 A 
ATOM     16  C   UNL d   1      32.289  16.611 -22.945  0.00  0.00     0.024 A 
ATOM     17  C   UNL d   1      31.534  16.465 -23.243  0.00  0.00     0.094 A 
ATOM     18  C   UNL d   1      31.071  17.090 -23.505  0.00  0.00     0.024 A 
ATOM     19  C   UNL d   1      31.359  17.863 -23.471  0.00  0.00     0.004 A 
BRANCH  17  20
ATOM     20  O   UNL d   1      31.246  15.693 -23.276  0.00  0.00    -0.328 OA
ATOM     21  C   UNL d   1      30.629  15.461 -22.782  0.00  0.00     0.181 C 
ENDBRANCH  17  20
ENDBRANCH   4  14
BRANCH   5  22
ATOM     22  C   UNL d   1      32.837  20.663 -22.213  0.00  0.00     0.019 A 
ATOM     23  C   UNL d   1      32.861  20.538 -21.390  0.00  0.00     0.002 A 
ATOM     24  C   UNL d   1      32.967  21.208 -20.889  0.00  0.00     0.007 A 
ATOM     25  C   UNL d   1      33.043  21.953 -21.209  0.00  0.00     0.035 A 
ATOM     26  C   UNL d   1      33.019  22.078 -22.032  0.00  0.00     0.007 A 
ATOM     27 BR   UNL d   1      33.145  22.597 -20.703  0.00  0.00    -0.049 Br
ATOM     28  C   UNL d   1      32.913  21.402 -22.534  0.00  0.00     0.002 A 
ENDBRANCH   5  22
TORSDOF 4
ENDMDL
MODEL 2
REMARK VINA RESULT:      -0.5      0.774      1.114
REMARK  4 active torsions:
REMARK  status: ('A' for Active; 'I' for Inactive)
REMARK       I    between atoms: C_3  and  N_1 
REMARK    1  A    between atoms: C_7  and  C_3 
REMARK    2  A    between atoms: C_8  and  C_4 
REMARK    3  A    between atoms: C_9  and  C_5 
REMARK    4  A    between atoms: O_25  and  C_18 
ROOT
ATOM      1  N   UNL d   1      32.753  19.834 -23.569  0.00  0.00    -0.195 N 
ATOM      2  N   UNL d   1      32.859  20.597 -23.251  0.00  0.00    -0.163 NA
ATOM      3  C   UNL d   1      32.709  19.665 -24.383  0.00  0.00     0.282 C 
ATOM      4  C   UNL d   1      32.699  19.285 -22.963  0.00  0.00     0.088 A 
ATOM      5  C   UNL d   1      32.872  20.519 -22.435  0.00  0.00     0.103 A 
ATOM      6  C   UNL d   1      32.773  19.710 -22.258  0.00  0.00     0.040 A 
ATOM      7  O   UNL d   1      32.771  20.265 -24.939  0.00  0.00    -0.265 OA
ENDROOT
BRANCH   3   8
ATOM      8  C   UNL d   1      32.600  18.866 -24.627  0.00  0.00     0.077 A 
ATOM      9  C   UNL d   1      33.241  18.405 -24.838  0.00  0.00     0.104 A 
ATOM     10  N   UNL d   1      33.134  17.631 -25.075  0.00  0.00    -0.242 NA
ATOM     11  C   UNL d   1      32.362  17.321 -25.097  0.00  0.00     0.099 A 
ATOM     12  C   UNL d   1      31.718  17.781 -24.886  0.00  0.00     0.021 A 
ATOM     13  C   UNL d   1      31.827  18.556 -24.649  0.00  0.00     0.008 A 
ENDBRANCH   3   8
BRANCH   4  14
ATOM     14  C   UNL d   1      32.593  18.470 -23.039  0.00  0.00     0.018 A 
ATOM     15  C   UNL d   1      33.235  17.986 -23.219  0.00  0.00     0.004 A 
ATOM     16  C   UNL d   1      33.129  17.171 -23.295  0.00  0.00     0.024 A 
ATOM     17  C   UNL d   1      32.380  16.841 -23.191  0.00  0.00     0.094 A 
ATOM     18  C   UNL d   1      31.742  17.326 -23.012  0.00  0.00     0.024 A 
ATOM     19  C   UNL d   1      31.848  18.140 -22.936  0.00  0.00     0.004 A 
BRANCH  17  20
ATOM     20  O   UNL d   1      32.274  16.026 -23.267  0.00  0.00    -0.328 OA
ATOM     21  C   UNL d   1      32.572  15.517 -22.692  0.00  0.00     0.181 C 
ENDBRANCH  17  20
ENDBRANCH   4  14
BRANCH   5  22
ATOM     22  C   UNL d   1      32.964  21.128 -21.904  0.00  0.00     0.019 A 
ATOM     23  C   UNL d   1      32.868  21.906 -22.184  0.00  0.00     0.002 A 
ATOM     24  C   UNL d   1      32.963  22.541 -21.635  0.00  0.00     0.007 A 
ATOM     25  C   UNL d   1      33.144  22.387 -20.856  0.00  0.00     0.035 A 
ATOM     26  C   UNL d   1      33.240  21.609 -20.577  0.00  0.00     0.007 A 
ATOM     27 BR   UNL d   1      33.234  23.020 -20.335  0.00  0.00    -0.049 Br
ATOM     28  C   UNL d   1      33.144  20.972 -21.130  0.00  0.00     0.002 A 
ENDBRANCH   5  22
TORSDOF 4
ENDMDL
MODEL 3
REMARK VINA RESULT:       0.9      1.221      1.841
REMARK  4 active torsions:
REMARK  status: ('A' for Active; 'I' for Inactive)
REMARK       I    between atoms: C_3  and  N_1 
REMARK    1  A    between atoms: C_7  and  C_3 
REMARK    2  A    between atoms: C_8  and  C_4 
REMARK    3  A    between atoms: C_9  and  C_5 
REMARK    4  A    between atoms: O_25  and  C_18 
ROOT
ATOM      1  N   UNL d   1      32.333  18.032 -22.992  0.00  0.00    -0.195 N 
ATOM      2  N   UNL d   1      32.763  18.633 -22.609  0.00  0.00    -0.163 NA
ATOM      3  C   UNL d   1      32.554  17.229 -23.006  0.00  0.00     0.282 C 
ATOM      4  C   UNL d   1      31.667  18.349 -23.349  0.00  0.00     0.088 A 
ATOM      5  C   UNL d   1      32.357  19.336 -22.730  0.00  0.00     0.103 A 
ATOM      6  C   UNL d   1      31.681  19.159 -23.187  0.00  0.00     0.040 A 
ATOM      7  O   UNL d   1      33.237  16.978 -22.626  0.00  0.00    -0.265 OA
ENDROOT
BRANCH   3   8
ATOM      8  C   UNL d   1      32.066  16.679 -23.416  0.00  0.00     0.077 A 
ATOM      9  C   UNL d   1      32.139  16.581 -24.224  0.00  0.00     0.104 A 
ATOM     10  N   UNL d   1      31.665  16.047 -24.621  0.00  0.00    -0.242 NA
ATOM     11  C   UNL d   1      31.108  15.606 -24.188  0.00  0.00     0.099 A 
ATOM     12  C   UNL d   1      31.033  15.703 -23.378  0.00  0.00     0.021 A 
ATOM     13  C   UNL d   1      31.508  16.237 -22.982  0.00  0.00     0.008 A 
ENDBRANCH   3   8
BRANCH   4  14
ATOM     14  C   UNL d   1      31.095  17.944 -23.784  0.00  0.00     0.018 A 
ATOM     15  C   UNL d   1      31.143  17.921 -24.607  0.00  0.00     0.004 A 
ATOM     16  C   UNL d   1      30.571  17.516 -25.042  0.00  0.00     0.024 A 
ATOM     17  C   UNL d   1      29.951  17.133 -24.655  0.00  0.00     0.094 A 
ATOM     18  C   UNL d   1      29.907  17.157 -23.835  0.00  0.00     0.024 A 
ATOM     19  C   UNL d   1      30.478  17.562 -23.400  0.00  0.00     0.004 A 
BRANCH  17  20
ATOM     20  O   UNL d   1      29.380  16.727 -25.090  0.00  0.00    -0.328 OA
ATOM     21  C   UNL d   1      28.594  16.730 -24.841  0.00  0.00     0.181 C 
ENDBRANCH  17  20
ENDBRANCH   4  14
BRANCH   5  22
ATOM     22  C   UNL d   1      32.583  20.065 -22.450  0.00  0.00     0.019 A 
ATOM     23  C   UNL d   1      32.372  20.265 -21.670  0.00  0.00     0.002 A 
ATOM     24  C   UNL d   1      32.604  21.022 -21.377  0.00  0.00     0.007 A 
ATOM     25  C   UNL d   1      33.023  21.535 -21.851  0.00  0.00     0.035 A 
ATOM     26  C   UNL d   1      33.233  21.335 -22.631  0.00  0.00     0.007 A 
ATOM     27 BR   UNL d   1      33.241  22.270 -21.547  0.00  0.00    -0.049 Br
ATOM     28  C   UNL d   1      32.999  20.574 -22.924  0.00  0.00     0.002 A 
ENDBRANCH   5  22
TORSDOF 4
ENDMDL
