MODEL 1
REMARK VINA RESULT:     119.2      0.000      0.000
REMARK  7 active torsions:
REMARK  status: ('A' for Active; 'I' for Inactive)
REMARK    1  A    between atoms: C_4  and  S_1 
REMARK    2  A    between atoms: N_6  and  S_1 
REMARK    3  A    between atoms: S_2  and  N_3 
REMARK    4  A    between atoms: C_8  and  S_2 
REMARK    5  A    between atoms: N_3  and  C_7 
REMARK    6  A    between atoms: C_20  and  N_13 
REMARK    7  A    between atoms: C_18  and  C_20 
ROOT
ATOM      1  C   UNL d   1      61.966  46.529  49.844  0.00  0.00     0.105 A 
ATOM      2  C   UNL d   1      61.606  45.789  49.807  0.00  0.00     0.029 A 
ATOM      3  C   UNL d   1      62.005  45.150  49.470  0.00  0.00     0.076 A 
ATOM      4  C   UNL d   1      62.736  46.629  49.537  0.00  0.00     0.013 A 
ATOM      5  C   UNL d   1      62.761  45.249  49.170  0.00  0.00     0.017 A 
ATOM      6  C   UNL d   1      63.129  45.985  49.202  0.00  0.00     0.002 A 
ATOM      7  C   UNL d   1      60.845  45.691  50.110  0.00  0.00     0.002 C 
ATOM      8  C   UNL d   1      63.156  44.608  48.833  0.00  0.00     0.002 C 
ENDROOT
BRANCH   1   9
ATOM      9  S   UNL d   1      61.567  47.168  50.181  0.00  0.00     0.272 S 
ATOM     10  O   UNL d   1      61.327  47.797  49.710  0.00  0.00    -0.200 OA
ATOM     11  O   UNL d   1      61.411  47.172  50.992  0.00  0.00    -0.200 OA
BRANCH   9  12
ATOM     12  N   UNL d   1      61.169  47.803  50.525  0.00  0.00    -0.226 N 
ATOM     13  C   UNL d   1      60.690  47.674  51.177  0.00  0.00     0.111 A 
ATOM     14  C   UNL d   1      60.292  48.309  51.521  0.00  0.00     0.100 A 
ATOM     15  N   UNL d   1      60.377  49.067  51.210  0.00  0.00    -0.300 N 
ATOM     16  C   UNL d   1      60.860  49.189  50.555  0.00  0.00     0.100 A 
ATOM     17  C   UNL d   1      61.258  48.554  50.211  0.00  0.00     0.111 A 
BRANCH  15  18
ATOM     18  C   UNL d   1      59.976  49.698  51.560  0.00  0.00     0.080 C 
BRANCH  18  19
ATOM     19  C   UNL d   1      59.162  49.650  51.700  0.00  0.00     0.018 C 
ATOM     20  C   UNL d   1      58.882  49.546  52.469  0.00  0.00     0.002 C 
ATOM     21  C   UNL d   1      58.631  49.707  51.073  0.00  0.00     0.002 C 
ENDBRANCH  18  19
ENDBRANCH  15  18
ENDBRANCH   9  12
ENDBRANCH   1   9
BRANCH   3  22
ATOM     22  N   UNL d   1      61.637  44.414  49.438  0.00  0.00    -0.229 N 
ATOM     23  C   UNL d   1      61.008  44.284  48.912  0.00  0.00     0.111 C 
BRANCH  22  24
ATOM     24  S   UNL d   1      61.894  43.803  49.929  0.00  0.00     0.271 S 
ATOM     25  O   UNL d   1      61.120  43.799  49.636  0.00  0.00    -0.200 OA
ATOM     26  O   UNL d   1      62.405  44.422  49.726  0.00  0.00    -0.200 OA
BRANCH  24  27
ATOM     27  C   UNL d   1      62.150  43.191  50.420  0.00  0.00     0.104 A 
ATOM     28  C   UNL d   1      61.726  43.003  51.101  0.00  0.00     0.013 A 
ATOM     29  C   UNL d   1      61.979  42.401  51.584  0.00  0.00     0.001 A 
ATOM     30  C   UNL d   1      62.653  41.978  51.399  0.00  0.00     0.000 A 
ATOM     31  C   UNL d   1      63.086  42.156  50.721  0.00  0.00     0.001 A 
ATOM     32  C   UNL d   1      62.909  41.367  51.890  0.00  0.00     0.000 C 
ATOM     33  C   UNL d   1      62.833  42.766  50.227  0.00  0.00     0.013 A 
ENDBRANCH  24  27
ENDBRANCH  22  24
ENDBRANCH   3  22
TORSDOF 7
ENDMDL
