MODEL 1
REMARK VINA RESULT:      -1.0      0.000      0.000
REMARK  7 active torsions:
REMARK  status: ('A' for Active; 'I' for Inactive)
REMARK       I    between atoms: C_3  and  N_1 
REMARK    1  A    between atoms: C_4  and  N_1 
REMARK    2  A    between atoms: C_5  and  N_1 
REMARK    3  A    between atoms: N_2  and  C_7 
REMARK    4  A    between atoms: C_8  and  C_3 
REMARK    5  A    between atoms: C_6  and  C_5 
REMARK    6  A    between atoms: C_9  and  C_6 
REMARK    7  A    between atoms: O_19  and  C_9 
ROOT
ATOM      1  N   UNL d   1      59.012  -0.411  29.893  0.00  0.00    -0.258 N 
ATOM      2  C   UNL d   1      58.827   0.054  30.555  0.00  0.00     0.266 C 
ATOM      3  O   UNL d   1      59.284   0.680  30.792  0.00  0.00    -0.267 OA
ENDROOT
BRANCH   1   4
ATOM      4  C   UNL d   1      59.698  -0.220  29.460  0.00  0.00     0.150 A 
ATOM      5  N   UNL d   1      59.658   0.345  28.873  0.00  0.00    -0.227 NA
ATOM      6  C   UNL d   1      60.331   0.521  28.460  0.00  0.00     0.101 A 
ATOM      7  C   UNL d   1      61.071   0.124  28.634  0.00  0.00     0.021 A 
ATOM      8  C   UNL d   1      61.110  -0.435  29.215  0.00  0.00     0.005 A 
ATOM      9  C   UNL d   1      60.438  -0.617  29.634  0.00  0.00     0.037 A 
ENDBRANCH   1   4
BRANCH   1  10
ATOM     10  C   UNL d   1      58.523  -1.041  29.682  0.00  0.00     0.090 C 
BRANCH  10  11
ATOM     11  C   UNL d   1      58.849  -1.656  29.193  0.00  0.00     0.087 C 
BRANCH  11  12
ATOM     12  C   UNL d   1      58.382  -2.305  28.964  0.00  0.00     0.297 C 
ATOM     13  O   UNL d   1      57.699  -2.191  28.566  0.00  0.00    -0.259 OA
BRANCH  12  14
ATOM     14  O   UNL d   1      58.637  -3.063  29.155  0.00  0.00    -0.296 OA
ATOM     15  C   UNL d   1      58.653  -3.659  28.585  0.00  0.00     0.185 C 
ENDBRANCH  12  14
ENDBRANCH  11  12
ENDBRANCH  10  11
ENDBRANCH   1  10
BRANCH   2  16
ATOM     16  C   UNL d   1      58.137  -0.140  30.990  0.00  0.00     0.057 A 
ATOM     17  C   UNL d   1      58.124  -0.763  31.485  0.00  0.00     0.006 A 
ATOM     18  C   UNL d   1      57.439  -0.960  31.920  0.00  0.00     0.024 A 
ATOM     19  C   UNL d   1      56.777  -0.512  31.837  0.00  0.00     0.127 A 
ATOM     20  C   UNL d   1      56.788   0.142  31.318  0.00  0.00     0.024 A 
ATOM     21  C   UNL d   1      57.458   0.320  30.905  0.00  0.00     0.006 A 
BRANCH  19  22
ATOM     22  N   UNL d   1      56.111  -0.718  32.271  0.00  0.00    -0.114 N 
ATOM     23  O   UNL d   1      55.588  -0.179  32.638  0.00  0.00    -0.532 OA
ATOM     24  O   UNL d   1      55.873  -1.498  32.399  0.00  0.00    -0.532 OA
ENDBRANCH  19  22
ENDBRANCH   2  16
TORSDOF 7
ENDMDL
MODEL 2
REMARK VINA RESULT:       1.8      1.868      4.869
REMARK  7 active torsions:
REMARK  status: ('A' for Active; 'I' for Inactive)
REMARK       I    between atoms: C_3  and  N_1 
REMARK    1  A    between atoms: C_4  and  N_1 
REMARK    2  A    between atoms: C_5  and  N_1 
REMARK    3  A    between atoms: N_2  and  C_7 
REMARK    4  A    between atoms: C_8  and  C_3 
REMARK    5  A    between atoms: C_6  and  C_5 
REMARK    6  A    between atoms: C_9  and  C_6 
REMARK    7  A    between atoms: O_19  and  C_9 
ROOT
ATOM      1  N   UNL d   1      56.624  -0.035  32.410  0.00  0.00    -0.258 N 
ATOM      2  C   UNL d   1      56.452  -0.338  31.657  0.00  0.00     0.266 C 
ATOM      3  O   UNL d   1      55.718  -0.616  31.455  0.00  0.00    -0.267 OA
ENDROOT
BRANCH   1   4
ATOM      4  C   UNL d   1      56.011  -0.019  32.975  0.00  0.00     0.150 A 
ATOM      5  N   UNL d   1      55.619   0.680  33.123  0.00  0.00    -0.227 NA
ATOM      6  C   UNL d   1      55.026   0.681  33.674  0.00  0.00     0.101 A 
ATOM      7  C   UNL d   1      54.814  -0.036  34.094  0.00  0.00     0.021 A 
ATOM      8  C   UNL d   1      55.203  -0.728  33.947  0.00  0.00     0.005 A 
ATOM      9  C   UNL d   1      55.799  -0.737  33.395  0.00  0.00     0.037 A 
ENDBRANCH   1   4
BRANCH   1  10
ATOM     10  C   UNL d   1      57.384   0.240  32.581  0.00  0.00     0.090 C 
BRANCH  10  11
ATOM     11  C   UNL d   1      57.553   0.483  33.379  0.00  0.00     0.087 C 
BRANCH  11  12
ATOM     12  C   UNL d   1      58.337   0.616  33.621  0.00  0.00     0.297 C 
ATOM     13  O   UNL d   1      58.515   0.681  34.396  0.00  0.00    -0.259 OA
BRANCH  12  14
ATOM     14  O   UNL d   1      58.922   0.680  33.047  0.00  0.00    -0.296 OA
ATOM     15  C   UNL d   1      59.719   0.590  33.245  0.00  0.00     0.185 C 
ENDBRANCH  12  14
ENDBRANCH  11  12
ENDBRANCH  10  11
ENDBRANCH   1  10
BRANCH   2  16
ATOM     16  C   UNL d   1      57.069  -0.353  31.091  0.00  0.00     0.057 A 
ATOM     17  C   UNL d   1      57.449  -1.030  30.913  0.00  0.00     0.006 A 
ATOM     18  C   UNL d   1      58.065  -1.049  30.349  0.00  0.00     0.024 A 
ATOM     19  C   UNL d   1      58.280  -0.370  29.977  0.00  0.00     0.127 A 
ATOM     20  C   UNL d   1      57.884   0.342  30.162  0.00  0.00     0.024 A 
ATOM     21  C   UNL d   1      57.290   0.344  30.709  0.00  0.00     0.006 A 
BRANCH  19  22
ATOM     22  N   UNL d   1      58.887  -0.404  29.426  0.00  0.00    -0.114 N 
ATOM     23  O   UNL d   1      58.816  -0.208  28.616  0.00  0.00    -0.532 OA
ATOM     24  O   UNL d   1      59.657  -0.641  29.607  0.00  0.00    -0.532 OA
ENDBRANCH  19  22
ENDBRANCH   2  16
TORSDOF 7
ENDMDL
