MODEL 1
REMARK VINA RESULT:      17.9      0.000      0.000
REMARK  4 active torsions:
REMARK  status: ('A' for Active; 'I' for Inactive)
REMARK    1  A    between atoms: C_6  and  C_2 
REMARK    2  A    between atoms: O_7  and  C_6 
REMARK    3  A    between atoms: C_8  and  O_7 
REMARK    4  A    between atoms: O_14  and  C_9 
ROOT
ATOM      1  C   UNL d   1      15.087  12.151  -0.672  0.00  0.00     0.161 C 
ENDROOT
BRANCH   1   2
ATOM      2  C   UNL d   1      14.501  12.062  -1.228  0.00  0.00     0.188 A 
ATOM      3  N   UNL d   1      14.846  12.075  -1.950  0.00  0.00    -0.224 NA
ATOM      4  C   UNL d   1      14.188  11.977  -2.520  0.00  0.00     0.101 A 
ATOM      5  C   UNL d   1      13.500  11.912  -2.106  0.00  0.00     0.101 A 
ATOM      6  C   UNL d   1      14.228  11.949  -3.383  0.00  0.00     0.021 A 
ATOM      7  C   UNL d   1      12.801  11.815  -2.526  0.00  0.00     0.021 A 
ATOM      8  N   UNL d   1      13.709  11.968  -1.267  0.00  0.00    -0.224 NA
ATOM      9  C   UNL d   1      12.769  11.781  -3.343  0.00  0.00     0.002 A 
ATOM     10  C   UNL d   1      13.458  11.845  -3.757  0.00  0.00     0.002 A 
ENDBRANCH   1   2
BRANCH   1  11
ATOM     11  O   UNL d   1      14.977  12.662  -0.014  0.00  0.00    -0.302 OA
BRANCH  11  12
ATOM     12  C   UNL d   1      15.032  13.491  -0.099  0.00  0.00     0.100 A 
ATOM     13  C   UNL d   1      15.772  13.844  -0.201  0.00  0.00     0.027 A 
ATOM     14  C   UNL d   1      15.851  14.657  -0.286  0.00  0.00     0.026 A 
ATOM     15  C   UNL d   1      15.158  15.114  -0.266  0.00  0.00     0.094 A 
ATOM     16  C   UNL d   1      14.418  14.762  -0.164  0.00  0.00     0.026 A 
ATOM     17  C   UNL d   1      14.341  13.940  -0.078  0.00  0.00     0.027 A 
BRANCH  15  18
ATOM     18  O   UNL d   1      15.213  15.944  -0.351  0.00  0.00    -0.328 OA
ATOM     19  C   UNL d   1      15.410  16.841  -0.661  0.00  0.00     0.181 C 
ENDBRANCH  15  18
ENDBRANCH  11  12
ENDBRANCH   1  11
TORSDOF 4
ENDMDL
