MODEL 1
REMARK VINA RESULT:      38.1      0.000      0.000
REMARK  6 active torsions:
REMARK  status: ('A' for Active; 'I' for Inactive)
REMARK    1  A    between atoms: C_6  and  N_3 
REMARK    2  A    between atoms: C_14  and  C_6 
REMARK    3  A    between atoms: C_7  and  O_8 
REMARK    4  A    between atoms: O_8  and  C_11 
REMARK    5  A    between atoms: C_11  and  C_15 
REMARK    6  A    between atoms: C_15  and  C_14 
ROOT
ATOM      1  C   UNL d   1     -51.144  26.054  33.394  0.00  0.00     0.082 C 
ENDROOT
BRANCH   1   2
ATOM      2  N   UNL d   1     -51.186  25.228  33.375  0.00  0.00    -0.287 N 
ATOM      3  C   UNL d   1     -50.436  24.844  33.368  0.00  0.00     0.183 A 
ATOM      4  N   UNL d   1     -50.572  24.008  33.348  0.00  0.00    -0.224 NA
ATOM      5  C   UNL d   1     -51.400  23.880  33.342  0.00  0.00     0.099 A 
ATOM      6  C   UNL d   1     -51.777  24.638  33.359  0.00  0.00     0.083 A 
ATOM      7  C   UNL d   1     -51.852  23.190  33.324  0.00  0.00     0.021 A 
ATOM      8  C   UNL d   1     -52.611  24.674  33.357  0.00  0.00     0.019 A 
ATOM      9  C   UNL d   1     -53.060  23.977  33.338  0.00  0.00     0.002 A 
ATOM     10  C   UNL d   1     -52.675  23.235  33.322  0.00  0.00     0.002 A 
ENDBRANCH   1   2
BRANCH   1  11
ATOM     11  C   UNL d   1     -50.636  26.429  33.922  0.00  0.00     0.021 C 
BRANCH  11  12
ATOM     12  C   UNL d   1     -50.360  27.177  33.765  0.00  0.00     0.028 C 
BRANCH  12  13
ATOM     13  C   UNL d   1     -49.713  27.489  34.190  0.00  0.00     0.123 C 
BRANCH  13  14
ATOM     14  O   UNL d   1     -49.535  28.289  34.135  0.00  0.00    -0.305 OA
BRANCH  14  15
ATOM     15  C   UNL d   1     -48.966  28.618  34.634  0.00  0.00     0.100 A 
ATOM     16  C   UNL d   1     -48.468  29.215  34.351  0.00  0.00     0.025 A 
ATOM     17  C   UNL d   1     -47.909  29.535  34.848  0.00  0.00     0.002 A 
ATOM     18  C   UNL d   1     -47.833  29.277  35.619  0.00  0.00     0.000 A 
ATOM     19  C   UNL d   1     -48.333  28.677  35.903  0.00  0.00     0.002 A 
ATOM     20  C   UNL d   1     -48.900  28.348  35.408  0.00  0.00     0.025 A 
ENDBRANCH  14  15
ENDBRANCH  13  14
ENDBRANCH  12  13
ENDBRANCH  11  12
ENDBRANCH   1  11
TORSDOF 6
ENDMDL
