MODEL 1
REMARK VINA RESULT:      36.3      0.000      0.000
REMARK  1 active torsions:
REMARK  status: ('A' for Active; 'I' for Inactive)
REMARK    1  A    between atoms: C_14  and  C_5 
ROOT
ATOM      1  C   UNL d   1      14.565  14.142  -1.770  0.00  0.00     0.111 A 
ATOM      2  C   UNL d   1      13.934  13.114  -2.559  0.00  0.00     0.062 A 
ATOM      3  C   UNL d   1      14.432  14.686  -2.454  0.00  0.00     0.213 A 
ATOM      4  C   UNL d   1      13.821  13.620  -3.168  0.00  0.00     0.101 A 
ATOM      5  C   UNL d   1      14.307  13.376  -1.858  0.00  0.00     0.018 A 
ATOM      6  O   UNL d   1      14.070  14.404  -3.114  0.00  0.00    -0.288 OA
ATOM      7  C   UNL d   1      13.684  12.321  -2.609  0.00  0.00     0.194 A 
ATOM      8  C   UNL d   1      14.934  14.400  -1.079  0.00  0.00     0.105 C 
ATOM      9  N   UNL d   1      15.303  14.641  -0.374  0.00  0.00    -0.191 NA
ATOM     10  C   UNL d   1      13.453  13.362  -3.858  0.00  0.00     0.002 A 
ATOM     11  C   UNL d   1      13.195  12.595  -3.947  0.00  0.00     0.042 A 
ATOM     12  C   UNL d   1      13.324  12.049  -3.272  0.00  0.00     0.019 A 
ATOM     13  O   UNL d   1      13.806  11.779  -1.953  0.00  0.00    -0.287 OA
ATOM     14  N   UNL d   1      14.676  15.508  -2.438  0.00  0.00    -0.120 N 
ATOM     15  C   UNL d   1      12.915  12.758  -4.716  0.00  0.00     0.009 C 
ATOM     16  C   UNL d   1      12.888  11.876  -4.180  0.00  0.00     0.009 C 
ENDROOT
BRANCH   5  17
ATOM     17  C   UNL d   1      14.419  12.865  -1.248  0.00  0.00     0.001 A 
ATOM     18  C   UNL d   1      15.106  12.451  -1.213  0.00  0.00     0.000 A 
ATOM     19  C   UNL d   1      15.240  11.913  -0.584  0.00  0.00     0.000 A 
ATOM     20  C   UNL d   1      14.680  11.814  -0.018  0.00  0.00     0.000 A 
ATOM     21  C   UNL d   1      13.969  12.245  -0.059  0.00  0.00     0.000 A 
ATOM     22  C   UNL d   1      13.841  12.776  -0.682  0.00  0.00     0.000 A 
ENDBRANCH   5  17
TORSDOF 1
ENDMDL
