MODEL 1
REMARK VINA RESULT:      23.1      0.000      0.000
REMARK  5 active torsions:
REMARK  status: ('A' for Active; 'I' for Inactive)
REMARK    1  A    between atoms: C_7  and  N_1 
REMARK    2  A    between atoms: C_8  and  N_6 
REMARK    3  A    between atoms: C_15  and  C_7 
REMARK    4  A    between atoms: N_9  and  C_15 
REMARK    5  A    between atoms: O_20  and  C_14 
ROOT
ATOM      1  N   UNL d   1      45.163 -14.315  44.195  0.00  0.00    -0.300 N 
ATOM      2  N   UNL d   1      45.873 -15.796  44.356  0.00  0.00    -0.299 N 
ATOM      3  C   UNL d   1      44.864 -14.861  44.739  0.00  0.00     0.100 A 
ATOM      4  C   UNL d   1      45.817 -14.510  43.731  0.00  0.00     0.100 A 
ATOM      5  C   UNL d   1      45.219 -15.601  44.820  0.00  0.00     0.100 A 
ATOM      6  C   UNL d   1      46.172 -15.250  43.812  0.00  0.00     0.100 A 
ENDROOT
BRANCH   2   7
ATOM      7  C   UNL d   1      46.228 -16.536  44.437  0.00  0.00     0.100 C 
BRANCH   7   8
ATOM      8  C   UNL d   1      46.646 -16.867  43.804  0.00  0.00     0.105 C 
BRANCH   8   9
ATOM      9  N   UNL d   1      46.524 -17.657  43.586  0.00  0.00    -0.239 N 
ATOM     10  C   UNL d   1      46.383 -18.290  44.094  0.00  0.00     0.267 A 
ATOM     11  C   UNL d   1      46.295 -18.972  43.633  0.00  0.00     0.061 A 
ATOM     12  O   UNL d   1      46.339 -18.249  44.916  0.00  0.00    -0.267 OA
ATOM     13  C   UNL d   1      46.149 -19.753  43.840  0.00  0.00     0.005 A 
ATOM     14  C   UNL d   1      46.381 -18.761  42.840  0.00  0.00     0.061 A 
ATOM     15  C   UNL d   1      46.087 -20.328  43.249  0.00  0.00     0.000 A 
ATOM     16  C   UNL d   1      46.175 -20.110  42.450  0.00  0.00     0.000 A 
ATOM     17  C   UNL d   1      46.321 -19.329  42.255  0.00  0.00     0.005 A 
ATOM     18  C   UNL d   1      46.523 -17.949  42.807  0.00  0.00     0.267 A 
ATOM     19  O   UNL d   1      46.642 -17.504  42.118  0.00  0.00    -0.267 OA
ENDBRANCH   8   9
ENDBRANCH   7   8
ENDBRANCH   2   7
BRANCH   1  20
ATOM     20  C   UNL d   1      44.805 -13.573  44.115  0.00  0.00     0.086 A 
ATOM     21  C   UNL d   1      45.226 -12.889  44.312  0.00  0.00     0.110 A 
ATOM     22  C   UNL d   1      44.865 -12.144  44.232  0.00  0.00     0.026 A 
ATOM     23  C   UNL d   1      44.090 -12.086  43.956  0.00  0.00     0.002 A 
ATOM     24  C   UNL d   1      43.669 -12.770  43.759  0.00  0.00     0.002 A 
ATOM     25  C   UNL d   1      44.024 -13.511  43.837  0.00  0.00     0.019 A 
BRANCH  21  26
ATOM     26  O   UNL d   1      46.001 -12.930  44.589  0.00  0.00    -0.327 OA
ATOM     27  C   UNL d   1      46.369 -12.273  44.931  0.00  0.00     0.181 C 
ENDBRANCH  21  26
ENDBRANCH   1  20
TORSDOF 5
ENDMDL
